lig.pdb
 OpenBabel11021811453D
libRbt.so/2013.1/901 2013/11/27
 42 45  0  0  0  0  0  0  0  0999 V2000
    0.2846    3.7115    0.3840 C   0  0  2  0  0  0  0  0  0  0  0  0
   -0.5090    2.8851   -0.4697 O   0  0  0  0  0  0  0  0  0  0  0  0
    0.0001    5.1986    0.1244 C   0  0  2  0  0  0  0  0  0  0  0  0
   -1.4394    5.4919    0.2510 N   0  0  0  0  0  0  0  0  0  0  0  0
    0.5312    5.6285   -1.2491 C   0  0  1  0  0  0  0  0  0  0  0  0
    0.3900    7.0292   -1.3899 O   0  0  0  0  0  0  0  0  0  0  0  0
    2.0134    5.2499   -1.3889 C   0  0  2  0  0  0  0  0  0  0  0  0
    2.4404    5.5093   -2.7125 O   0  0  0  0  0  0  0  0  0  0  0  0
    2.2528    3.7658   -1.0445 C   0  0  2  0  0  0  0  0  0  0  0  0
    1.6711    3.4279    0.2143 O   0  0  0  0  0  0  0  0  0  0  0  0
    3.7736    3.5247   -0.9964 C   0  0  0  0  0  0  0  0  0  0  0  0
    4.3092    3.1443   -2.2920 O   0  0  0  0  0  0  0  0  0  0  0  0
   -1.5848   -1.2650   -0.0816 C   0  0  2  0  0  0  0  0  0  0  0  0
   -1.2796   -2.6741    0.2368 N   0  0  0  0  0  0  0  0  0  0  0  0
   -0.6979   -0.7748   -1.2289 C   0  0  0  0  0  0  0  0  0  0  0  0
   -0.9065    0.7157   -1.4696 C   0  0  2  0  0  0  0  0  0  0  0  0
   -0.1265    1.1553   -2.6334 N   0  0  0  0  0  0  0  0  0  0  0  0
   -0.5102    1.4787   -0.1843 C   0  0  2  0  0  0  0  0  0  0  0  0
   -1.4785    1.1198    0.8970 C   0  0  2  0  0  0  0  0  0  0  0  0
   -1.1233    1.8596    2.0507 O   0  0  0  0  0  0  0  0  0  0  0  0
   -1.4167   -0.3725    1.1624 C   0  0  1  0  0  0  0  0  0  0  0  0
   -2.3745   -0.7820    2.1206 O   0  0  0  0  0  0  0  0  0  0  0  0
   -2.0448    1.8788    3.1357 C   0  0  1  0  0  0  0  0  0  0  0  0
   -1.2866    1.4696    4.4003 C   0  0  2  0  0  0  0  0  0  0  0  0
   -2.1404    0.7061    5.2315 O   0  0  0  0  0  0  0  0  0  0  0  0
   -0.9120    2.8252    5.0144 C   0  0  2  0  0  0  0  0  0  0  0  0
   -0.6288    2.7405    6.4113 O   0  0  0  0  0  0  0  0  0  0  0  0
   -2.1660    3.6336    4.6591 C   0  0  2  0  0  0  0  0  0  0  0  0
   -2.5066    3.2070    3.3474 O   0  0  0  0  0  0  0  0  0  0  0  0
   -1.9585    5.1526    4.6505 C   0  0  0  0  0  0  0  0  0  0  0  0
   -2.4943    5.7572    5.8082 O   0  0  0  0  0  0  0  0  0  0  0  0
    0.5606    2.0229    6.7342 C   0  0  2  0  0  0  0  0  0  0  0  0
    0.5261    1.4775    8.1701 C   0  0  2  0  0  0  0  0  0  0  0  0
   -0.6732    0.6523    8.3908 N   0  0  0  0  0  0  0  0  0  0  0  0
    0.6228    2.6152    9.1976 C   0  0  1  0  0  0  0  0  0  0  0  0
    0.6733    2.0502   10.4934 O   0  0  0  0  0  0  0  0  0  0  0  0
    1.9060    3.4158    8.9175 C   0  0  2  0  0  0  0  0  0  0  0  0
    2.0219    4.5063    9.8128 O   0  0  0  0  0  0  0  0  0  0  0  0
    1.9405    3.9114    7.4571 C   0  0  1  0  0  0  0  0  0  0  0  0
    1.7104    2.8426    6.5362 O   0  0  0  0  0  0  0  0  0  0  0  0
    1.0081    5.1037    7.1967 C   0  0  0  0  0  0  0  0  0  0  0  0
    1.4852    5.9212    6.0695 N   0  0  0  0  0  0  0  0  0  0  0  0
  1  3  1  0  0  0  0
  1  2  1  6  0  0  0
  3  4  1  6  0  0  0
  5  6  1  1  0  0  0
  5  3  1  0  0  0  0
  7  9  1  0  0  0  0
  7  5  1  0  0  0  0
  7  8  1  6  0  0  0
  9 10  1  0  0  0  0
  9 11  1  1  0  0  0
 10  1  1  0  0  0  0
 11 12  1  0  0  0  0
 13 14  1  1  0  0  0
 13 21  1  0  0  0  0
 15 13  1  0  0  0  0
 16 15  1  0  0  0  0
 16 18  1  0  0  0  0
 16 17  1  6  0  0  0
 18  2  1  6  0  0  0
 18 19  1  0  0  0  0
 19 21  1  0  0  0  0
 19 20  1  1  0  0  0
 21 22  1  1  0  0  0
 23 20  1  6  0  0  0
 23 29  1  0  0  0  0
 23 24  1  0  0  0  0
 24 26  1  0  0  0  0
 24 25  1  1  0  0  0
 26 27  1  1  0  0  0
 28 26  1  0  0  0  0
 28 30  1  6  0  0  0
 29 28  1  0  0  0  0
 30 31  1  0  0  0  0
 32 27  1  1  0  0  0
 32 40  1  0  0  0  0
 32 33  1  0  0  0  0
 33 35  1  0  0  0  0
 33 34  1  1  0  0  0
 35 37  1  0  0  0  0
 35 36  1  1  0  0  0
 37 38  1  1  0  0  0
 39 37  1  0  0  0  0
 39 41  1  1  0  0  0
 40 39  1  0  0  0  0
 42 41  1  0  0  0  0
M  END
>  <CHROM.1>
-157.28002689,-169.98591582,-53.31988662,-150.58886869,69.07194339,-167.73775824
-89.53228093,-166.61311571,66.47372203,168.46316099,127.73493078,162.17446231
85.40678871,68.15706694,-156.87374027,-103.24415779,-155.47322398,73.52995640
-171.42250620,-46.52231950,153.67448567,-67.45494526,-0.00223696,2.80549392
2.91172895,-1.49813541,1.08032854,1.48733741

>  <Name>
lig.pdb

>  <RI>
224

>  <Rbt.Current_Directory>
/home/itssahil/PROJECTS/Mol_Feturizer/New_Systems/rnas/2mxs

>  <Rbt.Executable>
rbdock ($Id: //depot/dev/client3/rdock/2013.1/src/exe/rbdock.cxx#4 $)

>  <Rbt.Library>
libRbt.so (2013.1, Build901 2013/11/27)

>  <Rbt.Parameter_File>
/export/apps/rDock/src/rDock_2013.1_src/data/scripts/dock_solv.prm

>  <Rbt.Receptor>
prm/pocket_docking_2.prm

>  <SCORE>
-42.0125

>  <SCORE.INTER>
-48.6253

>  <SCORE.INTER.CONST>
1

>  <SCORE.INTER.POLAR>
-6.7984

>  <SCORE.INTER.ROT>
9

>  <SCORE.INTER.SOLV>
17.7394

>  <SCORE.INTER.VDW>
-25.2687

>  <SCORE.INTER.norm>
-1.15774

>  <SCORE.INTRA>
6.61283

>  <SCORE.INTRA.DIHEDRAL>
6.07546

>  <SCORE.INTRA.DIHEDRAL.0>
30.1357

>  <SCORE.INTRA.POLAR>
0.565048

>  <SCORE.INTRA.POLAR.0>
-0.631696

>  <SCORE.INTRA.REPUL>
0

>  <SCORE.INTRA.REPUL.0>
0

>  <SCORE.INTRA.SOLV>
-0.582707

>  <SCORE.INTRA.SOLV.lig_0>
-55.904

>  <SCORE.INTRA.VDW>
1.94529

>  <SCORE.INTRA.VDW.0>
-8.21197

>  <SCORE.INTRA.norm>
0.157448

>  <SCORE.RESTR>
0

>  <SCORE.RESTR.CAVITY>
0

>  <SCORE.RESTR.norm>
0

>  <SCORE.SYSTEM>
0

>  <SCORE.SYSTEM.CONST>
0

>  <SCORE.SYSTEM.DIHEDRAL>
0

>  <SCORE.SYSTEM.SOLV>
0

>  <SCORE.SYSTEM.norm>
0

>  <SCORE.heavy>
42

>  <SCORE.norm>
-1.0003

>  <RMSD>
0.639

$$$$
lig.pdb
 OpenBabel11021811453D
libRbt.so/2013.1/901 2013/11/27
 42 45  0  0  0  0  0  0  0  0999 V2000
    0.3071    3.6636    0.3110 C   0  0  2  0  0  0  0  0  0  0  0  0
   -0.4320    2.8452   -0.5976 O   0  0  0  0  0  0  0  0  0  0  0  0
   -0.1010    5.1383    0.1750 C   0  0  2  0  0  0  0  0  0  0  0  0
   -1.5571    5.3018    0.3405 N   0  0  0  0  0  0  0  0  0  0  0  0
    0.3696    5.7177   -1.1653 C   0  0  1  0  0  0  0  0  0  0  0  0
    0.1133    7.1089   -1.1915 O   0  0  0  0  0  0  0  0  0  0  0  0
    1.8748    5.4740   -1.3514 C   0  0  2  0  0  0  0  0  0  0  0  0
    2.2562    5.8715   -2.6544 O   0  0  0  0  0  0  0  0  0  0  0  0
    2.2393    3.9919   -1.1300 C   0  0  2  0  0  0  0  0  0  0  0  0
    1.7089    3.5088    0.1038 O   0  0  0  0  0  0  0  0  0  0  0  0
    3.7752    3.8731   -1.1182 C   0  0  0  0  0  0  0  0  0  0  0  0
    4.2432    2.7427   -1.9015 O   0  0  0  0  0  0  0  0  0  0  0  0
   -1.7028   -1.2412   -0.1312 C   0  0  2  0  0  0  0  0  0  0  0  0
   -1.4598   -2.6605    0.1955 N   0  0  0  0  0  0  0  0  0  0  0  0
   -0.8246   -0.8082   -1.3079 C   0  0  0  0  0  0  0  0  0  0  0  0
   -0.9650    0.6882   -1.5606 C   0  0  2  0  0  0  0  0  0  0  0  0
   -0.1966    1.0758   -2.7502 N   0  0  0  0  0  0  0  0  0  0  0  0
   -0.4955    1.4438   -0.2956 C   0  0  2  0  0  0  0  0  0  0  0  0
   -1.4502    1.1454    0.8157 C   0  0  2  0  0  0  0  0  0  0  0  0
   -1.0267    1.8785    1.9505 O   0  0  0  0  0  0  0  0  0  0  0  0
   -1.4559   -0.3453    1.0971 C   0  0  1  0  0  0  0  0  0  0  0  0
   -2.4060   -0.6960    2.0857 O   0  0  0  0  0  0  0  0  0  0  0  0
   -2.0143    2.2507    2.9059 C   0  0  1  0  0  0  0  0  0  0  0  0
   -1.5507    1.7521    4.2762 C   0  0  2  0  0  0  0  0  0  0  0  0
   -2.6752    1.3360    5.0280 O   0  0  0  0  0  0  0  0  0  0  0  0
   -0.8652    2.9925    4.8649 C   0  0  2  0  0  0  0  0  0  0  0  0
   -0.7724    2.9499    6.2891 O   0  0  0  0  0  0  0  0  0  0  0  0
   -1.7819    4.0905    4.3115 C   0  0  2  0  0  0  0  0  0  0  0  0
   -2.0880    3.6684    2.9899 O   0  0  0  0  0  0  0  0  0  0  0  0
   -1.1400    5.4815    4.2538 C   0  0  0  0  0  0  0  0  0  0  0  0
    0.0947    5.5133    4.9377 O   0  0  0  0  0  0  0  0  0  0  0  0
    0.0777    1.9246    6.7989 C   0  0  2  0  0  0  0  0  0  0  0  0
   -0.4755    1.3177    8.0973 C   0  0  2  0  0  0  0  0  0  0  0  0
   -1.8501    0.8263    7.9045 N   0  0  0  0  0  0  0  0  0  0  0  0
   -0.3947    2.3218    9.2570 C   0  0  1  0  0  0  0  0  0  0  0  0
   -0.8351    1.6824   10.4393 O   0  0  0  0  0  0  0  0  0  0  0  0
    1.0684    2.7710    9.4102 C   0  0  2  0  0  0  0  0  0  0  0  0
    1.1920    3.7330   10.4415 O   0  0  0  0  0  0  0  0  0  0  0  0
    1.6165    3.3316    8.0817 C   0  0  1  0  0  0  0  0  0  0  0  0
    1.3986    2.4222    7.0006 O   0  0  0  0  0  0  0  0  0  0  0  0
    1.1020    4.7419    7.7577 C   0  0  0  0  0  0  0  0  0  0  0  0
    2.0370    5.4655    6.8811 N   0  0  0  0  0  0  0  0  0  0  0  0
  1  3  1  0  0  0  0
  1  2  1  6  0  0  0
  3  4  1  6  0  0  0
  5  6  1  1  0  0  0
  5  3  1  0  0  0  0
  7  9  1  0  0  0  0
  7  5  1  0  0  0  0
  7  8  1  6  0  0  0
  9 10  1  0  0  0  0
  9 11  1  1  0  0  0
 10  1  1  0  0  0  0
 11 12  1  0  0  0  0
 13 14  1  1  0  0  0
 13 21  1  0  0  0  0
 15 13  1  0  0  0  0
 16 15  1  0  0  0  0
 16 18  1  0  0  0  0
 16 17  1  6  0  0  0
 18  2  1  6  0  0  0
 18 19  1  0  0  0  0
 19 21  1  0  0  0  0
 19 20  1  1  0  0  0
 21 22  1  1  0  0  0
 23 20  1  6  0  0  0
 23 29  1  0  0  0  0
 23 24  1  0  0  0  0
 24 26  1  0  0  0  0
 24 25  1  1  0  0  0
 26 27  1  1  0  0  0
 28 26  1  0  0  0  0
 28 30  1  6  0  0  0
 29 28  1  0  0  0  0
 30 31  1  0  0  0  0
 32 27  1  1  0  0  0
 32 40  1  0  0  0  0
 32 33  1  0  0  0  0
 33 35  1  0  0  0  0
 33 34  1  6  0  0  0
 35 37  1  0  0  0  0
 35 36  1  1  0  0  0
 37 38  1  1  0  0  0
 39 37  1  0  0  0  0
 39 41  1  6  0  0  0
 40 39  1  0  0  0  0
 42 41  1  0  0  0  0
M  END
>  <CHROM.1>
-163.94625938,-159.97046629,59.49226751,-60.22287751,178.70613372,-50.72163769
-135.62888610,-60.80090385,-65.94077228,152.61384519,126.17787008,166.70595281
-61.07193522,66.11741835,-143.28421101,-10.14283252,70.24808100,140.81301180
-62.78977533,57.83803748,154.69082527,77.40633692,-0.11676093,2.78165143
2.91259352,-1.43149260,1.06816488,1.46720324

>  <Name>
lig.pdb

>  <RI>
224

>  <Rbt.Current_Directory>
/home/itssahil/PROJECTS/Mol_Feturizer/New_Systems/rnas/2mxs

>  <Rbt.Executable>
rbdock ($Id: //depot/dev/client3/rdock/2013.1/src/exe/rbdock.cxx#4 $)

>  <Rbt.Library>
libRbt.so (2013.1, Build901 2013/11/27)

>  <Rbt.Parameter_File>
/export/apps/rDock/src/rDock_2013.1_src/data/scripts/dock_solv.prm

>  <Rbt.Receptor>
prm/pocket_docking_2.prm

>  <SCORE>
-50.9834

>  <SCORE.INTER>
-51.1152

>  <SCORE.INTER.CONST>
1

>  <SCORE.INTER.POLAR>
-7.58905

>  <SCORE.INTER.ROT>
9

>  <SCORE.INTER.SOLV>
16.7359

>  <SCORE.INTER.VDW>
-23.9586

>  <SCORE.INTER.norm>
-1.21703

>  <SCORE.INTRA>
0.0569094

>  <SCORE.INTRA.DIHEDRAL>
5.12627

>  <SCORE.INTRA.DIHEDRAL.0>
30.1357

>  <SCORE.INTRA.POLAR>
-1.63239

>  <SCORE.INTRA.POLAR.0>
-0.631696

>  <SCORE.INTRA.REPUL>
0

>  <SCORE.INTRA.REPUL.0>
0

>  <SCORE.INTRA.SOLV>
0.83837

>  <SCORE.INTRA.SOLV.lig_0>
-55.904

>  <SCORE.INTRA.VDW>
2.6247

>  <SCORE.INTRA.VDW.0>
-8.21197

>  <SCORE.INTRA.norm>
0.00135499

>  <SCORE.RESTR>
0.0748923

>  <SCORE.RESTR.CAVITY>
0.0748923

>  <SCORE.RESTR.norm>
0.00178315

>  <SCORE.SYSTEM>
0

>  <SCORE.SYSTEM.CONST>
0

>  <SCORE.SYSTEM.DIHEDRAL>
0

>  <SCORE.SYSTEM.SOLV>
0

>  <SCORE.SYSTEM.norm>
0

>  <SCORE.heavy>
42

>  <SCORE.norm>
-1.21389

>  <RMSD>
0.668

$$$$
lig.pdb
 OpenBabel11021811453D
libRbt.so/2013.1/901 2013/11/27
 42 45  0  0  0  0  0  0  0  0999 V2000
    0.4105    3.8509    0.3563 C   0  0  2  0  0  0  0  0  0  0  0  0
   -0.4710    3.0894   -0.4713 O   0  0  0  0  0  0  0  0  0  0  0  0
    0.1872    5.3570    0.1529 C   0  0  2  0  0  0  0  0  0  0  0  0
   -1.2263    5.7165    0.3706 N   0  0  0  0  0  0  0  0  0  0  0  0
    0.6605    5.8003   -1.2374 C   0  0  1  0  0  0  0  0  0  0  0  0
    0.5824    7.2097   -1.3328 O   0  0  0  0  0  0  0  0  0  0  0  0
    2.1114    5.3539   -1.4730 C   0  0  2  0  0  0  0  0  0  0  0  0
    2.4751    5.6306   -2.8118 O   0  0  0  0  0  0  0  0  0  0  0  0
    2.2948    3.8505   -1.1822 C   0  0  2  0  0  0  0  0  0  0  0  0
    1.7691    3.5048    0.0989 O   0  0  0  0  0  0  0  0  0  0  0  0
    3.8017    3.5340   -1.2289 C   0  0  0  0  0  0  0  0  0  0  0  0
    4.3438    3.6470   -2.5719 O   0  0  0  0  0  0  0  0  0  0  0  0
   -1.7329   -1.0185   -0.2192 C   0  0  2  0  0  0  0  0  0  0  0  0
   -1.5077   -2.4416    0.1038 N   0  0  0  0  0  0  0  0  0  0  0  0
   -0.7422   -0.5526   -1.2890 C   0  0  0  0  0  0  0  0  0  0  0  0
   -0.8739    0.9472   -1.5261 C   0  0  2  0  0  0  0  0  0  0  0  0
    0.0096    1.3668   -2.6211 N   0  0  0  0  0  0  0  0  0  0  0  0
   -0.5484    1.6815   -0.2046 C   0  0  2  0  0  0  0  0  0  0  0  0
   -1.6100    1.3506    0.7948 C   0  0  2  0  0  0  0  0  0  0  0  0
   -1.3163    2.0647    1.9816 O   0  0  0  0  0  0  0  0  0  0  0  0
   -1.6266   -0.1454    1.0453 C   0  0  1  0  0  0  0  0  0  0  0  0
   -2.6703   -0.5260    1.9222 O   0  0  0  0  0  0  0  0  0  0  0  0
   -2.2528    1.9873    3.0510 C   0  0  1  0  0  0  0  0  0  0  0  0
   -1.4831    1.6171    4.3206 C   0  0  2  0  0  0  0  0  0  0  0  0
   -2.2839    0.7701    5.1233 O   0  0  0  0  0  0  0  0  0  0  0  0
   -1.2308    2.9866    4.9654 C   0  0  2  0  0  0  0  0  0  0  0  0
   -0.9632    2.8983    6.3652 O   0  0  0  0  0  0  0  0  0  0  0  0
   -2.5414    3.6963    4.6036 C   0  0  2  0  0  0  0  0  0  0  0  0
   -2.8255    3.2688    3.2789 O   0  0  0  0  0  0  0  0  0  0  0  0
   -2.4594    5.2270    4.6260 C   0  0  0  0  0  0  0  0  0  0  0  0
   -1.9592    5.7389    3.4091 O   0  0  0  0  0  0  0  0  0  0  0  0
    0.0509    1.9597    6.7184 C   0  0  2  0  0  0  0  0  0  0  0  0
   -0.2510    1.2704    8.0578 C   0  0  2  0  0  0  0  0  0  0  0  0
   -1.5808    0.6386    8.0365 N   0  0  0  0  0  0  0  0  0  0  0  0
   -0.1141    2.2533    9.2303 C   0  0  1  0  0  0  0  0  0  0  0  0
   -0.3176    1.5462   10.4383 O   0  0  0  0  0  0  0  0  0  0  0  0
    1.3017    2.8535    9.1989 C   0  0  2  0  0  0  0  0  0  0  0  0
    1.4673    3.8019   10.2371 O   0  0  0  0  0  0  0  0  0  0  0  0
    1.5992    3.4969    7.8288 C   0  0  1  0  0  0  0  0  0  0  0  0
    1.3284    2.5918    6.7560 O   0  0  0  0  0  0  0  0  0  0  0  0
    0.9017    4.8503    7.6275 C   0  0  0  0  0  0  0  0  0  0  0  0
    1.6060    5.6735    6.6312 N   0  0  0  0  0  0  0  0  0  0  0  0
  1  3  1  0  0  0  0
  1  2  1  6  0  0  0
  3  4  1  6  0  0  0
  5  6  1  1  0  0  0
  5  3  1  0  0  0  0
  7  9  1  0  0  0  0
  7  5  1  0  0  0  0
  7  8  1  6  0  0  0
  9 10  1  0  0  0  0
  9 11  1  1  0  0  0
 10  1  1  0  0  0  0
 11 12  1  0  0  0  0
 13 14  1  1  0  0  0
 13 21  1  0  0  0  0
 15 13  1  0  0  0  0
 16 15  1  0  0  0  0
 16 18  1  0  0  0  0
 16 17  1  6  0  0  0
 18  2  1  6  0  0  0
 18 19  1  0  0  0  0
 19 21  1  0  0  0  0
 19 20  1  1  0  0  0
 21 22  1  1  0  0  0
 23 20  1  6  0  0  0
 23 29  1  0  0  0  0
 23 24  1  0  0  0  0
 24 26  1  0  0  0  0
 24 25  1  1  0  0  0
 26 27  1  1  0  0  0
 28 26  1  0  0  0  0
 28 30  1  6  0  0  0
 29 28  1  0  0  0  0
 30 31  1  0  0  0  0
 32 27  1  1  0  0  0
 32 40  1  0  0  0  0
 32 33  1  0  0  0  0
 33 35  1  0  0  0  0
 33 34  1  6  0  0  0
 35 37  1  0  0  0  0
 35 36  1  1  0  0  0
 37 38  1  1  0  0  0
 39 37  1  0  0  0  0
 39 41  1  6  0  0  0
 40 39  1  0  0  0  0
 42 41  1  0  0  0  0
M  END
>  <CHROM.1>
-150.17256707,-168.69757518,-34.62437359,62.46846118,62.17859392,51.89796614
-68.47473194,-58.81192342,67.36758926,175.28508970,129.46385782,-56.29402572
66.41661680,50.95622311,-144.93473465,84.32697412,72.82730375,33.80953066
-178.39116203,57.99301277,156.20807176,175.69470158,-0.18085026,2.83981407
2.83770976,-1.37979575,1.02462407,1.47241958

>  <Name>
lig.pdb

>  <RI>
224

>  <Rbt.Current_Directory>
/home/itssahil/PROJECTS/Mol_Feturizer/New_Systems/rnas/2mxs

>  <Rbt.Executable>
rbdock ($Id: //depot/dev/client3/rdock/2013.1/src/exe/rbdock.cxx#4 $)

>  <Rbt.Library>
libRbt.so (2013.1, Build901 2013/11/27)

>  <Rbt.Parameter_File>
/export/apps/rDock/src/rDock_2013.1_src/data/scripts/dock_solv.prm

>  <Rbt.Receptor>
prm/pocket_docking_2.prm

>  <SCORE>
-41.9615

>  <SCORE.INTER>
-36.5506

>  <SCORE.INTER.CONST>
1

>  <SCORE.INTER.POLAR>
-4.48871

>  <SCORE.INTER.ROT>
9

>  <SCORE.INTER.SOLV>
15.5599

>  <SCORE.INTER.VDW>
-24.1913

>  <SCORE.INTER.norm>
-0.870252

>  <SCORE.INTRA>
-5.41929

>  <SCORE.INTRA.DIHEDRAL>
-5.21129

>  <SCORE.INTRA.DIHEDRAL.0>
30.1357

>  <SCORE.INTRA.POLAR>
-1.82017

>  <SCORE.INTRA.POLAR.0>
-0.631696

>  <SCORE.INTRA.REPUL>
0

>  <SCORE.INTRA.REPUL.0>
0

>  <SCORE.INTRA.SOLV>
1.03558

>  <SCORE.INTRA.SOLV.lig_0>
-55.904

>  <SCORE.INTRA.VDW>
2.85716

>  <SCORE.INTRA.VDW.0>
-8.21197

>  <SCORE.INTRA.norm>
-0.129031

>  <SCORE.RESTR>
0.00834263

>  <SCORE.RESTR.CAVITY>
0.00834263

>  <SCORE.RESTR.norm>
0.000198634

>  <SCORE.SYSTEM>
0

>  <SCORE.SYSTEM.CONST>
0

>  <SCORE.SYSTEM.DIHEDRAL>
0

>  <SCORE.SYSTEM.SOLV>
0

>  <SCORE.SYSTEM.norm>
0

>  <SCORE.heavy>
42

>  <SCORE.norm>
-0.999084

>  <RMSD>
0.689

$$$$
lig.pdb
 OpenBabel11021811453D
libRbt.so/2013.1/901 2013/11/27
 42 45  0  0  0  0  0  0  0  0999 V2000
    1.0870    3.6632    0.2302 C   0  0  2  0  0  0  0  0  0  0  0  0
   -0.0264    3.1628   -0.5124 O   0  0  0  0  0  0  0  0  0  0  0  0
    0.8909    5.1468    0.5772 C   0  0  2  0  0  0  0  0  0  0  0  0
   -0.3866    5.3609    1.2818 N   0  0  0  0  0  0  0  0  0  0  0  0
    0.9803    6.0220   -0.6796 C   0  0  1  0  0  0  0  0  0  0  0  0
    0.9488    7.3859   -0.3053 O   0  0  0  0  0  0  0  0  0  0  0  0
    2.2844    5.7324   -1.4380 C   0  0  2  0  0  0  0  0  0  0  0  0
    2.2747    6.4289   -2.6694 O   0  0  0  0  0  0  0  0  0  0  0  0
    2.4667    4.2225   -1.6936 C   0  0  2  0  0  0  0  0  0  0  0  0
    2.3016    3.4719   -0.4910 O   0  0  0  0  0  0  0  0  0  0  0  0
    3.8836    3.9996   -2.2557 C   0  0  0  0  0  0  0  0  0  0  0  0
    4.8347    3.6417   -1.2176 O   0  0  0  0  0  0  0  0  0  0  0  0
   -2.2690   -0.4946   -0.1590 C   0  0  2  0  0  0  0  0  0  0  0  0
   -2.4001   -1.9236    0.1891 N   0  0  0  0  0  0  0  0  0  0  0  0
   -1.2144   -0.3081   -1.2527 C   0  0  0  0  0  0  0  0  0  0  0  0
   -0.9721    1.1731   -1.5178 C   0  0  2  0  0  0  0  0  0  0  0  0
   -0.0334    1.3413   -2.6342 N   0  0  0  0  0  0  0  0  0  0  0  0
   -0.4477    1.8233   -0.2164 C   0  0  2  0  0  0  0  0  0  0  0  0
   -1.5386    1.7841    0.8053 C   0  0  2  0  0  0  0  0  0  0  0  0
   -1.0527    2.4206    1.9729 O   0  0  0  0  0  0  0  0  0  0  0  0
   -1.9233    0.3438    1.0860 C   0  0  1  0  0  0  0  0  0  0  0  0
   -3.0116    0.2501    1.9859 O   0  0  0  0  0  0  0  0  0  0  0  0
   -1.9740    2.6543    3.0329 C   0  0  1  0  0  0  0  0  0  0  0  0
   -1.4373    1.9523    4.2821 C   0  0  2  0  0  0  0  0  0  0  0  0
   -2.5216    1.4382    5.0323 O   0  0  0  0  0  0  0  0  0  0  0  0
   -0.6954    3.0847    5.0048 C   0  0  2  0  0  0  0  0  0  0  0  0
   -0.5175    2.8287    6.3982 O   0  0  0  0  0  0  0  0  0  0  0  0
   -1.6241    4.2610    4.6793 C   0  0  2  0  0  0  0  0  0  0  0  0
   -2.0170    4.0440    3.3314 O   0  0  0  0  0  0  0  0  0  0  0  0
   -0.9619    5.6394    4.7892 C   0  0  0  0  0  0  0  0  0  0  0  0
    0.0213    5.8249    3.7932 O   0  0  0  0  0  0  0  0  0  0  0  0
    0.6745    2.1167    6.7243 C   0  0  2  0  0  0  0  0  0  0  0  0
    0.6042    1.4993    8.1292 C   0  0  2  0  0  0  0  0  0  0  0  0
   -0.5855    0.6430    8.2688 N   0  0  0  0  0  0  0  0  0  0  0  0
    0.6459    2.5853    9.2148 C   0  0  1  0  0  0  0  0  0  0  0  0
    0.6655    1.9567   10.4818 O   0  0  0  0  0  0  0  0  0  0  0  0
    1.9218    3.4213    9.0175 C   0  0  2  0  0  0  0  0  0  0  0  0
    1.9879    4.4673    9.9693 O   0  0  0  0  0  0  0  0  0  0  0  0
    1.9939    3.9904    7.5855 C   0  0  1  0  0  0  0  0  0  0  0  0
    1.8141    2.9654    6.6055 O   0  0  0  0  0  0  0  0  0  0  0  0
    1.0477    5.1778    7.3539 C   0  0  0  0  0  0  0  0  0  0  0  0
    1.6287    6.1512    6.4153 N   0  0  0  0  0  0  0  0  0  0  0  0
  1  3  1  0  0  0  0
  1  2  1  6  0  0  0
  3  4  1  6  0  0  0
  5  6  1  1  0  0  0
  5  3  1  0  0  0  0
  7  9  1  0  0  0  0
  7  5  1  0  0  0  0
  7  8  1  6  0  0  0
  9 10  1  0  0  0  0
  9 11  1  1  0  0  0
 10  1  1  0  0  0  0
 11 12  1  0  0  0  0
 13 14  1  1  0  0  0
 13 21  1  0  0  0  0
 15 13  1  0  0  0  0
 16 15  1  0  0  0  0
 16 18  1  0  0  0  0
 16 17  1  6  0  0  0
 18  2  1  6  0  0  0
 18 19  1  0  0  0  0
 19 21  1  0  0  0  0
 19 20  1  1  0  0  0
 21 22  1  1  0  0  0
 23 20  1  6  0  0  0
 23 29  1  0  0  0  0
 23 24  1  0  0  0  0
 24 26  1  0  0  0  0
 24 25  1  1  0  0  0
 26 27  1  1  0  0  0
 28 26  1  0  0  0  0
 28 30  1  6  0  0  0
 29 28  1  0  0  0  0
 30 31  1  0  0  0  0
 32 27  1  1  0  0  0
 32 40  1  0  0  0  0
 32 33  1  0  0  0  0
 33 35  1  0  0  0  0
 33 34  1  6  0  0  0
 35 37  1  0  0  0  0
 35 36  1  1  0  0  0
 37 38  1  1  0  0  0
 39 37  1  0  0  0  0
 39 41  1  1  0  0  0
 40 39  1  0  0  0  0
 42 41  1  0  0  0  0
M  END
>  <CHROM.1>
-146.44189823,-141.94683107,-90.85559239,-166.83782435,-179.82947753,172.00522293
95.40403285,50.68408896,63.47357098,172.33279411,121.88648412,-68.54912465
71.75573422,88.75970689,-162.29802380,67.56114506,-65.45163655,-176.16867796
-176.00704115,177.36981595,146.14450278,-173.81395169,0.18496282,3.14539481
2.89694307,-1.52157369,0.92217302,1.55070874

>  <Name>
lig.pdb

>  <RI>
224

>  <Rbt.Current_Directory>
/home/itssahil/PROJECTS/Mol_Feturizer/New_Systems/rnas/2mxs

>  <Rbt.Executable>
rbdock ($Id: //depot/dev/client3/rdock/2013.1/src/exe/rbdock.cxx#4 $)

>  <Rbt.Library>
libRbt.so (2013.1, Build901 2013/11/27)

>  <Rbt.Parameter_File>
/export/apps/rDock/src/rDock_2013.1_src/data/scripts/dock_solv.prm

>  <Rbt.Receptor>
prm/pocket_docking_2.prm

>  <SCORE>
-41.4335

>  <SCORE.INTER>
-41.095

>  <SCORE.INTER.CONST>
1

>  <SCORE.INTER.POLAR>
-4.97888

>  <SCORE.INTER.ROT>
9

>  <SCORE.INTER.SOLV>
16.6809

>  <SCORE.INTER.VDW>
-25.9607

>  <SCORE.INTER.norm>
-0.978453

>  <SCORE.INTRA>
-1.11689

>  <SCORE.INTRA.DIHEDRAL>
3.30502

>  <SCORE.INTRA.DIHEDRAL.0>
30.1357

>  <SCORE.INTRA.POLAR>
-1.34863

>  <SCORE.INTRA.POLAR.0>
-0.631696

>  <SCORE.INTRA.REPUL>
0

>  <SCORE.INTRA.REPUL.0>
0

>  <SCORE.INTRA.SOLV>
2.0131

>  <SCORE.INTRA.SOLV.lig_0>
-55.904

>  <SCORE.INTRA.VDW>
0.8094

>  <SCORE.INTRA.VDW.0>
-8.21197

>  <SCORE.INTRA.norm>
-0.0265926

>  <SCORE.RESTR>
0.778385

>  <SCORE.RESTR.CAVITY>
0.778385

>  <SCORE.RESTR.norm>
0.018533

>  <SCORE.SYSTEM>
0

>  <SCORE.SYSTEM.CONST>
0

>  <SCORE.SYSTEM.DIHEDRAL>
0

>  <SCORE.SYSTEM.SOLV>
0

>  <SCORE.SYSTEM.norm>
0

>  <SCORE.heavy>
42

>  <SCORE.norm>
-0.986513

>  <RMSD>
0.724

$$$$
lig.pdb
 OpenBabel11021811453D
libRbt.so/2013.1/901 2013/11/27
 42 45  0  0  0  0  0  0  0  0999 V2000
    0.2210    3.6691    0.3886 C   0  0  2  0  0  0  0  0  0  0  0  0
   -0.5225    2.8597   -0.5244 O   0  0  0  0  0  0  0  0  0  0  0  0
   -0.1682    5.1487    0.2501 C   0  0  2  0  0  0  0  0  0  0  0  0
   -1.6232    5.3299    0.4068 N   0  0  0  0  0  0  0  0  0  0  0  0
    0.3175    5.7222   -1.0873 C   0  0  1  0  0  0  0  0  0  0  0  0
    0.0784    7.1164   -1.1150 O   0  0  0  0  0  0  0  0  0  0  0  0
    1.8208    5.4601   -1.2642 C   0  0  2  0  0  0  0  0  0  0  0  0
    2.2149    5.8528   -2.5649 O   0  0  0  0  0  0  0  0  0  0  0  0
    2.1658    3.9737   -1.0406 C   0  0  2  0  0  0  0  0  0  0  0  0
    1.6220    3.4972    0.1899 O   0  0  0  0  0  0  0  0  0  0  0  0
    3.7000    3.8361   -1.0195 C   0  0  0  0  0  0  0  0  0  0  0  0
    4.2907    4.0893   -2.3223 O   0  0  0  0  0  0  0  0  0  0  0  0
   -1.7884   -1.2361   -0.1340 C   0  0  2  0  0  0  0  0  0  0  0  0
   -1.5518   -2.6555    0.1972 N   0  0  0  0  0  0  0  0  0  0  0  0
   -0.8604   -0.7926   -1.2678 C   0  0  0  0  0  0  0  0  0  0  0  0
   -0.9983    0.7041   -1.5200 C   0  0  2  0  0  0  0  0  0  0  0  0
   -0.1791    1.1017   -2.6718 N   0  0  0  0  0  0  0  0  0  0  0  0
   -0.5912    1.4566   -0.2318 C   0  0  2  0  0  0  0  0  0  0  0  0
   -1.5934    1.1474    0.8338 C   0  0  2  0  0  0  0  0  0  0  0  0
   -1.2261    1.8777    1.9898 O   0  0  0  0  0  0  0  0  0  0  0  0
   -1.6028   -0.3445    1.1082 C   0  0  1  0  0  0  0  0  0  0  0  0
   -2.5946   -0.7053    2.0511 O   0  0  0  0  0  0  0  0  0  0  0  0
   -2.2689    2.3335    2.8452 C   0  0  1  0  0  0  0  0  0  0  0  0
   -2.0189    1.7516    4.2382 C   0  0  2  0  0  0  0  0  0  0  0  0
   -3.2592    1.4447    4.8467 O   0  0  0  0  0  0  0  0  0  0  0  0
   -1.2739    2.8924    4.9443 C   0  0  2  0  0  0  0  0  0  0  0  0
   -1.3470    2.8035    6.3675 O   0  0  0  0  0  0  0  0  0  0  0  0
   -1.9985    4.0995    4.3361 C   0  0  2  0  0  0  0  0  0  0  0  0
   -2.1978    3.7479    2.9741 O   0  0  0  0  0  0  0  0  0  0  0  0
   -1.2074    5.4112    4.4011 C   0  0  0  0  0  0  0  0  0  0  0  0
   -1.9708    6.5026    3.9329 O   0  0  0  0  0  0  0  0  0  0  0  0
   -0.4040    1.9103    6.9565 C   0  0  2  0  0  0  0  0  0  0  0  0
   -0.7715    1.5686    8.4085 C   0  0  2  0  0  0  0  0  0  0  0  0
   -2.1404    1.0330    8.4928 N   0  0  0  0  0  0  0  0  0  0  0  0
   -0.5859    2.7849    9.3283 C   0  0  1  0  0  0  0  0  0  0  0  0
   -0.8545    2.3894   10.6595 O   0  0  0  0  0  0  0  0  0  0  0  0
    0.8676    3.2723    9.2026 C   0  0  2  0  0  0  0  0  0  0  0  0
    1.0814    4.4222   10.0004 O   0  0  0  0  0  0  0  0  0  0  0  0
    1.2280    3.5626    7.7311 C   0  0  1  0  0  0  0  0  0  0  0  0
    0.9126    2.4533    6.8865 O   0  0  0  0  0  0  0  0  0  0  0  0
    0.6265    4.8739    7.2043 C   0  0  0  0  0  0  0  0  0  0  0  0
    1.6096    5.6372    6.4187 N   0  0  0  0  0  0  0  0  0  0  0  0
  1  3  1  0  0  0  0
  1  2  1  6  0  0  0
  3  4  1  6  0  0  0
  5  6  1  1  0  0  0
  5  3  1  0  0  0  0
  7  9  1  0  0  0  0
  7  5  1  0  0  0  0
  7  8  1  6  0  0  0
  9 10  1  0  0  0  0
  9 11  1  1  0  0  0
 10  1  1  0  0  0  0
 11 12  1  0  0  0  0
 13 14  1  1  0  0  0
 13 21  1  0  0  0  0
 15 13  1  0  0  0  0
 16 15  1  0  0  0  0
 16 18  1  0  0  0  0
 16 17  1  6  0  0  0
 18  2  1  6  0  0  0
 18 19  1  0  0  0  0
 19 21  1  0  0  0  0
 19 20  1  1  0  0  0
 21 22  1  1  0  0  0
 23 20  1  6  0  0  0
 23 29  1  0  0  0  0
 23 24  1  0  0  0  0
 24 26  1  0  0  0  0
 24 25  1  1  0  0  0
 26 27  1  1  0  0  0
 28 26  1  0  0  0  0
 28 30  1  6  0  0  0
 29 28  1  0  0  0  0
 30 31  1  0  0  0  0
 32 27  1  1  0  0  0
 32 40  1  0  0  0  0
 32 33  1  0  0  0  0
 33 35  1  0  0  0  0
 33 34  1  6  0  0  0
 35 37  1  0  0  0  0
 35 36  1  1  0  0  0
 37 38  1  1  0  0  0
 39 37  1  0  0  0  0
 39 41  1  6  0  0  0
 40 39  1  0  0  0  0
 42 41  1  0  0  0  0
M  END
>  <CHROM.1>
-161.21154925,-160.71328729,59.32479459,-160.07320826,176.71206664,-69.00443433
-68.38532885,46.70570634,179.58117315,147.62617503,122.05181960,172.05400236
63.07018265,82.04213755,-164.51938775,-174.88413603,-63.26334444,-144.47942806
-168.69690351,64.24404347,136.32507832,65.95599908,-0.35309533,2.92978520
2.87922358,-1.33439924,1.06605812,1.37138835

>  <Name>
lig.pdb

>  <RI>
224

>  <Rbt.Current_Directory>
/home/itssahil/PROJECTS/Mol_Feturizer/New_Systems/rnas/2mxs

>  <Rbt.Executable>
rbdock ($Id: //depot/dev/client3/rdock/2013.1/src/exe/rbdock.cxx#4 $)

>  <Rbt.Library>
libRbt.so (2013.1, Build901 2013/11/27)

>  <Rbt.Parameter_File>
/export/apps/rDock/src/rDock_2013.1_src/data/scripts/dock_solv.prm

>  <Rbt.Receptor>
prm/pocket_docking_2.prm

>  <SCORE>
-45.9991

>  <SCORE.INTER>
-43.8866

>  <SCORE.INTER.CONST>
1

>  <SCORE.INTER.POLAR>
-6.32365

>  <SCORE.INTER.ROT>
9

>  <SCORE.INTER.SOLV>
15.4037

>  <SCORE.INTER.VDW>
-22.9135

>  <SCORE.INTER.norm>
-1.04492

>  <SCORE.INTRA>
-2.12206

>  <SCORE.INTRA.DIHEDRAL>
-1.03959

>  <SCORE.INTRA.DIHEDRAL.0>
30.1357

>  <SCORE.INTRA.POLAR>
-0.876681

>  <SCORE.INTRA.POLAR.0>
-0.631696

>  <SCORE.INTRA.REPUL>
0.0241993

>  <SCORE.INTRA.REPUL.0>
0

>  <SCORE.INTRA.SOLV>
-0.0774577

>  <SCORE.INTRA.SOLV.lig_0>
-55.904

>  <SCORE.INTRA.VDW>
1.29618

>  <SCORE.INTRA.VDW.0>
-8.21197

>  <SCORE.INTRA.norm>
-0.0505253

>  <SCORE.RESTR>
0.00956739

>  <SCORE.RESTR.CAVITY>
0.00956739

>  <SCORE.RESTR.norm>
0.000227795

>  <SCORE.SYSTEM>
0

>  <SCORE.SYSTEM.CONST>
0

>  <SCORE.SYSTEM.DIHEDRAL>
0

>  <SCORE.SYSTEM.SOLV>
0

>  <SCORE.SYSTEM.norm>
0

>  <SCORE.heavy>
42

>  <SCORE.norm>
-1.09522

>  <RMSD>
0.741

$$$$
lig.pdb
 OpenBabel11021811453D
libRbt.so/2013.1/901 2013/11/27
 42 45  0  0  0  0  0  0  0  0999 V2000
    0.1703    3.7548    0.4252 C   0  0  2  0  0  0  0  0  0  0  0  0
   -0.5988    2.9263   -0.4486 O   0  0  0  0  0  0  0  0  0  0  0  0
   -0.1847    5.2362    0.2276 C   0  0  2  0  0  0  0  0  0  0  0  0
   -1.6338    5.4587    0.3857 N   0  0  0  0  0  0  0  0  0  0  0  0
    0.3047    5.7420   -1.1355 C   0  0  1  0  0  0  0  0  0  0  0  0
    0.0985    7.1391   -1.2198 O   0  0  0  0  0  0  0  0  0  0  0  0
    1.8000    5.4367   -1.3107 C   0  0  2  0  0  0  0  0  0  0  0  0
    2.1939    5.7656   -2.6291 O   0  0  0  0  0  0  0  0  0  0  0  0
    2.1113    3.9530   -1.0276 C   0  0  2  0  0  0  0  0  0  0  0  0
    1.5653    3.5412    0.2251 O   0  0  0  0  0  0  0  0  0  0  0  0
    3.6419    3.7797   -1.0103 C   0  0  0  0  0  0  0  0  0  0  0  0
    4.0362    2.3844   -1.0998 O   0  0  0  0  0  0  0  0  0  0  0  0
   -1.5450   -1.2640   -0.1710 C   0  0  2  0  0  0  0  0  0  0  0  0
   -1.1970   -2.6705    0.1138 N   0  0  0  0  0  0  0  0  0  0  0  0
   -0.6682   -0.7174   -1.3005 C   0  0  0  0  0  0  0  0  0  0  0  0
   -0.9226    0.7714   -1.5050 C   0  0  2  0  0  0  0  0  0  0  0  0
   -0.1511    1.2645   -2.6528 N   0  0  0  0  0  0  0  0  0  0  0  0
   -0.5570    1.5138   -0.1986 C   0  0  2  0  0  0  0  0  0  0  0  0
   -1.5188    1.0975    0.8677 C   0  0  2  0  0  0  0  0  0  0  0  0
   -1.1930    1.8187    2.0416 O   0  0  0  0  0  0  0  0  0  0  0  0
   -1.4113   -0.3984    1.0960 C   0  0  1  0  0  0  0  0  0  0  0  0
   -2.3605   -0.8619    2.0380 O   0  0  0  0  0  0  0  0  0  0  0  0
   -2.1087    1.7621    3.1302 C   0  0  1  0  0  0  0  0  0  0  0  0
   -1.3110    1.4404    4.3958 C   0  0  2  0  0  0  0  0  0  0  0  0
   -2.0858    0.6083    5.2385 O   0  0  0  0  0  0  0  0  0  0  0  0
   -1.0649    2.8320    4.9942 C   0  0  2  0  0  0  0  0  0  0  0  0
   -0.7705    2.7896    6.3907 O   0  0  0  0  0  0  0  0  0  0  0  0
   -2.3911    3.5138    4.6357 C   0  0  2  0  0  0  0  0  0  0  0  0
   -2.6939    3.0426    3.3300 O   0  0  0  0  0  0  0  0  0  0  0  0
   -2.3288    5.0454    4.6103 C   0  0  0  0  0  0  0  0  0  0  0  0
   -1.7195    5.5217    3.4293 O   0  0  0  0  0  0  0  0  0  0  0  0
    0.4348    2.1038    6.7235 C   0  0  2  0  0  0  0  0  0  0  0  0
    0.4373    1.6308    8.1852 C   0  0  2  0  0  0  0  0  0  0  0  0
   -0.7460    0.8031    8.4725 N   0  0  0  0  0  0  0  0  0  0  0  0
    0.5402    2.8198    9.1524 C   0  0  1  0  0  0  0  0  0  0  0  0
    0.6251    2.3212   10.4733 O   0  0  0  0  0  0  0  0  0  0  0  0
    1.8065    3.6209    8.8052 C   0  0  2  0  0  0  0  0  0  0  0  0
    1.9265    4.7564    9.6423 O   0  0  0  0  0  0  0  0  0  0  0  0
    1.8041    4.0430    7.3215 C   0  0  1  0  0  0  0  0  0  0  0  0
    1.5692    2.9265    6.4603 O   0  0  0  0  0  0  0  0  0  0  0  0
    0.8507    5.2092    7.0218 C   0  0  0  0  0  0  0  0  0  0  0  0
    1.3614    6.0518    5.9284 N   0  0  0  0  0  0  0  0  0  0  0  0
  1  3  1  0  0  0  0
  1  2  1  6  0  0  0
  3  4  1  6  0  0  0
  5  6  1  1  0  0  0
  5  3  1  0  0  0  0
  7  9  1  0  0  0  0
  7  5  1  0  0  0  0
  7  8  1  6  0  0  0
  9 10  1  0  0  0  0
  9 11  1  1  0  0  0
 10  1  1  0  0  0  0
 11 12  1  0  0  0  0
 13 14  1  1  0  0  0
 13 21  1  0  0  0  0
 15 13  1  0  0  0  0
 16 15  1  0  0  0  0
 16 18  1  0  0  0  0
 16 17  1  6  0  0  0
 18  2  1  6  0  0  0
 18 19  1  0  0  0  0
 19 21  1  0  0  0  0
 19 20  1  1  0  0  0
 21 22  1  1  0  0  0
 23 20  1  6  0  0  0
 23 29  1  0  0  0  0
 23 24  1  0  0  0  0
 24 26  1  0  0  0  0
 24 25  1  1  0  0  0
 26 27  1  1  0  0  0
 28 26  1  0  0  0  0
 28 30  1  6  0  0  0
 29 28  1  0  0  0  0
 30 31  1  0  0  0  0
 32 27  1  1  0  0  0
 32 40  1  0  0  0  0
 32 33  1  0  0  0  0
 33 35  1  0  0  0  0
 33 34  1  1  0  0  0
 35 37  1  0  0  0  0
 35 36  1  1  0  0  0
 37 38  1  1  0  0  0
 39 37  1  0  0  0  0
 39 41  1  1  0  0  0
 40 39  1  0  0  0  0
 42 41  1  0  0  0  0
M  END
>  <CHROM.1>
-156.92452191,-168.57651698,62.37296637,63.41033323,168.04173733,-57.25689797
-164.99894006,-65.39956081,-176.79424482,169.56399724,131.32163401,69.63569675
67.61132342,63.71855370,-158.49539812,77.74026801,169.88595879,-61.51450867
-176.46556323,179.30816067,148.14690888,-68.78049648,-0.08486704,2.83702506
2.86591708,-1.56071646,1.12188238,1.53010188

>  <Name>
lig.pdb

>  <RI>
224

>  <Rbt.Current_Directory>
/home/itssahil/PROJECTS/Mol_Feturizer/New_Systems/rnas/2mxs

>  <Rbt.Executable>
rbdock ($Id: //depot/dev/client3/rdock/2013.1/src/exe/rbdock.cxx#4 $)

>  <Rbt.Library>
libRbt.so (2013.1, Build901 2013/11/27)

>  <Rbt.Parameter_File>
/export/apps/rDock/src/rDock_2013.1_src/data/scripts/dock_solv.prm

>  <Rbt.Receptor>
prm/pocket_docking_2.prm

>  <SCORE>
-42.8705

>  <SCORE.INTER>
-37.7166

>  <SCORE.INTER.CONST>
1

>  <SCORE.INTER.POLAR>
-4.63544

>  <SCORE.INTER.ROT>
9

>  <SCORE.INTER.SOLV>
17.8588

>  <SCORE.INTER.VDW>
-25.2459

>  <SCORE.INTER.norm>
-0.898014

>  <SCORE.INTRA>
-5.17542

>  <SCORE.INTRA.DIHEDRAL>
-10.2512

>  <SCORE.INTRA.DIHEDRAL.0>
30.1357

>  <SCORE.INTRA.POLAR>
-0.361092

>  <SCORE.INTRA.POLAR.0>
-0.631696

>  <SCORE.INTRA.REPUL>
0

>  <SCORE.INTRA.REPUL.0>
0

>  <SCORE.INTRA.SOLV>
0.00724899

>  <SCORE.INTRA.SOLV.lig_0>
-55.904

>  <SCORE.INTRA.VDW>
1.17425

>  <SCORE.INTRA.VDW.0>
-8.21197

>  <SCORE.INTRA.norm>
-0.123224

>  <SCORE.RESTR>
0.0215076

>  <SCORE.RESTR.CAVITY>
0.0215076

>  <SCORE.RESTR.norm>
0.000512086

>  <SCORE.SYSTEM>
0

>  <SCORE.SYSTEM.CONST>
0

>  <SCORE.SYSTEM.DIHEDRAL>
0

>  <SCORE.SYSTEM.SOLV>
0

>  <SCORE.SYSTEM.norm>
0

>  <SCORE.heavy>
42

>  <SCORE.norm>
-1.02073

>  <RMSD>
0.742

$$$$
lig.pdb
 OpenBabel11021811453D
libRbt.so/2013.1/901 2013/11/27
 42 45  0  0  0  0  0  0  0  0999 V2000
    0.7246    3.6668    0.6132 C   0  0  2  0  0  0  0  0  0  0  0  0
   -0.2276    2.9912   -0.2103 O   0  0  0  0  0  0  0  0  0  0  0  0
    0.3917    5.1626    0.7203 C   0  0  2  0  0  0  0  0  0  0  0  0
   -0.9909    5.3644    1.1917 N   0  0  0  0  0  0  0  0  0  0  0  0
    0.6273    5.8755   -0.6175 C   0  0  1  0  0  0  0  0  0  0  0  0
    0.4591    7.2694   -0.4428 O   0  0  0  0  0  0  0  0  0  0  0  0
    2.0488    5.5944   -1.1272 C   0  0  2  0  0  0  0  0  0  0  0  0
    2.1930    6.1261   -2.4302 O   0  0  0  0  0  0  0  0  0  0  0  0
    2.3553    4.0830   -1.1432 C   0  0  2  0  0  0  0  0  0  0  0  0
    2.0464    3.4805    0.1132 O   0  0  0  0  0  0  0  0  0  0  0  0
    3.8534    3.9014   -1.4531 C   0  0  0  0  0  0  0  0  0  0  0  0
    4.2973    2.5363   -1.2300 O   0  0  0  0  0  0  0  0  0  0  0  0
   -1.6488   -1.0709   -0.1051 C   0  0  2  0  0  0  0  0  0  0  0  0
   -1.4615   -2.5202    0.1062 N   0  0  0  0  0  0  0  0  0  0  0  0
   -0.7344   -0.5745   -1.2279 C   0  0  0  0  0  0  0  0  0  0  0  0
   -0.8178    0.9418   -1.3575 C   0  0  2  0  0  0  0  0  0  0  0  0
   -0.0145    1.3980   -2.4987 N   0  0  0  0  0  0  0  0  0  0  0  0
   -0.3457    1.5728   -0.0269 C   0  0  2  0  0  0  0  0  0  0  0  0
   -1.3306    1.2186    1.0408 C   0  0  2  0  0  0  0  0  0  0  0  0
   -0.9027    1.8396    2.2390 O   0  0  0  0  0  0  0  0  0  0  0  0
   -1.3934   -0.2890    1.1971 C   0  0  1  0  0  0  0  0  0  0  0  0
   -2.3733   -0.6854    2.1383 O   0  0  0  0  0  0  0  0  0  0  0  0
   -1.8982    2.2027    3.1898 C   0  0  1  0  0  0  0  0  0  0  0  0
   -1.4621    1.6618    4.5531 C   0  0  2  0  0  0  0  0  0  0  0  0
   -2.6035    1.2442    5.2779 O   0  0  0  0  0  0  0  0  0  0  0  0
   -0.7663    2.8758    5.1832 C   0  0  2  0  0  0  0  0  0  0  0  0
   -0.6947    2.7952    6.6070 O   0  0  0  0  0  0  0  0  0  0  0  0
   -1.6580    4.0019    4.6457 C   0  0  2  0  0  0  0  0  0  0  0  0
   -1.9514    3.6187    3.3095 O   0  0  0  0  0  0  0  0  0  0  0  0
   -0.9941    5.3837    4.6331 C   0  0  0  0  0  0  0  0  0  0  0  0
   -1.7385    6.3114    3.8725 O   0  0  0  0  0  0  0  0  0  0  0  0
   -0.0520    1.6232    7.1044 C   0  0  2  0  0  0  0  0  0  0  0  0
   -0.6670    1.1550    8.4321 C   0  0  2  0  0  0  0  0  0  0  0  0
   -2.1191    0.9523    8.2969 N   0  0  0  0  0  0  0  0  0  0  0  0
   -0.3393    2.1331    9.5703 C   0  0  1  0  0  0  0  0  0  0  0  0
   -0.8549    1.6088   10.7786 O   0  0  0  0  0  0  0  0  0  0  0  0
    1.1893    2.2761    9.6636 C   0  0  2  0  0  0  0  0  0  0  0  0
    1.5454    3.2030   10.6728 O   0  0  0  0  0  0  0  0  0  0  0  0
    1.7887    2.6997    8.3069 C   0  0  1  0  0  0  0  0  0  0  0  0
    1.3492    1.8431    7.2503 O   0  0  0  0  0  0  0  0  0  0  0  0
    1.5598    4.1820    7.9764 C   0  0  0  0  0  0  0  0  0  0  0  0
    2.4638    4.6392    6.9087 N   0  0  0  0  0  0  0  0  0  0  0  0
  1  3  1  0  0  0  0
  1  2  1  6  0  0  0
  3  4  1  6  0  0  0
  5  6  1  1  0  0  0
  5  3  1  0  0  0  0
  7  9  1  0  0  0  0
  7  5  1  0  0  0  0
  7  8  1  6  0  0  0
  9 10  1  0  0  0  0
  9 11  1  1  0  0  0
 10  1  1  0  0  0  0
 11 12  1  0  0  0  0
 13 14  1  1  0  0  0
 13 21  1  0  0  0  0
 15 13  1  0  0  0  0
 16 15  1  0  0  0  0
 16 18  1  0  0  0  0
 16 17  1  6  0  0  0
 18  2  1  6  0  0  0
 18 19  1  0  0  0  0
 19 21  1  0  0  0  0
 19 20  1  1  0  0  0
 21 22  1  1  0  0  0
 23 20  1  6  0  0  0
 23 29  1  0  0  0  0
 23 24  1  0  0  0  0
 24 26  1  0  0  0  0
 24 25  1  1  0  0  0
 26 27  1  1  0  0  0
 28 26  1  0  0  0  0
 28 30  1  6  0  0  0
 29 28  1  0  0  0  0
 30 31  1  0  0  0  0
 32 27  1  1  0  0  0
 32 40  1  0  0  0  0
 32 33  1  0  0  0  0
 33 35  1  0  0  0  0
 33 34  1  6  0  0  0
 35 37  1  0  0  0  0
 35 36  1  1  0  0  0
 37 38  1  1  0  0  0
 39 37  1  0  0  0  0
 39 41  1  6  0  0  0
 40 39  1  0  0  0  0
 42 41  1  0  0  0  0
M  END
>  <CHROM.1>
-152.20931419,-158.29261794,20.52171265,53.22098368,179.74494400,63.75360670
168.56193858,-77.87972694,-64.22539764,150.82846123,130.10564430,174.88665158
-60.17853630,56.37342436,-146.53655013,167.21700735,76.66121902,27.36087066
-62.59334008,-57.75485604,162.99630753,-161.42649729,-0.03102128,2.74084800
3.14619659,-1.37887900,1.06706370,1.47847011

>  <Name>
lig.pdb

>  <RI>
224

>  <Rbt.Current_Directory>
/home/itssahil/PROJECTS/Mol_Feturizer/New_Systems/rnas/2mxs

>  <Rbt.Executable>
rbdock ($Id: //depot/dev/client3/rdock/2013.1/src/exe/rbdock.cxx#4 $)

>  <Rbt.Library>
libRbt.so (2013.1, Build901 2013/11/27)

>  <Rbt.Parameter_File>
/export/apps/rDock/src/rDock_2013.1_src/data/scripts/dock_solv.prm

>  <Rbt.Receptor>
prm/pocket_docking_2.prm

>  <SCORE>
-44.6232

>  <SCORE.INTER>
-40.5514

>  <SCORE.INTER.CONST>
1

>  <SCORE.INTER.POLAR>
-5.22945

>  <SCORE.INTER.ROT>
9

>  <SCORE.INTER.SOLV>
16.6388

>  <SCORE.INTER.VDW>
-24.749

>  <SCORE.INTER.norm>
-0.965511

>  <SCORE.INTRA>
-4.11545

>  <SCORE.INTRA.DIHEDRAL>
0.276722

>  <SCORE.INTRA.DIHEDRAL.0>
30.1357

>  <SCORE.INTRA.POLAR>
-1.98939

>  <SCORE.INTRA.POLAR.0>
-0.631696

>  <SCORE.INTRA.REPUL>
0

>  <SCORE.INTRA.REPUL.0>
0

>  <SCORE.INTRA.SOLV>
0.11188

>  <SCORE.INTRA.SOLV.lig_0>
-55.904

>  <SCORE.INTRA.VDW>
2.45417

>  <SCORE.INTRA.VDW.0>
-8.21197

>  <SCORE.INTRA.norm>
-0.0979868

>  <SCORE.RESTR>
0.0437043

>  <SCORE.RESTR.CAVITY>
0.0437043

>  <SCORE.RESTR.norm>
0.00104058

>  <SCORE.SYSTEM>
0

>  <SCORE.SYSTEM.CONST>
0

>  <SCORE.SYSTEM.DIHEDRAL>
0

>  <SCORE.SYSTEM.SOLV>
0

>  <SCORE.SYSTEM.norm>
0

>  <SCORE.heavy>
42

>  <SCORE.norm>
-1.06246

>  <RMSD>
0.757

$$$$
lig.pdb
 OpenBabel11021811453D
libRbt.so/2013.1/901 2013/11/27
 42 45  0  0  0  0  0  0  0  0999 V2000
    0.6676    3.6862    0.4896 C   0  0  2  0  0  0  0  0  0  0  0  0
   -0.2370    2.9676   -0.3510 O   0  0  0  0  0  0  0  0  0  0  0  0
    0.3248    5.1835    0.5087 C   0  0  2  0  0  0  0  0  0  0  0  0
   -1.0817    5.3994    0.8956 N   0  0  0  0  0  0  0  0  0  0  0  0
    0.6294    5.8346   -0.8466 C   0  0  1  0  0  0  0  0  0  0  0  0
    0.4478    7.2341   -0.7467 O   0  0  0  0  0  0  0  0  0  0  0  0
    2.0771    5.5380   -1.2661 C   0  0  2  0  0  0  0  0  0  0  0  0
    2.2892    6.0093   -2.5830 O   0  0  0  0  0  0  0  0  0  0  0  0
    2.3887    4.0293   -1.1949 C   0  0  2  0  0  0  0  0  0  0  0  0
    2.0149    3.4843    0.0701 O   0  0  0  0  0  0  0  0  0  0  0  0
    3.9018    3.8418   -1.4156 C   0  0  0  0  0  0  0  0  0  0  0  0
    4.3198    2.4667   -1.2048 O   0  0  0  0  0  0  0  0  0  0  0  0
   -1.4726   -1.1545   -0.2386 C   0  0  2  0  0  0  0  0  0  0  0  0
   -1.2158   -2.5951   -0.0417 N   0  0  0  0  0  0  0  0  0  0  0  0
   -0.6094   -0.6113   -1.3801 C   0  0  0  0  0  0  0  0  0  0  0  0
   -0.7635    0.9004   -1.4972 C   0  0  2  0  0  0  0  0  0  0  0  0
   -0.0098    1.3986   -2.6546 N   0  0  0  0  0  0  0  0  0  0  0  0
   -0.2872    1.5444   -0.1744 C   0  0  2  0  0  0  0  0  0  0  0  0
   -1.2286    1.1404    0.9147 C   0  0  2  0  0  0  0  0  0  0  0  0
   -0.7993    1.7732    2.1063 O   0  0  0  0  0  0  0  0  0  0  0  0
   -1.2203   -0.3694    1.0623 C   0  0  1  0  0  0  0  0  0  0  0  0
   -2.1580   -0.8145    2.0244 O   0  0  0  0  0  0  0  0  0  0  0  0
   -1.7880    2.0977    3.0779 C   0  0  1  0  0  0  0  0  0  0  0  0
   -1.2968    1.5858    4.4337 C   0  0  2  0  0  0  0  0  0  0  0  0
   -2.4015    1.1226    5.1872 O   0  0  0  0  0  0  0  0  0  0  0  0
   -0.6417    2.8338    5.0407 C   0  0  2  0  0  0  0  0  0  0  0  0
   -0.5339    2.7659    6.4629 O   0  0  0  0  0  0  0  0  0  0  0  0
   -1.5950    3.9154    4.5178 C   0  0  2  0  0  0  0  0  0  0  0  0
   -1.9016    3.5107    3.1909 O   0  0  0  0  0  0  0  0  0  0  0  0
   -0.9940    5.3254    4.4820 C   0  0  0  0  0  0  0  0  0  0  0  0
    0.2482    5.3783    5.1507 O   0  0  0  0  0  0  0  0  0  0  0  0
    0.4569    1.8583    6.9412 C   0  0  2  0  0  0  0  0  0  0  0  0
   -0.1180    0.8795    7.9763 C   0  0  2  0  0  0  0  0  0  0  0  0
   -1.2826    0.1617    7.4318 N   0  0  0  0  0  0  0  0  0  0  0  0
   -0.4643    1.5999    9.2880 C   0  0  1  0  0  0  0  0  0  0  0  0
   -0.9056    0.6393   10.2278 O   0  0  0  0  0  0  0  0  0  0  0  0
    0.8014    2.3049    9.8045 C   0  0  2  0  0  0  0  0  0  0  0  0
    0.5258    3.0224   10.9935 O   0  0  0  0  0  0  0  0  0  0  0  0
    1.3874    3.2452    8.7311 C   0  0  1  0  0  0  0  0  0  0  0  0
    1.5672    2.5688    7.4848 O   0  0  0  0  0  0  0  0  0  0  0  0
    0.5943    4.5501    8.5664 C   0  0  0  0  0  0  0  0  0  0  0  0
    1.2724    5.4770    7.6460 N   0  0  0  0  0  0  0  0  0  0  0  0
  1  3  1  0  0  0  0
  1  2  1  6  0  0  0
  3  4  1  6  0  0  0
  5  6  1  1  0  0  0
  5  3  1  0  0  0  0
  7  9  1  0  0  0  0
  7  5  1  0  0  0  0
  7  8  1  6  0  0  0
  9 10  1  0  0  0  0
  9 11  1  1  0  0  0
 10  1  1  0  0  0  0
 11 12  1  0  0  0  0
 13 14  1  1  0  0  0
 13 21  1  0  0  0  0
 15 13  1  0  0  0  0
 16 15  1  0  0  0  0
 16 18  1  0  0  0  0
 16 17  1  6  0  0  0
 18  2  1  6  0  0  0
 18 19  1  0  0  0  0
 19 21  1  0  0  0  0
 19 20  1  1  0  0  0
 21 22  1  1  0  0  0
 23 20  1  6  0  0  0
 23 29  1  0  0  0  0
 23 24  1  0  0  0  0
 24 26  1  0  0  0  0
 24 25  1  1  0  0  0
 26 27  1  1  0  0  0
 28 26  1  0  0  0  0
 28 30  1  6  0  0  0
 29 28  1  0  0  0  0
 30 31  1  0  0  0  0
 32 27  1  1  0  0  0
 32 40  1  0  0  0  0
 32 33  1  0  0  0  0
 33 35  1  0  0  0  0
 33 34  1  6  0  0  0
 35 37  1  0  0  0  0
 35 36  1  1  0  0  0
 37 38  1  1  0  0  0
 39 37  1  0  0  0  0
 39 41  1  6  0  0  0
 40 39  1  0  0  0  0
 42 41  1  0  0  0  0
M  END
>  <CHROM.1>
-154.52803370,-162.75562859,175.36208942,-157.94641751,-48.87827730,62.76534392
172.98775658,167.37370144,-178.57497760,150.22627308,130.85707913,65.45207721
-55.10095718,72.66081441,-127.89220178,-9.91888097,71.44797837,76.88706251
-174.58437515,59.94733838,173.58659634,78.08322866,0.02087202,2.66841711
3.08470852,-1.34633182,1.14024412,1.43180962

>  <Name>
lig.pdb

>  <RI>
224

>  <Rbt.Current_Directory>
/home/itssahil/PROJECTS/Mol_Feturizer/New_Systems/rnas/2mxs

>  <Rbt.Executable>
rbdock ($Id: //depot/dev/client3/rdock/2013.1/src/exe/rbdock.cxx#4 $)

>  <Rbt.Library>
libRbt.so (2013.1, Build901 2013/11/27)

>  <Rbt.Parameter_File>
/export/apps/rDock/src/rDock_2013.1_src/data/scripts/dock_solv.prm

>  <Rbt.Receptor>
prm/pocket_docking_2.prm

>  <SCORE>
-43.7758

>  <SCORE.INTER>
-40.0485

>  <SCORE.INTER.CONST>
1

>  <SCORE.INTER.POLAR>
-5.15739

>  <SCORE.INTER.ROT>
9

>  <SCORE.INTER.SOLV>
17.3878

>  <SCORE.INTER.VDW>
-24.9036

>  <SCORE.INTER.norm>
-0.953536

>  <SCORE.INTRA>
-3.7331

>  <SCORE.INTRA.DIHEDRAL>
3.33134

>  <SCORE.INTRA.DIHEDRAL.0>
30.1357

>  <SCORE.INTRA.POLAR>
-2.16727

>  <SCORE.INTRA.POLAR.0>
-0.631696

>  <SCORE.INTRA.REPUL>
0

>  <SCORE.INTRA.REPUL.0>
0

>  <SCORE.INTRA.SOLV>
1.4957

>  <SCORE.INTRA.SOLV.lig_0>
-55.904

>  <SCORE.INTRA.VDW>
1.22211

>  <SCORE.INTRA.VDW.0>
-8.21197

>  <SCORE.INTRA.norm>
-0.0888832

>  <SCORE.RESTR>
0.00585837

>  <SCORE.RESTR.CAVITY>
0.00585837

>  <SCORE.RESTR.norm>
0.000139485

>  <SCORE.SYSTEM>
0

>  <SCORE.SYSTEM.CONST>
0

>  <SCORE.SYSTEM.DIHEDRAL>
0

>  <SCORE.SYSTEM.SOLV>
0

>  <SCORE.SYSTEM.norm>
0

>  <SCORE.heavy>
42

>  <SCORE.norm>
-1.04228

>  <RMSD>
0.765

$$$$
lig.pdb
 OpenBabel11021811453D
libRbt.so/2013.1/901 2013/11/27
 42 45  0  0  0  0  0  0  0  0999 V2000
    0.2954    3.7506    0.4249 C   0  0  2  0  0  0  0  0  0  0  0  0
   -0.5754    2.9458   -0.3723 O   0  0  0  0  0  0  0  0  0  0  0  0
   -0.1079    5.2310    0.3518 C   0  0  2  0  0  0  0  0  0  0  0  0
   -1.5238    5.4125    0.7217 N   0  0  0  0  0  0  0  0  0  0  0  0
    0.1764    5.8103   -1.0400 C   0  0  1  0  0  0  0  0  0  0  0  0
   -0.0623    7.2047   -1.0260 O   0  0  0  0  0  0  0  0  0  0  0  0
    1.6369    5.5480   -1.4373 C   0  0  2  0  0  0  0  0  0  0  0  0
    1.8359    5.9464   -2.7801 O   0  0  0  0  0  0  0  0  0  0  0  0
    2.0091    4.0603   -1.2736 C   0  0  2  0  0  0  0  0  0  0  0  0
    1.6517    3.5786    0.0215 O   0  0  0  0  0  0  0  0  0  0  0  0
    3.5295    3.9216   -1.4790 C   0  0  0  0  0  0  0  0  0  0  0  0
    3.9499    4.3870   -2.7894 O   0  0  0  0  0  0  0  0  0  0  0  0
   -1.5558   -1.2387   -0.1283 C   0  0  2  0  0  0  0  0  0  0  0  0
   -1.2216   -2.6492    0.1526 N   0  0  0  0  0  0  0  0  0  0  0  0
   -0.6624   -0.6925   -1.2448 C   0  0  0  0  0  0  0  0  0  0  0  0
   -0.9034    0.7992   -1.4440 C   0  0  2  0  0  0  0  0  0  0  0  0
   -0.1154    1.2927   -2.5804 N   0  0  0  0  0  0  0  0  0  0  0  0
   -0.5469    1.5318   -0.1296 C   0  0  2  0  0  0  0  0  0  0  0  0
   -1.5238    1.1169    0.9236 C   0  0  2  0  0  0  0  0  0  0  0  0
   -1.2058    1.8293    2.1050 O   0  0  0  0  0  0  0  0  0  0  0  0
   -1.4300   -0.3810    1.1449 C   0  0  1  0  0  0  0  0  0  0  0  0
   -2.3932   -0.8423    2.0736 O   0  0  0  0  0  0  0  0  0  0  0  0
   -2.1203    1.7506    3.1932 C   0  0  1  0  0  0  0  0  0  0  0  0
   -1.3044    1.6960    4.4866 C   0  0  2  0  0  0  0  0  0  0  0  0
   -1.9562    0.8508    5.4159 O   0  0  0  0  0  0  0  0  0  0  0  0
   -1.2856    3.1658    4.9278 C   0  0  2  0  0  0  0  0  0  0  0  0
   -1.0121    3.3219    6.3205 O   0  0  0  0  0  0  0  0  0  0  0  0
   -2.6945    3.5909    4.4963 C   0  0  2  0  0  0  0  0  0  0  0  0
   -2.8989    2.9392    3.2505 O   0  0  0  0  0  0  0  0  0  0  0  0
   -2.8682    5.1017    4.3022 C   0  0  0  0  0  0  0  0  0  0  0  0
   -2.4854    5.8215    5.4548 O   0  0  0  0  0  0  0  0  0  0  0  0
    0.1914    2.6978    6.7635 C   0  0  2  0  0  0  0  0  0  0  0  0
    0.1340    2.3434    8.2573 C   0  0  2  0  0  0  0  0  0  0  0  0
   -1.0422    1.5094    8.5554 N   0  0  0  0  0  0  0  0  0  0  0  0
    0.1620    3.6082    9.1286 C   0  0  1  0  0  0  0  0  0  0  0  0
    0.1944    3.2192   10.4881 O   0  0  0  0  0  0  0  0  0  0  0  0
    1.4246    4.4132    8.7769 C   0  0  2  0  0  0  0  0  0  0  0  0
    1.4772    5.6148    9.5238 O   0  0  0  0  0  0  0  0  0  0  0  0
    1.4843    4.7152    7.2653 C   0  0  1  0  0  0  0  0  0  0  0  0
    1.3177    3.5275    6.4875 O   0  0  0  0  0  0  0  0  0  0  0  0
    0.5196    5.8274    6.8281 C   0  0  0  0  0  0  0  0  0  0  0  0
    0.4754    5.9531    5.3623 N   0  0  0  0  0  0  0  0  0  0  0  0
  1  3  1  0  0  0  0
  1  2  1  6  0  0  0
  3  4  1  6  0  0  0
  5  6  1  1  0  0  0
  5  3  1  0  0  0  0
  7  9  1  0  0  0  0
  7  5  1  0  0  0  0
  7  8  1  6  0  0  0
  9 10  1  0  0  0  0
  9 11  1  1  0  0  0
 10  1  1  0  0  0  0
 11 12  1  0  0  0  0
 13 14  1  1  0  0  0
 13 21  1  0  0  0  0
 15 13  1  0  0  0  0
 16 15  1  0  0  0  0
 16 18  1  0  0  0  0
 16 17  1  6  0  0  0
 18  2  1  6  0  0  0
 18 19  1  0  0  0  0
 19 21  1  0  0  0  0
 19 20  1  1  0  0  0
 21 22  1  1  0  0  0
 23 20  1  6  0  0  0
 23 29  1  0  0  0  0
 23 24  1  0  0  0  0
 24 26  1  0  0  0  0
 24 25  1  1  0  0  0
 26 27  1  1  0  0  0
 28 26  1  0  0  0  0
 28 30  1  6  0  0  0
 29 28  1  0  0  0  0
 30 31  1  0  0  0  0
 32 27  1  1  0  0  0
 32 40  1  0  0  0  0
 32 33  1  0  0  0  0
 33 35  1  0  0  0  0
 33 34  1  6  0  0  0
 35 37  1  0  0  0  0
 35 36  1  1  0  0  0
 37 38  1  1  0  0  0
 39 37  1  0  0  0  0
 39 41  1  6  0  0  0
 40 39  1  0  0  0  0
 42 41  1  0  0  0  0
M  END
>  <CHROM.1>
-150.68042702,-164.08953923,83.75751578,-166.86100907,64.98896937,61.18311488
-59.08869676,-55.55943628,-175.35760221,170.87202941,142.09597798,62.11730607
169.47115489,54.98239148,-154.40850944,-54.67691426,-170.83735651,-171.45532809
-68.81846229,-179.06031293,-172.16615000,-9.43781215,-0.26349610,3.12502503
2.85111367,-1.41047587,1.11781448,1.34033774

>  <Name>
lig.pdb

>  <RI>
224

>  <Rbt.Current_Directory>
/home/itssahil/PROJECTS/Mol_Feturizer/New_Systems/rnas/2mxs

>  <Rbt.Executable>
rbdock ($Id: //depot/dev/client3/rdock/2013.1/src/exe/rbdock.cxx#4 $)

>  <Rbt.Library>
libRbt.so (2013.1, Build901 2013/11/27)

>  <Rbt.Parameter_File>
/export/apps/rDock/src/rDock_2013.1_src/data/scripts/dock_solv.prm

>  <Rbt.Receptor>
prm/pocket_docking_2.prm

>  <SCORE>
-47.825

>  <SCORE.INTER>
-45.5414

>  <SCORE.INTER.CONST>
1

>  <SCORE.INTER.POLAR>
-6.43296

>  <SCORE.INTER.ROT>
9

>  <SCORE.INTER.SOLV>
14.9114

>  <SCORE.INTER.VDW>
-23.4882

>  <SCORE.INTER.norm>
-1.08432

>  <SCORE.INTRA>
-2.50834

>  <SCORE.INTRA.DIHEDRAL>
-8.95654

>  <SCORE.INTRA.DIHEDRAL.0>
30.1357

>  <SCORE.INTRA.POLAR>
-0.211351

>  <SCORE.INTRA.POLAR.0>
-0.631696

>  <SCORE.INTRA.REPUL>
0.0155015

>  <SCORE.INTRA.REPUL.0>
0

>  <SCORE.INTRA.SOLV>
1.09055

>  <SCORE.INTRA.SOLV.lig_0>
-55.904

>  <SCORE.INTRA.VDW>
2.06574

>  <SCORE.INTRA.VDW.0>
-8.21197

>  <SCORE.INTRA.norm>
-0.0597225

>  <SCORE.RESTR>
0.224723

>  <SCORE.RESTR.CAVITY>
0.224723

>  <SCORE.RESTR.norm>
0.00535054

>  <SCORE.SYSTEM>
0

>  <SCORE.SYSTEM.CONST>
0

>  <SCORE.SYSTEM.DIHEDRAL>
0

>  <SCORE.SYSTEM.SOLV>
0

>  <SCORE.SYSTEM.norm>
0

>  <SCORE.heavy>
42

>  <SCORE.norm>
-1.13869

>  <RMSD>
0.821

$$$$
lig.pdb
 OpenBabel11021811453D
libRbt.so/2013.1/901 2013/11/27
 42 45  0  0  0  0  0  0  0  0999 V2000
    0.6277    3.4266    0.6340 C   0  0  2  0  0  0  0  0  0  0  0  0
   -0.3793    2.7397   -0.1115 O   0  0  0  0  0  0  0  0  0  0  0  0
    0.1160    4.7928    1.1150 C   0  0  2  0  0  0  0  0  0  0  0  0
   -1.1377    4.6495    1.8781 N   0  0  0  0  0  0  0  0  0  0  0  0
   -0.0637    5.7587   -0.0633 C   0  0  1  0  0  0  0  0  0  0  0  0
   -0.3867    7.0451    0.4290 O   0  0  0  0  0  0  0  0  0  0  0  0
    1.2302    5.8393   -0.8874 C   0  0  2  0  0  0  0  0  0  0  0  0
    0.9964    6.6069   -2.0525 O   0  0  0  0  0  0  0  0  0  0  0  0
    1.7393    4.4373   -1.2792 C   0  0  2  0  0  0  0  0  0  0  0  0
    1.8140    3.5788   -0.1415 O   0  0  0  0  0  0  0  0  0  0  0  0
    3.1380    4.5936   -1.9058 C   0  0  0  0  0  0  0  0  0  0  0  0
    3.5055    3.4467   -2.7182 O   0  0  0  0  0  0  0  0  0  0  0  0
   -1.6997   -1.3562   -0.0063 C   0  0  2  0  0  0  0  0  0  0  0  0
   -1.4804   -2.7989    0.2185 N   0  0  0  0  0  0  0  0  0  0  0  0
   -0.7762   -0.8440   -1.1144 C   0  0  0  0  0  0  0  0  0  0  0  0
   -0.8951    0.6689   -1.2559 C   0  0  2  0  0  0  0  0  0  0  0  0
   -0.0812    1.1380   -2.3843 N   0  0  0  0  0  0  0  0  0  0  0  0
   -0.4652    1.3200    0.0793 C   0  0  2  0  0  0  0  0  0  0  0  0
   -1.4617    0.9478    1.1300 C   0  0  2  0  0  0  0  0  0  0  0  0
   -1.0733    1.5870    2.3320 O   0  0  0  0  0  0  0  0  0  0  0  0
   -1.4898   -0.5599    1.2953 C   0  0  1  0  0  0  0  0  0  0  0  0
   -2.4778   -0.9749    2.2199 O   0  0  0  0  0  0  0  0  0  0  0  0
   -2.0119    1.6138    3.4021 C   0  0  1  0  0  0  0  0  0  0  0  0
   -1.2815    1.1826    4.6756 C   0  0  2  0  0  0  0  0  0  0  0  0
   -2.1615    0.4275    5.4870 O   0  0  0  0  0  0  0  0  0  0  0  0
   -0.8944    2.5271    5.3061 C   0  0  2  0  0  0  0  0  0  0  0  0
   -0.6356    2.4274    6.7067 O   0  0  0  0  0  0  0  0  0  0  0  0
   -2.1286    3.3591    4.9366 C   0  0  2  0  0  0  0  0  0  0  0  0
   -2.4548    2.9480    3.6164 O   0  0  0  0  0  0  0  0  0  0  0  0
   -1.8956    4.8744    4.9430 C   0  0  0  0  0  0  0  0  0  0  0  0
   -3.1129    5.5876    4.9937 O   0  0  0  0  0  0  0  0  0  0  0  0
    0.5826    1.7649    7.0404 C   0  0  2  0  0  0  0  0  0  0  0  0
    0.6010    1.3093    8.5075 C   0  0  2  0  0  0  0  0  0  0  0  0
   -0.5672    0.4661    8.8114 N   0  0  0  0  0  0  0  0  0  0  0  0
    0.6903    2.5110    9.4601 C   0  0  1  0  0  0  0  0  0  0  0  0
    0.7908    2.0294   10.7863 O   0  0  0  0  0  0  0  0  0  0  0  0
    1.9415    3.3282    9.0962 C   0  0  2  0  0  0  0  0  0  0  0  0
    2.0480    4.4752    9.9192 O   0  0  0  0  0  0  0  0  0  0  0  0
    1.9239    3.7327    7.6077 C   0  0  1  0  0  0  0  0  0  0  0  0
    1.7020    2.6026    6.7609 O   0  0  0  0  0  0  0  0  0  0  0  0
    0.9502    4.8799    7.3001 C   0  0  0  0  0  0  0  0  0  0  0  0
    0.9790    5.2396    5.8732 N   0  0  0  0  0  0  0  0  0  0  0  0
  1  3  1  0  0  0  0
  1  2  1  6  0  0  0
  3  4  1  6  0  0  0
  5  6  1  1  0  0  0
  5  3  1  0  0  0  0
  7  9  1  0  0  0  0
  7  5  1  0  0  0  0
  7  8  1  6  0  0  0
  9 10  1  0  0  0  0
  9 11  1  1  0  0  0
 10  1  1  0  0  0  0
 11 12  1  0  0  0  0
 13 14  1  1  0  0  0
 13 21  1  0  0  0  0
 15 13  1  0  0  0  0
 16 15  1  0  0  0  0
 16 18  1  0  0  0  0
 16 17  1  6  0  0  0
 18  2  1  6  0  0  0
 18 19  1  0  0  0  0
 19 21  1  0  0  0  0
 19 20  1  1  0  0  0
 21 22  1  1  0  0  0
 23 20  1  6  0  0  0
 23 29  1  0  0  0  0
 23 24  1  0  0  0  0
 24 26  1  0  0  0  0
 24 25  1  1  0  0  0
 26 27  1  1  0  0  0
 28 26  1  0  0  0  0
 28 30  1  6  0  0  0
 29 28  1  0  0  0  0
 30 31  1  0  0  0  0
 32 27  1  1  0  0  0
 32 40  1  0  0  0  0
 32 33  1  0  0  0  0
 33 35  1  0  0  0  0
 33 34  1  1  0  0  0
 35 37  1  0  0  0  0
 35 36  1  1  0  0  0
 37 38  1  1  0  0  0
 39 37  1  0  0  0  0
 39 41  1  1  0  0  0
 40 39  1  0  0  0  0
 42 41  1  0  0  0  0
M  END
>  <CHROM.1>
-146.43133085,-142.04662155,157.16070253,-147.13253635,-62.01012199,-173.73881313
-159.79175957,48.81295457,-176.95499907,167.12632135,132.39325307,162.71542584
74.71650465,72.14813829,-162.48098264,-162.42932099,-55.39804371,50.72645309
-69.43211969,-56.31456800,179.38774473,-51.05262244,-0.14608052,2.71243412
3.16494322,-1.56051510,1.16413140,1.57065458

>  <Name>
lig.pdb

>  <RI>
224

>  <Rbt.Current_Directory>
/home/itssahil/PROJECTS/Mol_Feturizer/New_Systems/rnas/2mxs

>  <Rbt.Executable>
rbdock ($Id: //depot/dev/client3/rdock/2013.1/src/exe/rbdock.cxx#4 $)

>  <Rbt.Library>
libRbt.so (2013.1, Build901 2013/11/27)

>  <Rbt.Parameter_File>
/export/apps/rDock/src/rDock_2013.1_src/data/scripts/dock_solv.prm

>  <Rbt.Receptor>
prm/pocket_docking_2.prm

>  <SCORE>
-32.633

>  <SCORE.INTER>
-33.6288

>  <SCORE.INTER.CONST>
1

>  <SCORE.INTER.POLAR>
-4.02789

>  <SCORE.INTER.ROT>
9

>  <SCORE.INTER.SOLV>
15.8588

>  <SCORE.INTER.VDW>
-23.8792

>  <SCORE.INTER.norm>
-0.800686

>  <SCORE.INTRA>
0.972251

>  <SCORE.INTRA.DIHEDRAL>
0.713522

>  <SCORE.INTRA.DIHEDRAL.0>
30.1357

>  <SCORE.INTRA.POLAR>
-0.431115

>  <SCORE.INTRA.POLAR.0>
-0.631696

>  <SCORE.INTRA.REPUL>
0.0264122

>  <SCORE.INTRA.REPUL.0>
0

>  <SCORE.INTRA.SOLV>
-0.187198

>  <SCORE.INTRA.SOLV.lig_0>
-55.904

>  <SCORE.INTRA.VDW>
2.04282

>  <SCORE.INTRA.VDW.0>
-8.21197

>  <SCORE.INTRA.norm>
0.0231488

>  <SCORE.RESTR>
0.0235799

>  <SCORE.RESTR.CAVITY>
0.0235799

>  <SCORE.RESTR.norm>
0.000561427

>  <SCORE.SYSTEM>
0

>  <SCORE.SYSTEM.CONST>
0

>  <SCORE.SYSTEM.DIHEDRAL>
0

>  <SCORE.SYSTEM.SOLV>
0

>  <SCORE.SYSTEM.norm>
0

>  <SCORE.heavy>
42

>  <SCORE.norm>
-0.776976

>  <RMSD>
0.868

$$$$
lig.pdb
 OpenBabel11021811453D
libRbt.so/2013.1/901 2013/11/27
 42 45  0  0  0  0  0  0  0  0999 V2000
    0.4157    3.7226    0.2724 C   0  0  2  0  0  0  0  0  0  0  0  0
   -0.3193    2.8910   -0.6275 O   0  0  0  0  0  0  0  0  0  0  0  0
   -0.0412    5.1851    0.1628 C   0  0  2  0  0  0  0  0  0  0  0  0
   -1.4973    5.3010    0.3648 N   0  0  0  0  0  0  0  0  0  0  0  0
    0.3785    5.7931   -1.1817 C   0  0  1  0  0  0  0  0  0  0  0  0
    0.0786    7.1757   -1.1860 O   0  0  0  0  0  0  0  0  0  0  0  0
    1.8857    5.5986   -1.4063 C   0  0  2  0  0  0  0  0  0  0  0  0
    2.2230    6.0216   -2.7134 O   0  0  0  0  0  0  0  0  0  0  0  0
    2.3013    4.1265   -1.2104 C   0  0  2  0  0  0  0  0  0  0  0  0
    1.8161    3.6140    0.0302 O   0  0  0  0  0  0  0  0  0  0  0  0
    3.8400    4.0557   -1.2364 C   0  0  0  0  0  0  0  0  0  0  0  0
    4.3213    2.7776   -1.7316 O   0  0  0  0  0  0  0  0  0  0  0  0
   -1.6647   -1.1570   -0.0493 C   0  0  2  0  0  0  0  0  0  0  0  0
   -1.4458   -2.5727    0.3088 N   0  0  0  0  0  0  0  0  0  0  0  0
   -0.7916   -0.7698   -1.2455 C   0  0  0  0  0  0  0  0  0  0  0  0
   -0.9055    0.7227   -1.5325 C   0  0  2  0  0  0  0  0  0  0  0  0
   -0.1433    1.0664   -2.7394 N   0  0  0  0  0  0  0  0  0  0  0  0
   -0.4069    1.4987   -0.2913 C   0  0  2  0  0  0  0  0  0  0  0  0
   -1.3546    1.2459    0.8373 C   0  0  2  0  0  0  0  0  0  0  0  0
   -0.9038    1.9972    1.9494 O   0  0  0  0  0  0  0  0  0  0  0  0
   -1.3862   -0.2373    1.1544 C   0  0  1  0  0  0  0  0  0  0  0  0
   -2.3317   -0.5454    2.1615 O   0  0  0  0  0  0  0  0  0  0  0  0
   -1.8648    2.3692    2.9317 C   0  0  1  0  0  0  0  0  0  0  0  0
   -1.4438    1.7376    4.2603 C   0  0  2  0  0  0  0  0  0  0  0  0
   -2.5985    1.3507    4.9813 O   0  0  0  0  0  0  0  0  0  0  0  0
   -0.6712    2.8773    4.9381 C   0  0  2  0  0  0  0  0  0  0  0  0
   -0.5868    2.7225    6.3550 O   0  0  0  0  0  0  0  0  0  0  0  0
   -1.5029    4.0776    4.4695 C   0  0  2  0  0  0  0  0  0  0  0  0
   -1.8345    3.7783    3.1208 O   0  0  0  0  0  0  0  0  0  0  0  0
   -0.7603    5.4182    4.5139 C   0  0  0  0  0  0  0  0  0  0  0  0
   -0.3506    5.7426    5.8254 O   0  0  0  0  0  0  0  0  0  0  0  0
    0.0018    1.4967    6.7850 C   0  0  2  0  0  0  0  0  0  0  0  0
   -0.6505    0.9713    8.0729 C   0  0  2  0  0  0  0  0  0  0  0  0
   -2.1073    0.8362    7.9076 N   0  0  0  0  0  0  0  0  0  0  0  0
   -0.3011    1.8621    9.2745 C   0  0  1  0  0  0  0  0  0  0  0  0
   -0.8546    1.2843   10.4410 O   0  0  0  0  0  0  0  0  0  0  0  0
    1.2305    1.9372    9.3952 C   0  0  2  0  0  0  0  0  0  0  0  0
    1.6081    2.7839   10.4652 O   0  0  0  0  0  0  0  0  0  0  0  0
    1.8659    2.4206    8.0753 C   0  0  1  0  0  0  0  0  0  0  0  0
    1.4083    1.6503    6.9614 O   0  0  0  0  0  0  0  0  0  0  0  0
    1.7004    3.9287    7.8365 C   0  0  0  0  0  0  0  0  0  0  0  0
    2.8502    4.4851    7.1051 N   0  0  0  0  0  0  0  0  0  0  0  0
  1  3  1  0  0  0  0
  1  2  1  6  0  0  0
  3  4  1  6  0  0  0
  5  6  1  1  0  0  0
  5  3  1  0  0  0  0
  7  9  1  0  0  0  0
  7  5  1  0  0  0  0
  7  8  1  6  0  0  0
  9 10  1  0  0  0  0
  9 11  1  1  0  0  0
 10  1  1  0  0  0  0
 11 12  1  0  0  0  0
 13 14  1  1  0  0  0
 13 21  1  0  0  0  0
 15 13  1  0  0  0  0
 16 15  1  0  0  0  0
 16 18  1  0  0  0  0
 16 17  1  6  0  0  0
 18  2  1  6  0  0  0
 18 19  1  0  0  0  0
 19 21  1  0  0  0  0
 19 20  1  1  0  0  0
 21 22  1  1  0  0  0
 23 20  1  6  0  0  0
 23 29  1  0  0  0  0
 23 24  1  0  0  0  0
 24 26  1  0  0  0  0
 24 25  1  1  0  0  0
 26 27  1  1  0  0  0
 28 26  1  0  0  0  0
 28 30  1  6  0  0  0
 29 28  1  0  0  0  0
 30 31  1  0  0  0  0
 32 27  1  1  0  0  0
 32 40  1  0  0  0  0
 32 33  1  0  0  0  0
 33 35  1  0  0  0  0
 33 34  1  6  0  0  0
 35 37  1  0  0  0  0
 35 36  1  1  0  0  0
 37 38  1  1  0  0  0
 39 37  1  0  0  0  0
 39 41  1  6  0  0  0
 40 39  1  0  0  0  0
 42 41  1  0  0  0  0
M  END
>  <CHROM.1>
-165.58835054,-155.93073383,-175.94515979,-164.39075070,171.34255186,-46.08238744
-150.82487538,-41.58473400,55.79646489,154.89597914,118.98476549,-58.93759622
61.42677528,56.79910062,-144.73012291,-60.77134396,45.29167022,149.48235202
-172.14140368,69.90314276,147.48695477,97.24075213,-0.01552939,2.66033931
2.96245632,-1.44494904,1.05309996,1.56210885

>  <Name>
lig.pdb

>  <RI>
224

>  <Rbt.Current_Directory>
/home/itssahil/PROJECTS/Mol_Feturizer/New_Systems/rnas/2mxs

>  <Rbt.Executable>
rbdock ($Id: //depot/dev/client3/rdock/2013.1/src/exe/rbdock.cxx#4 $)

>  <Rbt.Library>
libRbt.so (2013.1, Build901 2013/11/27)

>  <Rbt.Parameter_File>
/export/apps/rDock/src/rDock_2013.1_src/data/scripts/dock_solv.prm

>  <Rbt.Receptor>
prm/pocket_docking_2.prm

>  <SCORE>
-48.469

>  <SCORE.INTER>
-47.1168

>  <SCORE.INTER.CONST>
1

>  <SCORE.INTER.POLAR>
-6.57225

>  <SCORE.INTER.ROT>
9

>  <SCORE.INTER.SOLV>
18.1021

>  <SCORE.INTER.VDW>
-25.1377

>  <SCORE.INTER.norm>
-1.12183

>  <SCORE.INTRA>
-1.49229

>  <SCORE.INTRA.DIHEDRAL>
3.31413

>  <SCORE.INTRA.DIHEDRAL.0>
30.1357

>  <SCORE.INTRA.POLAR>
-1.53871

>  <SCORE.INTRA.POLAR.0>
-0.631696

>  <SCORE.INTRA.REPUL>
0

>  <SCORE.INTRA.REPUL.0>
0

>  <SCORE.INTRA.SOLV>
-0.0062058

>  <SCORE.INTRA.SOLV.lig_0>
-55.904

>  <SCORE.INTRA.VDW>
2.08535

>  <SCORE.INTRA.VDW.0>
-8.21197

>  <SCORE.INTRA.norm>
-0.0355308

>  <SCORE.RESTR>
0.140097

>  <SCORE.RESTR.CAVITY>
0.140097

>  <SCORE.RESTR.norm>
0.00333564

>  <SCORE.SYSTEM>
0

>  <SCORE.SYSTEM.CONST>
0

>  <SCORE.SYSTEM.DIHEDRAL>
0

>  <SCORE.SYSTEM.SOLV>
0

>  <SCORE.SYSTEM.norm>
0

>  <SCORE.heavy>
42

>  <SCORE.norm>
-1.15402

>  <RMSD>
0.873

$$$$
lig.pdb
 OpenBabel11021811453D
libRbt.so/2013.1/901 2013/11/27
 42 45  0  0  0  0  0  0  0  0999 V2000
    0.5184    3.9767    0.3002 C   0  0  2  0  0  0  0  0  0  0  0  0
   -0.1889    3.1007   -0.5795 O   0  0  0  0  0  0  0  0  0  0  0  0
   -0.0361    5.4065    0.2109 C   0  0  2  0  0  0  0  0  0  0  0  0
   -1.4895    5.4268    0.4590 N   0  0  0  0  0  0  0  0  0  0  0  0
    0.3005    6.0432   -1.1436 C   0  0  1  0  0  0  0  0  0  0  0  0
   -0.0889    7.4033   -1.1330 O   0  0  0  0  0  0  0  0  0  0  0  0
    1.8093    5.9479   -1.4162 C   0  0  2  0  0  0  0  0  0  0  0  0
    2.0769    6.3946   -2.7316 O   0  0  0  0  0  0  0  0  0  0  0  0
    2.3259    4.5057   -1.2393 C   0  0  2  0  0  0  0  0  0  0  0  0
    1.9146    3.9602    0.0138 O   0  0  0  0  0  0  0  0  0  0  0  0
    3.8644    4.5355   -1.3139 C   0  0  0  0  0  0  0  0  0  0  0  0
    4.4275    3.2157   -1.5402 O   0  0  0  0  0  0  0  0  0  0  0  0
   -0.8648   -1.1297   -0.1574 C   0  0  2  0  0  0  0  0  0  0  0  0
   -0.4035   -2.5162    0.0546 N   0  0  0  0  0  0  0  0  0  0  0  0
   -0.2306   -0.5455   -1.4221 C   0  0  0  0  0  0  0  0  0  0  0  0
   -0.5897    0.9282   -1.5713 C   0  0  2  0  0  0  0  0  0  0  0  0
   -0.0595    1.4536   -2.8357 N   0  0  0  0  0  0  0  0  0  0  0  0
   -0.0343    1.6930   -0.3474 C   0  0  2  0  0  0  0  0  0  0  0  0
   -0.7698    1.2346    0.8710 C   0  0  2  0  0  0  0  0  0  0  0  0
   -0.2761    1.9758    1.9716 O   0  0  0  0  0  0  0  0  0  0  0  0
   -0.5505   -0.2533    1.0697 C   0  0  1  0  0  0  0  0  0  0  0  0
   -1.2933   -0.7587    2.1633 O   0  0  0  0  0  0  0  0  0  0  0  0
   -1.1887    2.3014    3.0147 C   0  0  1  0  0  0  0  0  0  0  0  0
   -0.5326    1.9244    4.3446 C   0  0  2  0  0  0  0  0  0  0  0  0
   -1.5217    1.4423    5.2345 O   0  0  0  0  0  0  0  0  0  0  0  0
    0.0815    3.2554    4.7993 C   0  0  2  0  0  0  0  0  0  0  0  0
    0.3300    3.2986    6.2046 O   0  0  0  0  0  0  0  0  0  0  0  0
   -0.9966    4.2279    4.3054 C   0  0  2  0  0  0  0  0  0  0  0  0
   -1.3975    3.7077    3.0456 O   0  0  0  0  0  0  0  0  0  0  0  0
   -0.5102    5.6695    4.1167 C   0  0  0  0  0  0  0  0  0  0  0  0
    0.1680    6.1435    5.2607 O   0  0  0  0  0  0  0  0  0  0  0  0
    1.6080    2.8023    6.5978 C   0  0  2  0  0  0  0  0  0  0  0  0
    1.4995    1.8040    7.7604 C   0  0  2  0  0  0  0  0  0  0  0  0
    0.5785    0.7049    7.4261 N   0  0  0  0  0  0  0  0  0  0  0  0
    1.0844    2.5097    9.0602 C   0  0  1  0  0  0  0  0  0  0  0  0
    1.0850    1.5608   10.1092 O   0  0  0  0  0  0  0  0  0  0  0  0
    2.1015    3.6256    9.3538 C   0  0  2  0  0  0  0  0  0  0  0  0
    1.7404    4.3382   10.5227 O   0  0  0  0  0  0  0  0  0  0  0  0
    2.2287    4.5871    8.1542 C   0  0  1  0  0  0  0  0  0  0  0  0
    2.4802    3.8773    6.9392 O   0  0  0  0  0  0  0  0  0  0  0  0
    1.0420    5.5527    8.0194 C   0  0  0  0  0  0  0  0  0  0  0  0
    0.9643    6.4702    9.1676 N   0  0  0  0  0  0  0  0  0  0  0  0
  1  3  1  0  0  0  0
  1  2  1  6  0  0  0
  3  4  1  6  0  0  0
  5  6  1  1  0  0  0
  5  3  1  0  0  0  0
  7  9  1  0  0  0  0
  7  5  1  0  0  0  0
  7  8  1  6  0  0  0
  9 10  1  0  0  0  0
  9 11  1  1  0  0  0
 10  1  1  0  0  0  0
 11 12  1  0  0  0  0
 13 14  1  1  0  0  0
 13 21  1  0  0  0  0
 15 13  1  0  0  0  0
 16 15  1  0  0  0  0
 16 18  1  0  0  0  0
 16 17  1  6  0  0  0
 18  2  1  6  0  0  0
 18 19  1  0  0  0  0
 19 21  1  0  0  0  0
 19 20  1  1  0  0  0
 21 22  1  1  0  0  0
 23 20  1  6  0  0  0
 23 29  1  0  0  0  0
 23 24  1  0  0  0  0
 24 26  1  0  0  0  0
 24 25  1  1  0  0  0
 26 27  1  1  0  0  0
 28 26  1  0  0  0  0
 28 30  1  6  0  0  0
 29 28  1  0  0  0  0
 30 31  1  0  0  0  0
 32 27  1  1  0  0  0
 32 40  1  0  0  0  0
 32 33  1  0  0  0  0
 33 35  1  0  0  0  0
 33 34  1  6  0  0  0
 35 37  1  0  0  0  0
 35 36  1  1  0  0  0
 37 38  1  1  0  0  0
 39 37  1  0  0  0  0
 39 41  1  6  0  0  0
 40 39  1  0  0  0  0
 42 41  1  0  0  0  0
M  END
>  <CHROM.1>
-166.97838724,-163.69204703,-56.72294784,62.35069880,-52.39779605,177.13145410
-163.59737117,20.94416262,59.51160936,146.28251258,131.10138070,71.12099443
-53.71462671,88.42184962,-131.39713482,-50.57126543,-175.72895971,83.49470855
166.43681654,163.69411354,64.59196471,-54.64975374,0.50595749,3.15207750
2.95577217,-1.73559496,1.29295347,1.67170403

>  <Name>
lig.pdb

>  <RI>
0

>  <Rbt.Current_Directory>
/home/itssahil/PROJECTS/Mol_Feturizer/New_Systems/rnas/2mxs

>  <Rbt.Executable>
rbdock ($Id: //depot/dev/client3/rdock/2013.1/src/exe/rbdock.cxx#4 $)

>  <Rbt.Library>
libRbt.so (2013.1, Build901 2013/11/27)

>  <Rbt.Parameter_File>
/export/apps/rDock/src/rDock_2013.1_src/data/scripts/dock_solv.prm

>  <Rbt.Receptor>
prm/pocket_docking_4.prm

>  <SCORE>
-44.6041

>  <SCORE.INTER>
-42.3077

>  <SCORE.INTER.CONST>
1

>  <SCORE.INTER.POLAR>
-5.21077

>  <SCORE.INTER.ROT>
9

>  <SCORE.INTER.SOLV>
18.7953

>  <SCORE.INTER.VDW>
-26.701

>  <SCORE.INTER.norm>
-1.00733

>  <SCORE.INTRA>
-2.29633

>  <SCORE.INTRA.DIHEDRAL>
1.71209

>  <SCORE.INTRA.DIHEDRAL.0>
30.1357

>  <SCORE.INTRA.POLAR>
-1.72171

>  <SCORE.INTRA.POLAR.0>
-0.631696

>  <SCORE.INTRA.REPUL>
0

>  <SCORE.INTRA.REPUL.0>
0

>  <SCORE.INTRA.SOLV>
0.623874

>  <SCORE.INTRA.SOLV.lig_0>
-55.904

>  <SCORE.INTRA.VDW>
2.38951

>  <SCORE.INTRA.VDW.0>
-8.21197

>  <SCORE.INTRA.norm>
-0.0546746

>  <SCORE.RESTR>
0

>  <SCORE.RESTR.CAVITY>
0

>  <SCORE.RESTR.norm>
0

>  <SCORE.SYSTEM>
0

>  <SCORE.SYSTEM.CONST>
0

>  <SCORE.SYSTEM.DIHEDRAL>
0

>  <SCORE.SYSTEM.SOLV>
0

>  <SCORE.SYSTEM.norm>
0

>  <SCORE.heavy>
42

>  <SCORE.norm>
-1.062

>  <RMSD>
0.917

$$$$
lig.pdb
 OpenBabel11021811453D
libRbt.so/2013.1/901 2013/11/27
 42 45  0  0  0  0  0  0  0  0999 V2000
    0.2592    3.9139    0.4421 C   0  0  2  0  0  0  0  0  0  0  0  0
   -0.6091    3.1346   -0.3826 O   0  0  0  0  0  0  0  0  0  0  0  0
   -0.1414    5.3965    0.4109 C   0  0  2  0  0  0  0  0  0  0  0  0
   -1.5587    5.5694    0.7793 N   0  0  0  0  0  0  0  0  0  0  0  0
    0.1505    6.0162   -0.9618 C   0  0  1  0  0  0  0  0  0  0  0  0
   -0.0861    7.4100   -0.9077 O   0  0  0  0  0  0  0  0  0  0  0  0
    1.6125    5.7632   -1.3599 C   0  0  2  0  0  0  0  0  0  0  0  0
    1.8185    6.2008   -2.6893 O   0  0  0  0  0  0  0  0  0  0  0  0
    1.9815    4.2707   -1.2384 C   0  0  2  0  0  0  0  0  0  0  0  0
    1.6171    3.7515    0.0402 O   0  0  0  0  0  0  0  0  0  0  0  0
    3.5027    4.1355   -1.4407 C   0  0  0  0  0  0  0  0  0  0  0  0
    3.9128    4.5147   -2.7817 O   0  0  0  0  0  0  0  0  0  0  0  0
   -1.7166   -1.0214   -0.2037 C   0  0  2  0  0  0  0  0  0  0  0  0
   -1.4448   -2.4382    0.1113 N   0  0  0  0  0  0  0  0  0  0  0  0
   -0.7172   -0.5063   -1.2425 C   0  0  0  0  0  0  0  0  0  0  0  0
   -0.9009    0.9898   -1.4684 C   0  0  2  0  0  0  0  0  0  0  0  0
   -0.0062    1.4549   -2.5356 N   0  0  0  0  0  0  0  0  0  0  0  0
   -0.6386    1.7219   -0.1318 C   0  0  2  0  0  0  0  0  0  0  0  0
   -1.7123    1.3397    0.8360 C   0  0  2  0  0  0  0  0  0  0  0  0
   -1.4774    2.0518    2.0370 O   0  0  0  0  0  0  0  0  0  0  0  0
   -1.6772   -0.1585    1.0715 C   0  0  1  0  0  0  0  0  0  0  0  0
   -2.7277   -0.5884    1.9168 O   0  0  0  0  0  0  0  0  0  0  0  0
   -2.4308    1.9162    3.0855 C   0  0  1  0  0  0  0  0  0  0  0  0
   -1.7092    1.3296    4.3006 C   0  0  2  0  0  0  0  0  0  0  0  0
   -2.5846    0.4555    4.9880 O   0  0  0  0  0  0  0  0  0  0  0  0
   -1.3578    2.5830    5.1134 C   0  0  2  0  0  0  0  0  0  0  0  0
   -1.1160    2.2990    6.4917 O   0  0  0  0  0  0  0  0  0  0  0  0
   -2.6035    3.4349    4.8400 C   0  0  2  0  0  0  0  0  0  0  0  0
   -2.9034    3.2007    3.4712 O   0  0  0  0  0  0  0  0  0  0  0  0
   -2.4012    4.9393    5.0552 C   0  0  0  0  0  0  0  0  0  0  0  0
   -2.2345    5.6219    3.8307 O   0  0  0  0  0  0  0  0  0  0  0  0
    0.0589    1.5305    6.7430 C   0  0  2  0  0  0  0  0  0  0  0  0
    0.1773    1.1364    8.2231 C   0  0  2  0  0  0  0  0  0  0  0  0
   -1.0317    0.4296    8.6778 N   0  0  0  0  0  0  0  0  0  0  0  0
    0.4761    2.3612    9.1007 C   0  0  1  0  0  0  0  0  0  0  0  0
    0.6594    1.9271   10.4344 O   0  0  0  0  0  0  0  0  0  0  0  0
    1.7589    3.0313    8.5798 C   0  0  2  0  0  0  0  0  0  0  0  0
    2.0568    4.1946    9.3298 O   0  0  0  0  0  0  0  0  0  0  0  0
    1.6343    3.3736    7.0809 C   0  0  1  0  0  0  0  0  0  0  0  0
    1.2215    2.2378    6.3174 O   0  0  0  0  0  0  0  0  0  0  0  0
    0.7511    4.6001    6.8079 C   0  0  0  0  0  0  0  0  0  0  0  0
   -0.4056    4.6409    7.7172 N   0  0  0  0  0  0  0  0  0  0  0  0
  1  3  1  0  0  0  0
  1  2  1  6  0  0  0
  3  4  1  6  0  0  0
  5  6  1  1  0  0  0
  5  3  1  0  0  0  0
  7  9  1  0  0  0  0
  7  5  1  0  0  0  0
  7  8  1  6  0  0  0
  9 10  1  0  0  0  0
  9 11  1  1  0  0  0
 10  1  1  0  0  0  0
 11 12  1  0  0  0  0
 13 14  1  1  0  0  0
 13 21  1  0  0  0  0
 15 13  1  0  0  0  0
 16 15  1  0  0  0  0
 16 18  1  0  0  0  0
 16 17  1  6  0  0  0
 18  2  1  6  0  0  0
 18 19  1  0  0  0  0
 19 21  1  0  0  0  0
 19 20  1  1  0  0  0
 21 22  1  1  0  0  0
 23 20  1  6  0  0  0
 23 29  1  0  0  0  0
 23 24  1  0  0  0  0
 24 26  1  0  0  0  0
 24 25  1  1  0  0  0
 26 27  1  1  0  0  0
 28 26  1  0  0  0  0
 28 30  1  6  0  0  0
 29 28  1  0  0  0  0
 30 31  1  0  0  0  0
 32 27  1  1  0  0  0
 32 40  1  0  0  0  0
 32 33  1  0  0  0  0
 33 35  1  0  0  0  0
 33 34  1  1  0  0  0
 35 37  1  0  0  0  0
 35 36  1  1  0  0  0
 37 38  1  1  0  0  0
 39 37  1  0  0  0  0
 39 41  1  1  0  0  0
 40 39  1  0  0  0  0
 42 41  1  0  0  0  0
M  END
>  <CHROM.1>
-147.86081859,-160.76472551,-45.57776590,58.19019349,-54.09872584,60.65852015
-64.78732254,-59.42501331,67.60203838,175.90641685,119.63946976,69.52751917
75.69937014,67.57598885,-173.94906052,101.94020088,68.75345449,172.59905421
-65.65534562,167.97116678,-37.86172516,58.63467230,-0.30478886,2.83047181
2.87874143,-1.42326932,1.08736832,1.55265635

>  <Name>
lig.pdb

>  <RI>
224

>  <Rbt.Current_Directory>
/home/itssahil/PROJECTS/Mol_Feturizer/New_Systems/rnas/2mxs

>  <Rbt.Executable>
rbdock ($Id: //depot/dev/client3/rdock/2013.1/src/exe/rbdock.cxx#4 $)

>  <Rbt.Library>
libRbt.so (2013.1, Build901 2013/11/27)

>  <Rbt.Parameter_File>
/export/apps/rDock/src/rDock_2013.1_src/data/scripts/dock_solv.prm

>  <Rbt.Receptor>
prm/pocket_docking_2.prm

>  <SCORE>
-39.3283

>  <SCORE.INTER>
-33.7063

>  <SCORE.INTER.CONST>
1

>  <SCORE.INTER.POLAR>
-3.86268

>  <SCORE.INTER.ROT>
9

>  <SCORE.INTER.SOLV>
15.7141

>  <SCORE.INTER.VDW>
-24.4333

>  <SCORE.INTER.norm>
-0.80253

>  <SCORE.INTRA>
-5.81357

>  <SCORE.INTRA.DIHEDRAL>
-6.61659

>  <SCORE.INTRA.DIHEDRAL.0>
30.1357

>  <SCORE.INTRA.POLAR>
-1.73856

>  <SCORE.INTRA.POLAR.0>
-0.631696

>  <SCORE.INTRA.REPUL>
0

>  <SCORE.INTRA.REPUL.0>
0

>  <SCORE.INTRA.SOLV>
2.11867

>  <SCORE.INTRA.SOLV.lig_0>
-55.904

>  <SCORE.INTRA.VDW>
2.3465

>  <SCORE.INTRA.VDW.0>
-8.21197

>  <SCORE.INTRA.norm>
-0.138418

>  <SCORE.RESTR>
0.191512

>  <SCORE.RESTR.CAVITY>
0.191512

>  <SCORE.RESTR.norm>
0.0045598

>  <SCORE.SYSTEM>
0

>  <SCORE.SYSTEM.CONST>
0

>  <SCORE.SYSTEM.DIHEDRAL>
0

>  <SCORE.SYSTEM.SOLV>
0

>  <SCORE.SYSTEM.norm>
0

>  <SCORE.heavy>
42

>  <SCORE.norm>
-0.936389

>  <RMSD>
0.921

$$$$
lig.pdb
 OpenBabel11021811453D
libRbt.so/2013.1/901 2013/11/27
 42 45  0  0  0  0  0  0  0  0999 V2000
    1.0093    3.9425    0.3492 C   0  0  2  0  0  0  0  0  0  0  0  0
   -0.0018    3.2924   -0.4231 O   0  0  0  0  0  0  0  0  0  0  0  0
    0.6651    5.4240    0.5649 C   0  0  2  0  0  0  0  0  0  0  0  0
   -0.6733    5.5742    1.1653 N   0  0  0  0  0  0  0  0  0  0  0  0
    0.7713    6.2101   -0.7482 C   0  0  1  0  0  0  0  0  0  0  0  0
    0.5986    7.5894   -0.4851 O   0  0  0  0  0  0  0  0  0  0  0  0
    2.1463    5.9834   -1.3945 C   0  0  2  0  0  0  0  0  0  0  0  0
    2.1671    6.5850   -2.6747 O   0  0  0  0  0  0  0  0  0  0  0  0
    2.4724    4.4812   -1.5181 C   0  0  2  0  0  0  0  0  0  0  0  0
    2.2845    3.8082   -0.2736 O   0  0  0  0  0  0  0  0  0  0  0  0
    3.9398    4.3450   -1.9668 C   0  0  0  0  0  0  0  0  0  0  0  0
    4.4261    2.9817   -1.8435 O   0  0  0  0  0  0  0  0  0  0  0  0
   -1.6887   -0.6560   -0.1138 C   0  0  2  0  0  0  0  0  0  0  0  0
   -1.6018   -2.0988    0.1882 N   0  0  0  0  0  0  0  0  0  0  0  0
   -0.7188   -0.2889   -1.2398 C   0  0  0  0  0  0  0  0  0  0  0  0
   -0.6995    1.2189   -1.4614 C   0  0  2  0  0  0  0  0  0  0  0  0
    0.1573    1.5521   -2.6063 N   0  0  0  0  0  0  0  0  0  0  0  0
   -0.2168    1.8984   -0.1588 C   0  0  2  0  0  0  0  0  0  0  0  0
   -1.2464    1.6740    0.9018 C   0  0  2  0  0  0  0  0  0  0  0  0
   -0.8055    2.3383    2.0718 O   0  0  0  0  0  0  0  0  0  0  0  0
   -1.4117    0.1859    1.1459 C   0  0  1  0  0  0  0  0  0  0  0  0
   -2.4363   -0.0885    2.0829 O   0  0  0  0  0  0  0  0  0  0  0  0
   -1.7959    2.8140    2.9772 C   0  0  1  0  0  0  0  0  0  0  0  0
   -1.6904    1.9887    4.2614 C   0  0  2  0  0  0  0  0  0  0  0  0
   -2.9848    1.7909    4.7984 O   0  0  0  0  0  0  0  0  0  0  0  0
   -0.8042    2.8717    5.1502 C   0  0  2  0  0  0  0  0  0  0  0  0
   -0.9425    2.5736    6.5397 O   0  0  0  0  0  0  0  0  0  0  0  0
   -1.3102    4.2588    4.7354 C   0  0  2  0  0  0  0  0  0  0  0  0
   -1.5114    4.1613    3.3324 O   0  0  0  0  0  0  0  0  0  0  0  0
   -0.3286    5.4017    5.0194 C   0  0  0  0  0  0  0  0  0  0  0  0
   -0.8660    6.6532    4.6480 O   0  0  0  0  0  0  0  0  0  0  0  0
   -0.3252    1.3552    6.9504 C   0  0  2  0  0  0  0  0  0  0  0  0
   -0.5737    1.0628    8.4380 C   0  0  2  0  0  0  0  0  0  0  0  0
   -2.0148    1.0609    8.7403 N   0  0  0  0  0  0  0  0  0  0  0  0
    0.1871    2.0532    9.3324 C   0  0  1  0  0  0  0  0  0  0  0  0
   -0.0089    1.6839   10.6836 O   0  0  0  0  0  0  0  0  0  0  0  0
    1.6814    1.9827    8.9745 C   0  0  2  0  0  0  0  0  0  0  0  0
    2.4252    2.9105    9.7429 O   0  0  0  0  0  0  0  0  0  0  0  0
    1.9013    2.2315    7.4681 C   0  0  1  0  0  0  0  0  0  0  0  0
    1.0728    1.3821    6.6710 O   0  0  0  0  0  0  0  0  0  0  0  0
    1.7622    3.7079    7.0682 C   0  0  0  0  0  0  0  0  0  0  0  0
    3.0722    4.3775    7.0258 N   0  0  0  0  0  0  0  0  0  0  0  0
  1  3  1  0  0  0  0
  1  2  1  6  0  0  0
  3  4  1  6  0  0  0
  5  6  1  1  0  0  0
  5  3  1  0  0  0  0
  7  9  1  0  0  0  0
  7  5  1  0  0  0  0
  7  8  1  6  0  0  0
  9 10  1  0  0  0  0
  9 11  1  1  0  0  0
 10  1  1  0  0  0  0
 11 12  1  0  0  0  0
 13 14  1  1  0  0  0
 13 21  1  0  0  0  0
 15 13  1  0  0  0  0
 16 15  1  0  0  0  0
 16 18  1  0  0  0  0
 16 17  1  6  0  0  0
 18  2  1  6  0  0  0
 18 19  1  0  0  0  0
 19 21  1  0  0  0  0
 19 20  1  1  0  0  0
 21 22  1  1  0  0  0
 23 20  1  6  0  0  0
 23 29  1  0  0  0  0
 23 24  1  0  0  0  0
 24 26  1  0  0  0  0
 24 25  1  1  0  0  0
 26 27  1  1  0  0  0
 28 26  1  0  0  0  0
 28 30  1  6  0  0  0
 29 28  1  0  0  0  0
 30 31  1  0  0  0  0
 32 27  1  1  0  0  0
 32 40  1  0  0  0  0
 32 33  1  0  0  0  0
 33 35  1  0  0  0  0
 33 34  1  6  0  0  0
 35 37  1  0  0  0  0
 35 36  1  1  0  0  0
 37 38  1  1  0  0  0
 39 37  1  0  0  0  0
 39 41  1  1  0  0  0
 40 39  1  0  0  0  0
 42 41  1  0  0  0  0
M  END
>  <CHROM.1>
-149.93964430,-149.23577825,-68.45445806,53.65775448,64.93710447,178.57084763
167.95827422,-170.63449905,60.53714651,151.23841396,112.28878517,74.13044490
-59.69968405,73.62018213,-177.10376076,-178.45902643,-59.78218038,-29.66117558
-176.94027175,57.81612663,95.64328353,-114.53720969,0.15169438,2.93351382
2.97355999,-1.38959145,1.01296230,1.56732707

>  <Name>
lig.pdb

>  <RI>
224

>  <Rbt.Current_Directory>
/home/itssahil/PROJECTS/Mol_Feturizer/New_Systems/rnas/2mxs

>  <Rbt.Executable>
rbdock ($Id: //depot/dev/client3/rdock/2013.1/src/exe/rbdock.cxx#4 $)

>  <Rbt.Library>
libRbt.so (2013.1, Build901 2013/11/27)

>  <Rbt.Parameter_File>
/export/apps/rDock/src/rDock_2013.1_src/data/scripts/dock_solv.prm

>  <Rbt.Receptor>
prm/pocket_docking_2.prm

>  <SCORE>
-46.9863

>  <SCORE.INTER>
-47.5829

>  <SCORE.INTER.CONST>
1

>  <SCORE.INTER.POLAR>
-6.08413

>  <SCORE.INTER.ROT>
9

>  <SCORE.INTER.SOLV>
17.8219

>  <SCORE.INTER.VDW>
-26.9821

>  <SCORE.INTER.norm>
-1.13293

>  <SCORE.INTRA>
-0.295602

>  <SCORE.INTRA.DIHEDRAL>
-0.147946

>  <SCORE.INTRA.DIHEDRAL.0>
30.1357

>  <SCORE.INTRA.POLAR>
-0.468736

>  <SCORE.INTRA.POLAR.0>
-0.631696

>  <SCORE.INTRA.REPUL>
0

>  <SCORE.INTRA.REPUL.0>
0

>  <SCORE.INTRA.SOLV>
-0.342408

>  <SCORE.INTRA.SOLV.lig_0>
-55.904

>  <SCORE.INTRA.VDW>
1.54328

>  <SCORE.INTRA.VDW.0>
-8.21197

>  <SCORE.INTRA.norm>
-0.00703813

>  <SCORE.RESTR>
0.892216

>  <SCORE.RESTR.CAVITY>
0.892216

>  <SCORE.RESTR.norm>
0.0212432

>  <SCORE.SYSTEM>
0

>  <SCORE.SYSTEM.CONST>
0

>  <SCORE.SYSTEM.DIHEDRAL>
0

>  <SCORE.SYSTEM.SOLV>
0

>  <SCORE.SYSTEM.norm>
0

>  <SCORE.heavy>
42

>  <SCORE.norm>
-1.11872

>  <RMSD>
0.928

$$$$
lig.pdb
 OpenBabel11021811453D
libRbt.so/2013.1/901 2013/11/27
 42 45  0  0  0  0  0  0  0  0999 V2000
    0.2150    3.7941    0.2221 C   0  0  2  0  0  0  0  0  0  0  0  0
   -0.5438    2.9811   -0.6750 O   0  0  0  0  0  0  0  0  0  0  0  0
   -0.2785    5.2485    0.1929 C   0  0  2  0  0  0  0  0  0  0  0  0
   -1.7255    5.3218    0.4674 N   0  0  0  0  0  0  0  0  0  0  0  0
    0.0631    5.9183   -1.1443 C   0  0  1  0  0  0  0  0  0  0  0  0
   -0.2670    7.2925   -1.0790 O   0  0  0  0  0  0  0  0  0  0  0  0
    1.5617    5.7687   -1.4469 C   0  0  2  0  0  0  0  0  0  0  0  0
    1.8268    6.2504   -2.7504 O   0  0  0  0  0  0  0  0  0  0  0  0
    2.0183    4.3003   -1.3300 C   0  0  2  0  0  0  0  0  0  0  0  0
    1.6044    3.7283   -0.0897 O   0  0  0  0  0  0  0  0  0  0  0  0
    3.5552    4.2672   -1.4310 C   0  0  0  0  0  0  0  0  0  0  0  0
    4.0207    4.5180   -2.7841 O   0  0  0  0  0  0  0  0  0  0  0  0
   -1.9328   -1.0443   -0.0442 C   0  0  2  0  0  0  0  0  0  0  0  0
   -1.7178   -2.4719    0.2655 N   0  0  0  0  0  0  0  0  0  0  0  0
   -1.1680   -0.6538   -1.3113 C   0  0  0  0  0  0  0  0  0  0  0  0
   -1.2698    0.8466   -1.5589 C   0  0  2  0  0  0  0  0  0  0  0  0
   -0.6173    1.1966   -2.8268 N   0  0  0  0  0  0  0  0  0  0  0  0
   -0.6351    1.5846   -0.3572 C   0  0  2  0  0  0  0  0  0  0  0  0
   -1.4772    1.3317    0.8521 C   0  0  2  0  0  0  0  0  0  0  0  0
   -0.9031    2.0488    1.9294 O   0  0  0  0  0  0  0  0  0  0  0  0
   -1.5171   -0.1565    1.1439 C   0  0  1  0  0  0  0  0  0  0  0  0
   -2.3700   -0.4623    2.2311 O   0  0  0  0  0  0  0  0  0  0  0  0
   -1.7407    2.3660    3.0360 C   0  0  1  0  0  0  0  0  0  0  0  0
   -1.0696    1.8253    4.3004 C   0  0  2  0  0  0  0  0  0  0  0  0
   -2.0626    1.3598    5.1949 O   0  0  0  0  0  0  0  0  0  0  0  0
   -0.3201    3.0558    4.8289 C   0  0  2  0  0  0  0  0  0  0  0  0
   -0.0136    2.9616    6.2203 O   0  0  0  0  0  0  0  0  0  0  0  0
   -1.3241    4.1559    4.4633 C   0  0  2  0  0  0  0  0  0  0  0  0
   -1.8198    3.7778    3.1867 O   0  0  0  0  0  0  0  0  0  0  0  0
   -0.7168    5.5602    4.3657 C   0  0  0  0  0  0  0  0  0  0  0  0
   -1.7159    6.5556    4.3014 O   0  0  0  0  0  0  0  0  0  0  0  0
    1.3760    2.8360    6.5157 C   0  0  2  0  0  0  0  0  0  0  0  0
    1.6112    2.2021    7.8951 C   0  0  2  0  0  0  0  0  0  0  0  0
    0.9221    0.9053    8.0027 N   0  0  0  0  0  0  0  0  0  0  0  0
    1.1918    3.1570    9.0229 C   0  0  1  0  0  0  0  0  0  0  0  0
    1.5100    2.5575   10.2639 O   0  0  0  0  0  0  0  0  0  0  0  0
    1.9662    4.4756    8.8566 C   0  0  2  0  0  0  0  0  0  0  0  0
    1.5838    5.4101    9.8491 O   0  0  0  0  0  0  0  0  0  0  0  0
    1.7533    5.0678    7.4482 C   0  0  1  0  0  0  0  0  0  0  0  0
    2.0239    4.1032    6.4286 O   0  0  0  0  0  0  0  0  0  0  0  0
    0.3772    5.7249    7.2657 C   0  0  0  0  0  0  0  0  0  0  0  0
    0.5044    7.1571    6.9512 N   0  0  0  0  0  0  0  0  0  0  0  0
  1  3  1  0  0  0  0
  1  2  1  6  0  0  0
  3  4  1  6  0  0  0
  5  6  1  1  0  0  0
  5  3  1  0  0  0  0
  7  9  1  0  0  0  0
  7  5  1  0  0  0  0
  7  8  1  6  0  0  0
  9 10  1  0  0  0  0
  9 11  1  1  0  0  0
 10  1  1  0  0  0  0
 11 12  1  0  0  0  0
 13 14  1  1  0  0  0
 13 21  1  0  0  0  0
 15 13  1  0  0  0  0
 16 15  1  0  0  0  0
 16 18  1  0  0  0  0
 16 17  1  6  0  0  0
 18  2  1  6  0  0  0
 18 19  1  0  0  0  0
 19 21  1  0  0  0  0
 19 20  1  1  0  0  0
 21 22  1  1  0  0  0
 23 20  1  6  0  0  0
 23 29  1  0  0  0  0
 23 24  1  0  0  0  0
 24 26  1  0  0  0  0
 24 25  1  1  0  0  0
 26 27  1  1  0  0  0
 28 26  1  0  0  0  0
 28 30  1  6  0  0  0
 29 28  1  0  0  0  0
 30 31  1  0  0  0  0
 32 27  1  1  0  0  0
 32 40  1  0  0  0  0
 32 33  1  0  0  0  0
 33 35  1  0  0  0  0
 33 34  1  6  0  0  0
 35 37  1  0  0  0  0
 35 36  1  1  0  0  0
 37 38  1  1  0  0  0
 39 37  1  0  0  0  0
 39 41  1  1  0  0  0
 40 39  1  0  0  0  0
 42 41  1  0  0  0  0
M  END
>  <CHROM.1>
-170.06676260,-153.17981808,-177.76427897,62.04266860,-178.75608959,-164.53537111
-73.00577514,71.85693805,21.74600860,157.93708942,125.16716799,72.55363312
66.36694421,112.08805084,-157.59486967,-167.87282653,-46.91207094,-36.86436560
-163.88993218,-176.72519986,118.83629994,-168.90987115,0.05744475,3.27984343
2.79188859,-1.75648316,1.16239291,1.63973829

>  <Name>
lig.pdb

>  <RI>
224

>  <Rbt.Current_Directory>
/home/itssahil/PROJECTS/Mol_Feturizer/New_Systems/rnas/2mxs

>  <Rbt.Executable>
rbdock ($Id: //depot/dev/client3/rdock/2013.1/src/exe/rbdock.cxx#4 $)

>  <Rbt.Library>
libRbt.so (2013.1, Build901 2013/11/27)

>  <Rbt.Parameter_File>
/export/apps/rDock/src/rDock_2013.1_src/data/scripts/dock_solv.prm

>  <Rbt.Receptor>
prm/pocket_docking_2.prm

>  <SCORE>
-28.6648

>  <SCORE.INTER>
-32.1758

>  <SCORE.INTER.CONST>
1

>  <SCORE.INTER.POLAR>
-3.93012

>  <SCORE.INTER.ROT>
9

>  <SCORE.INTER.SOLV>
16.4039

>  <SCORE.INTER.VDW>
-23.4181

>  <SCORE.INTER.norm>
-0.766092

>  <SCORE.INTRA>
2.17093

>  <SCORE.INTRA.DIHEDRAL>
6.71017

>  <SCORE.INTRA.DIHEDRAL.0>
30.1357

>  <SCORE.INTRA.POLAR>
-1.08453

>  <SCORE.INTRA.POLAR.0>
-0.631696

>  <SCORE.INTRA.REPUL>
0.00338563

>  <SCORE.INTRA.REPUL.0>
0

>  <SCORE.INTRA.SOLV>
0.0207693

>  <SCORE.INTRA.SOLV.lig_0>
-55.904

>  <SCORE.INTRA.VDW>
2.47594

>  <SCORE.INTRA.VDW.0>
-8.21197

>  <SCORE.INTRA.norm>
0.0516888

>  <SCORE.RESTR>
1.3401

>  <SCORE.RESTR.CAVITY>
1.3401

>  <SCORE.RESTR.norm>
0.0319073

>  <SCORE.SYSTEM>
0

>  <SCORE.SYSTEM.CONST>
0

>  <SCORE.SYSTEM.DIHEDRAL>
0

>  <SCORE.SYSTEM.SOLV>
0

>  <SCORE.SYSTEM.norm>
0

>  <SCORE.heavy>
42

>  <SCORE.norm>
-0.682495

>  <RMSD>
0.930

$$$$
lig.pdb
 OpenBabel11021811453D
libRbt.so/2013.1/901 2013/11/27
 42 45  0  0  0  0  0  0  0  0999 V2000
    0.3446    3.7711    0.2507 C   0  0  2  0  0  0  0  0  0  0  0  0
   -0.4342    2.9638   -0.6343 O   0  0  0  0  0  0  0  0  0  0  0  0
   -0.0233    5.2553    0.1039 C   0  0  2  0  0  0  0  0  0  0  0  0
   -1.4709    5.4629    0.2934 N   0  0  0  0  0  0  0  0  0  0  0  0
    0.4391    5.8050   -1.2517 C   0  0  1  0  0  0  0  0  0  0  0  0
    0.2225    7.2026   -1.2904 O   0  0  0  0  0  0  0  0  0  0  0  0
    1.9331    5.5155   -1.4616 C   0  0  2  0  0  0  0  0  0  0  0  0
    2.3019    5.8864   -2.7761 O   0  0  0  0  0  0  0  0  0  0  0  0
    2.2587    4.0262   -1.2286 C   0  0  2  0  0  0  0  0  0  0  0  0
    1.7373    3.5733    0.0204 O   0  0  0  0  0  0  0  0  0  0  0  0
    3.7905    3.8631   -1.2428 C   0  0  0  0  0  0  0  0  0  0  0  0
    4.1946    2.4738   -1.1129 O   0  0  0  0  0  0  0  0  0  0  0  0
   -1.8869   -1.0560   -0.1229 C   0  0  2  0  0  0  0  0  0  0  0  0
   -1.7227   -2.4688    0.2739 N   0  0  0  0  0  0  0  0  0  0  0  0
   -0.9032   -0.6995   -1.2401 C   0  0  0  0  0  0  0  0  0  0  0  0
   -0.9682    0.7898   -1.5577 C   0  0  2  0  0  0  0  0  0  0  0  0
   -0.0944    1.1042   -2.6950 N   0  0  0  0  0  0  0  0  0  0  0  0
   -0.5728    1.5783   -0.2875 C   0  0  2  0  0  0  0  0  0  0  0  0
   -1.6227    1.3561    0.7536 C   0  0  2  0  0  0  0  0  0  0  0  0
   -1.2636    2.1185    1.8913 O   0  0  0  0  0  0  0  0  0  0  0  0
   -1.7052   -0.1214    1.0879 C   0  0  1  0  0  0  0  0  0  0  0  0
   -2.7428   -0.4008    2.0090 O   0  0  0  0  0  0  0  0  0  0  0  0
   -2.2449    2.2958    2.9074 C   0  0  1  0  0  0  0  0  0  0  0  0
   -1.7441    1.5899    4.1693 C   0  0  2  0  0  0  0  0  0  0  0  0
   -2.8434    1.0200    4.8544 O   0  0  0  0  0  0  0  0  0  0  0  0
   -1.0839    2.7352    4.9488 C   0  0  2  0  0  0  0  0  0  0  0  0
   -0.9656    2.4584    6.3445 O   0  0  0  0  0  0  0  0  0  0  0  0
   -2.0404    3.8815    4.5980 C   0  0  2  0  0  0  0  0  0  0  0  0
   -2.3570    3.6766    3.2283 O   0  0  0  0  0  0  0  0  0  0  0  0
   -1.4390    5.2817    4.7660 C   0  0  0  0  0  0  0  0  0  0  0  0
   -0.0902    5.3215    4.3508 O   0  0  0  0  0  0  0  0  0  0  0  0
   -0.1172    1.3569    6.6623 C   0  0  2  0  0  0  0  0  0  0  0  0
   -0.6136    0.5924    7.8990 C   0  0  2  0  0  0  0  0  0  0  0  0
   -2.0100    0.1593    7.7244 N   0  0  0  0  0  0  0  0  0  0  0  0
   -0.4400    1.4298    9.1750 C   0  0  1  0  0  0  0  0  0  0  0  0
   -0.8312    0.6464   10.2858 O   0  0  0  0  0  0  0  0  0  0  0  0
    1.0414    1.8247    9.2996 C   0  0  2  0  0  0  0  0  0  0  0  0
    1.2494    2.6368   10.4405 O   0  0  0  0  0  0  0  0  0  0  0  0
    1.5297    2.5475    8.0273 C   0  0  1  0  0  0  0  0  0  0  0  0
    1.2263    1.7962    6.8497 O   0  0  0  0  0  0  0  0  0  0  0  0
    1.0374    3.9987    7.9247 C   0  0  0  0  0  0  0  0  0  0  0  0
    1.7340    4.7264    6.8516 N   0  0  0  0  0  0  0  0  0  0  0  0
  1  3  1  0  0  0  0
  1  2  1  6  0  0  0
  3  4  1  6  0  0  0
  5  6  1  1  0  0  0
  5  3  1  0  0  0  0
  7  9  1  0  0  0  0
  7  5  1  0  0  0  0
  7  8  1  6  0  0  0
  9 10  1  0  0  0  0
  9 11  1  1  0  0  0
 10  1  1  0  0  0  0
 11 12  1  0  0  0  0
 13 14  1  1  0  0  0
 13 21  1  0  0  0  0
 15 13  1  0  0  0  0
 16 15  1  0  0  0  0
 16 18  1  0  0  0  0
 16 17  1  6  0  0  0
 18  2  1  6  0  0  0
 18 19  1  0  0  0  0
 19 21  1  0  0  0  0
 19 20  1  1  0  0  0
 21 22  1  1  0  0  0
 23 20  1  6  0  0  0
 23 29  1  0  0  0  0
 23 24  1  0  0  0  0
 24 26  1  0  0  0  0
 24 25  1  1  0  0  0
 26 27  1  1  0  0  0
 28 26  1  0  0  0  0
 28 30  1  6  0  0  0
 29 28  1  0  0  0  0
 30 31  1  0  0  0  0
 32 27  1  1  0  0  0
 32 40  1  0  0  0  0
 32 33  1  0  0  0  0
 33 35  1  0  0  0  0
 33 34  1  6  0  0  0
 35 37  1  0  0  0  0
 35 36  1  1  0  0  0
 37 38  1  1  0  0  0
 39 37  1  0  0  0  0
 39 41  1  6  0  0  0
 40 39  1  0  0  0  0
 42 41  1  0  0  0  0
M  END
>  <CHROM.1>
-159.45783759,-157.77236434,-176.90827912,-54.79231894,69.54316989,59.42898209
-176.43285160,67.65580054,68.12444655,166.98502231,114.91356493,-53.24532709
68.05864235,63.88864905,-146.25227536,38.83403663,62.93252376,149.22127014
-167.60680487,58.38418757,168.69527110,-149.47459989,-0.21800353,2.58084484
2.89038846,-1.38882231,1.04322761,1.56263261

>  <Name>
lig.pdb

>  <RI>
224

>  <Rbt.Current_Directory>
/home/itssahil/PROJECTS/Mol_Feturizer/New_Systems/rnas/2mxs

>  <Rbt.Executable>
rbdock ($Id: //depot/dev/client3/rdock/2013.1/src/exe/rbdock.cxx#4 $)

>  <Rbt.Library>
libRbt.so (2013.1, Build901 2013/11/27)

>  <Rbt.Parameter_File>
/export/apps/rDock/src/rDock_2013.1_src/data/scripts/dock_solv.prm

>  <Rbt.Receptor>
prm/pocket_docking_2.prm

>  <SCORE>
-48.3106

>  <SCORE.INTER>
-44.4681

>  <SCORE.INTER.CONST>
1

>  <SCORE.INTER.POLAR>
-6.02839

>  <SCORE.INTER.ROT>
9

>  <SCORE.INTER.SOLV>
19.1907

>  <SCORE.INTER.VDW>
-25.5477

>  <SCORE.INTER.norm>
-1.05876

>  <SCORE.INTRA>
-3.89632

>  <SCORE.INTRA.DIHEDRAL>
-5.27091

>  <SCORE.INTRA.DIHEDRAL.0>
30.1357

>  <SCORE.INTRA.POLAR>
-0.955825

>  <SCORE.INTRA.POLAR.0>
-0.631696

>  <SCORE.INTRA.REPUL>
0

>  <SCORE.INTRA.REPUL.0>
0

>  <SCORE.INTRA.SOLV>
0.748656

>  <SCORE.INTRA.SOLV.lig_0>
-55.904

>  <SCORE.INTRA.VDW>
1.61461

>  <SCORE.INTRA.VDW.0>
-8.21197

>  <SCORE.INTRA.norm>
-0.0927696

>  <SCORE.RESTR>
0.053788

>  <SCORE.RESTR.CAVITY>
0.053788

>  <SCORE.RESTR.norm>
0.00128067

>  <SCORE.SYSTEM>
0

>  <SCORE.SYSTEM.CONST>
0

>  <SCORE.SYSTEM.DIHEDRAL>
0

>  <SCORE.SYSTEM.SOLV>
0

>  <SCORE.SYSTEM.norm>
0

>  <SCORE.heavy>
42

>  <SCORE.norm>
-1.15025

>  <RMSD>
0.953

$$$$
lig.pdb
 OpenBabel11021811453D
libRbt.so/2013.1/901 2013/11/27
 42 45  0  0  0  0  0  0  0  0999 V2000
    0.2772    3.6797    0.3429 C   0  0  2  0  0  0  0  0  0  0  0  0
   -0.4752    2.8619   -0.5552 O   0  0  0  0  0  0  0  0  0  0  0  0
   -0.1263    5.1557    0.2074 C   0  0  2  0  0  0  0  0  0  0  0  0
   -1.5798    5.3256    0.3885 N   0  0  0  0  0  0  0  0  0  0  0  0
    0.3318    5.7296   -1.1396 C   0  0  1  0  0  0  0  0  0  0  0  0
    0.0810    7.1217   -1.1667 O   0  0  0  0  0  0  0  0  0  0  0  0
    1.8339    5.4791   -1.3415 C   0  0  2  0  0  0  0  0  0  0  0  0
    2.2026    5.8716   -2.6498 O   0  0  0  0  0  0  0  0  0  0  0  0
    2.1947    3.9961   -1.1201 C   0  0  2  0  0  0  0  0  0  0  0  0
    1.6759    3.5185    0.1208 O   0  0  0  0  0  0  0  0  0  0  0  0
    3.7301    3.8710   -1.1248 C   0  0  0  0  0  0  0  0  0  0  0  0
    4.1701    2.5413   -1.5105 O   0  0  0  0  0  0  0  0  0  0  0  0
   -1.7875   -1.2140   -0.1128 C   0  0  2  0  0  0  0  0  0  0  0  0
   -1.5736   -2.6272    0.2579 N   0  0  0  0  0  0  0  0  0  0  0  0
   -0.8203   -0.8038   -1.2260 C   0  0  0  0  0  0  0  0  0  0  0  0
   -0.9374    0.6878   -1.5164 C   0  0  2  0  0  0  0  0  0  0  0  0
   -0.0787    1.0525   -2.6502 N   0  0  0  0  0  0  0  0  0  0  0  0
   -0.5650    1.4664   -0.2332 C   0  0  2  0  0  0  0  0  0  0  0  0
   -1.6032    1.1895    0.8066 C   0  0  2  0  0  0  0  0  0  0  0  0
   -1.2667    1.9433    1.9569 O   0  0  0  0  0  0  0  0  0  0  0  0
   -1.6339   -0.2956    1.1142 C   0  0  1  0  0  0  0  0  0  0  0  0
   -2.6582   -0.6271    2.0329 O   0  0  0  0  0  0  0  0  0  0  0  0
   -2.3258    2.3470    2.8183 C   0  0  1  0  0  0  0  0  0  0  0  0
   -2.1218    1.6536    4.1669 C   0  0  2  0  0  0  0  0  0  0  0  0
   -3.3822    1.3196    4.7170 O   0  0  0  0  0  0  0  0  0  0  0  0
   -1.3805    2.7234    4.9800 C   0  0  2  0  0  0  0  0  0  0  0  0
   -1.4934    2.5242    6.3894 O   0  0  0  0  0  0  0  0  0  0  0  0
   -2.0715    3.9860    4.4504 C   0  0  2  0  0  0  0  0  0  0  0  0
   -2.2387    3.7456    3.0601 O   0  0  0  0  0  0  0  0  0  0  0  0
   -1.2645    5.2757    4.6392 C   0  0  0  0  0  0  0  0  0  0  0  0
   -1.4056    5.7909    5.9460 O   0  0  0  0  0  0  0  0  0  0  0  0
   -0.8228    1.3656    6.8815 C   0  0  2  0  0  0  0  0  0  0  0  0
   -1.0810    1.1505    8.3806 C   0  0  2  0  0  0  0  0  0  0  0  0
   -2.5249    1.0934    8.6630 N   0  0  0  0  0  0  0  0  0  0  0  0
   -0.3854    2.2301    9.2234 C   0  0  1  0  0  0  0  0  0  0  0  0
   -0.5850    1.9328   10.5918 O   0  0  0  0  0  0  0  0  0  0  0  0
    1.1162    2.2144    8.8906 C   0  0  2  0  0  0  0  0  0  0  0  0
    1.7999    3.2231    9.6112 O   0  0  0  0  0  0  0  0  0  0  0  0
    1.3483    2.3834    7.3750 C   0  0  1  0  0  0  0  0  0  0  0  0
    0.5764    1.4468    6.6198 O   0  0  0  0  0  0  0  0  0  0  0  0
    1.1422    3.8242    6.8845 C   0  0  0  0  0  0  0  0  0  0  0  0
    2.3866    4.6048    6.9759 N   0  0  0  0  0  0  0  0  0  0  0  0
  1  3  1  0  0  0  0
  1  2  1  6  0  0  0
  3  4  1  6  0  0  0
  5  6  1  1  0  0  0
  5  3  1  0  0  0  0
  7  9  1  0  0  0  0
  7  5  1  0  0  0  0
  7  8  1  6  0  0  0
  9 10  1  0  0  0  0
  9 11  1  1  0  0  0
 10  1  1  0  0  0  0
 11 12  1  0  0  0  0
 13 14  1  1  0  0  0
 13 21  1  0  0  0  0
 15 13  1  0  0  0  0
 16 15  1  0  0  0  0
 16 18  1  0  0  0  0
 16 17  1  6  0  0  0
 18  2  1  6  0  0  0
 18 19  1  0  0  0  0
 19 21  1  0  0  0  0
 19 20  1  1  0  0  0
 21 22  1  1  0  0  0
 23 20  1  6  0  0  0
 23 29  1  0  0  0  0
 23 24  1  0  0  0  0
 24 26  1  0  0  0  0
 24 25  1  1  0  0  0
 26 27  1  1  0  0  0
 28 26  1  0  0  0  0
 28 30  1  6  0  0  0
 29 28  1  0  0  0  0
 30 31  1  0  0  0  0
 32 27  1  1  0  0  0
 32 40  1  0  0  0  0
 32 33  1  0  0  0  0
 33 35  1  0  0  0  0
 33 34  1  6  0  0  0
 35 37  1  0  0  0  0
 35 36  1  1  0  0  0
 37 38  1  1  0  0  0
 39 37  1  0  0  0  0
 39 41  1  6  0  0  0
 40 39  1  0  0  0  0
 42 41  1  0  0  0  0
M  END
>  <CHROM.1>
-159.52282319,-158.68024984,58.80660420,-54.69912190,177.39640312,-171.85289672
-154.67165540,-161.45388539,-53.87930225,151.91830520,115.61057166,164.56642059
178.41542380,67.70737785,-175.32564838,-81.41889279,65.21558702,-143.57201697
63.79438506,-179.03046989,88.65454000,-115.72355635,-0.30633771,2.65260574
2.93044921,-1.35694952,1.02395470,1.46135604

>  <Name>
lig.pdb

>  <RI>
224

>  <Rbt.Current_Directory>
/home/itssahil/PROJECTS/Mol_Feturizer/New_Systems/rnas/2mxs

>  <Rbt.Executable>
rbdock ($Id: //depot/dev/client3/rdock/2013.1/src/exe/rbdock.cxx#4 $)

>  <Rbt.Library>
libRbt.so (2013.1, Build901 2013/11/27)

>  <Rbt.Parameter_File>
/export/apps/rDock/src/rDock_2013.1_src/data/scripts/dock_solv.prm

>  <Rbt.Receptor>
prm/pocket_docking_2.prm

>  <SCORE>
-48.5647

>  <SCORE.INTER>
-50.2012

>  <SCORE.INTER.CONST>
1

>  <SCORE.INTER.POLAR>
-7.25746

>  <SCORE.INTER.ROT>
9

>  <SCORE.INTER.SOLV>
17.0368

>  <SCORE.INTER.VDW>
-24.5548

>  <SCORE.INTER.norm>
-1.19527

>  <SCORE.INTRA>
1.6264

>  <SCORE.INTRA.DIHEDRAL>
-0.404534

>  <SCORE.INTRA.DIHEDRAL.0>
30.1357

>  <SCORE.INTRA.POLAR>
-0.355175

>  <SCORE.INTRA.POLAR.0>
-0.631696

>  <SCORE.INTRA.REPUL>
0.0257008

>  <SCORE.INTRA.REPUL.0>
0

>  <SCORE.INTRA.SOLV>
-0.958163

>  <SCORE.INTRA.SOLV.lig_0>
-55.904

>  <SCORE.INTRA.VDW>
3.38684

>  <SCORE.INTRA.VDW.0>
-8.21197

>  <SCORE.INTRA.norm>
0.0387237

>  <SCORE.RESTR>
0.0101253

>  <SCORE.RESTR.CAVITY>
0.0101253

>  <SCORE.RESTR.norm>
0.000241078

>  <SCORE.SYSTEM>
0

>  <SCORE.SYSTEM.CONST>
0

>  <SCORE.SYSTEM.DIHEDRAL>
0

>  <SCORE.SYSTEM.SOLV>
0

>  <SCORE.SYSTEM.norm>
0

>  <SCORE.heavy>
42

>  <SCORE.norm>
-1.1563

>  <RMSD>
0.961

$$$$
lig.pdb
 OpenBabel11021811453D
libRbt.so/2013.1/901 2013/11/27
 42 45  0  0  0  0  0  0  0  0999 V2000
    0.4332    3.7430    0.1565 C   0  0  2  0  0  0  0  0  0  0  0  0
   -0.2947    2.9322   -0.7677 O   0  0  0  0  0  0  0  0  0  0  0  0
   -0.0209    5.2082    0.0745 C   0  0  2  0  0  0  0  0  0  0  0  0
   -1.4786    5.3219    0.2659 N   0  0  0  0  0  0  0  0  0  0  0  0
    0.4118    5.8445   -1.2527 C   0  0  1  0  0  0  0  0  0  0  0  0
    0.1136    7.2273   -1.2297 O   0  0  0  0  0  0  0  0  0  0  0  0
    1.9207    5.6528   -1.4678 C   0  0  2  0  0  0  0  0  0  0  0  0
    2.2703    6.1035   -2.7625 O   0  0  0  0  0  0  0  0  0  0  0  0
    2.3326    4.1761   -1.3001 C   0  0  2  0  0  0  0  0  0  0  0  0
    1.8356    3.6376   -0.0754 O   0  0  0  0  0  0  0  0  0  0  0  0
    3.8714    4.1037   -1.3139 C   0  0  0  0  0  0  0  0  0  0  0  0
    4.3547    2.7363   -1.3973 O   0  0  0  0  0  0  0  0  0  0  0  0
   -1.9276   -1.0066   -0.1752 C   0  0  2  0  0  0  0  0  0  0  0  0
   -1.8218   -2.4219    0.2321 N   0  0  0  0  0  0  0  0  0  0  0  0
   -0.9582   -0.7092   -1.3219 C   0  0  0  0  0  0  0  0  0  0  0  0
   -0.9590    0.7784   -1.6534 C   0  0  2  0  0  0  0  0  0  0  0  0
   -0.1020    1.0390   -2.8168 N   0  0  0  0  0  0  0  0  0  0  0  0
   -0.4913    1.5584   -0.4026 C   0  0  2  0  0  0  0  0  0  0  0  0
   -1.5223    1.3977    0.6683 C   0  0  2  0  0  0  0  0  0  0  0  0
   -1.0957    2.1522    1.7878 O   0  0  0  0  0  0  0  0  0  0  0  0
   -1.6678   -0.0707    1.0203 C   0  0  1  0  0  0  0  0  0  0  0  0
   -2.6924   -0.2903    1.9715 O   0  0  0  0  0  0  0  0  0  0  0  0
   -2.0675    2.4811    2.7749 C   0  0  1  0  0  0  0  0  0  0  0  0
   -1.6568    1.7983    4.0812 C   0  0  2  0  0  0  0  0  0  0  0  0
   -2.8168    1.3787    4.7749 O   0  0  0  0  0  0  0  0  0  0  0  0
   -0.8951    2.9125    4.8115 C   0  0  2  0  0  0  0  0  0  0  0  0
   -0.8236    2.7014    6.2218 O   0  0  0  0  0  0  0  0  0  0  0  0
   -1.7269    4.1278    4.3833 C   0  0  2  0  0  0  0  0  0  0  0  0
   -2.0444    3.8816    3.0206 O   0  0  0  0  0  0  0  0  0  0  0  0
   -0.9900    5.4681    4.4885 C   0  0  0  0  0  0  0  0  0  0  0  0
   -0.7746    5.8389    5.8336 O   0  0  0  0  0  0  0  0  0  0  0  0
   -0.2368    1.4602    6.6080 C   0  0  2  0  0  0  0  0  0  0  0  0
   -0.8848    0.8941    7.8807 C   0  0  2  0  0  0  0  0  0  0  0  0
   -2.3428    0.7689    7.7179 N   0  0  0  0  0  0  0  0  0  0  0  0
   -0.5271    1.7434    9.1097 C   0  0  1  0  0  0  0  0  0  0  0  0
   -1.0771    1.1287   10.2589 O   0  0  0  0  0  0  0  0  0  0  0  0
    1.0052    1.8099    9.2256 C   0  0  2  0  0  0  0  0  0  0  0  0
    1.3904    2.6194   10.3214 O   0  0  0  0  0  0  0  0  0  0  0  0
    1.6360    2.3351    7.9195 C   0  0  1  0  0  0  0  0  0  0  0  0
    1.1710    1.6037    6.7828 O   0  0  0  0  0  0  0  0  0  0  0  0
    1.4742    3.8508    7.7319 C   0  0  0  0  0  0  0  0  0  0  0  0
    2.4987    4.5962    8.4809 N   0  0  0  0  0  0  0  0  0  0  0  0
  1  3  1  0  0  0  0
  1  2  1  6  0  0  0
  3  4  1  6  0  0  0
  5  6  1  1  0  0  0
  5  3  1  0  0  0  0
  7  9  1  0  0  0  0
  7  5  1  0  0  0  0
  7  8  1  6  0  0  0
  9 10  1  0  0  0  0
  9 11  1  1  0  0  0
 10  1  1  0  0  0  0
 11 12  1  0  0  0  0
 13 14  1  1  0  0  0
 13 21  1  0  0  0  0
 15 13  1  0  0  0  0
 16 15  1  0  0  0  0
 16 18  1  0  0  0  0
 16 17  1  6  0  0  0
 18  2  1  6  0  0  0
 18 19  1  0  0  0  0
 19 21  1  0  0  0  0
 19 20  1  1  0  0  0
 21 22  1  1  0  0  0
 23 20  1  6  0  0  0
 23 29  1  0  0  0  0
 23 24  1  0  0  0  0
 24 26  1  0  0  0  0
 24 25  1  1  0  0  0
 26 27  1  1  0  0  0
 28 26  1  0  0  0  0
 28 30  1  6  0  0  0
 29 28  1  0  0  0  0
 30 31  1  0  0  0  0
 32 27  1  1  0  0  0
 32 40  1  0  0  0  0
 32 33  1  0  0  0  0
 33 35  1  0  0  0  0
 33 34  1  6  0  0  0
 35 37  1  0  0  0  0
 35 36  1  1  0  0  0
 37 38  1  1  0  0  0
 39 37  1  0  0  0  0
 39 41  1  6  0  0  0
 40 39  1  0  0  0  0
 42 41  1  0  0  0  0
M  END
>  <CHROM.1>
-165.59788616,-150.43979664,60.48128264,-59.64053702,55.19840215,-58.58174318
-169.91776909,-50.34916587,54.69010008,161.90329298,116.48676842,64.97275416
-53.90736231,56.67997195,-145.65763752,-69.78115380,63.44046006,-89.70602300
70.52640893,-53.31487207,82.05542364,-48.55664647,-0.17032664,2.69271729
2.89900495,-1.42403238,1.02136207,1.55319232

>  <Name>
lig.pdb

>  <RI>
224

>  <Rbt.Current_Directory>
/home/itssahil/PROJECTS/Mol_Feturizer/New_Systems/rnas/2mxs

>  <Rbt.Executable>
rbdock ($Id: //depot/dev/client3/rdock/2013.1/src/exe/rbdock.cxx#4 $)

>  <Rbt.Library>
libRbt.so (2013.1, Build901 2013/11/27)

>  <Rbt.Parameter_File>
/export/apps/rDock/src/rDock_2013.1_src/data/scripts/dock_solv.prm

>  <Rbt.Receptor>
prm/pocket_docking_2.prm

>  <SCORE>
-46.3683

>  <SCORE.INTER>
-41.6135

>  <SCORE.INTER.CONST>
1

>  <SCORE.INTER.POLAR>
-5.70012

>  <SCORE.INTER.ROT>
9

>  <SCORE.INTER.SOLV>
17.3519

>  <SCORE.INTER.VDW>
-24.1259

>  <SCORE.INTER.norm>
-0.990797

>  <SCORE.INTRA>
-4.80208

>  <SCORE.INTRA.DIHEDRAL>
-6.10999

>  <SCORE.INTRA.DIHEDRAL.0>
30.1357

>  <SCORE.INTRA.POLAR>
-1.38441

>  <SCORE.INTRA.POLAR.0>
-0.631696

>  <SCORE.INTRA.REPUL>
0

>  <SCORE.INTRA.REPUL.0>
0

>  <SCORE.INTRA.SOLV>
-0.0620495

>  <SCORE.INTRA.SOLV.lig_0>
-55.904

>  <SCORE.INTRA.VDW>
2.99093

>  <SCORE.INTRA.VDW.0>
-8.21197

>  <SCORE.INTRA.norm>
-0.114335

>  <SCORE.RESTR>
0.0472285

>  <SCORE.RESTR.CAVITY>
0.0472285

>  <SCORE.RESTR.norm>
0.00112449

>  <SCORE.SYSTEM>
0

>  <SCORE.SYSTEM.CONST>
0

>  <SCORE.SYSTEM.DIHEDRAL>
0

>  <SCORE.SYSTEM.SOLV>
0

>  <SCORE.SYSTEM.norm>
0

>  <SCORE.heavy>
42

>  <SCORE.norm>
-1.10401

>  <RMSD>
0.965

$$$$
lig.pdb
 OpenBabel11021811453D
libRbt.so/2013.1/901 2013/11/27
 42 45  0  0  0  0  0  0  0  0999 V2000
    0.4920    3.8586    0.5132 C   0  0  2  0  0  0  0  0  0  0  0  0
   -0.4275    3.1771   -0.3421 O   0  0  0  0  0  0  0  0  0  0  0  0
   -0.0096    5.2735    0.8391 C   0  0  2  0  0  0  0  0  0  0  0  0
   -1.3701    5.2349    1.4065 N   0  0  0  0  0  0  0  0  0  0  0  0
    0.0449    6.1753   -0.4007 C   0  0  1  0  0  0  0  0  0  0  0  0
   -0.2766    7.5024   -0.0306 O   0  0  0  0  0  0  0  0  0  0  0  0
    1.4508    6.1458   -1.0189 C   0  0  2  0  0  0  0  0  0  0  0  0
    1.4389    6.8533   -2.2439 O   0  0  0  0  0  0  0  0  0  0  0  0
    1.9344    4.7006   -1.2553 C   0  0  2  0  0  0  0  0  0  0  0  0
    1.7884    3.9084   -0.0772 O   0  0  0  0  0  0  0  0  0  0  0  0
    3.4181    4.7532   -1.6664 C   0  0  0  0  0  0  0  0  0  0  0  0
    3.7287    3.8027   -2.7201 O   0  0  0  0  0  0  0  0  0  0  0  0
   -2.0007   -0.8267   -0.1821 C   0  0  2  0  0  0  0  0  0  0  0  0
   -1.8935   -2.2659    0.1303 N   0  0  0  0  0  0  0  0  0  0  0  0
   -0.9428   -0.4260   -1.2133 C   0  0  0  0  0  0  0  0  0  0  0  0
   -0.9541    1.0817   -1.4359 C   0  0  2  0  0  0  0  0  0  0  0  0
   -0.0057    1.4447   -2.4964 N   0  0  0  0  0  0  0  0  0  0  0  0
   -0.6188    1.7764   -0.0956 C   0  0  2  0  0  0  0  0  0  0  0  0
   -1.7350    1.5163    0.8646 C   0  0  2  0  0  0  0  0  0  0  0  0
   -1.4284    2.1944    2.0691 O   0  0  0  0  0  0  0  0  0  0  0  0
   -1.8717    0.0233    1.0959 C   0  0  1  0  0  0  0  0  0  0  0  0
   -2.9695   -0.2865    1.9336 O   0  0  0  0  0  0  0  0  0  0  0  0
   -2.2374    1.9212    3.2082 C   0  0  1  0  0  0  0  0  0  0  0  0
   -1.3065    1.7248    4.4066 C   0  0  2  0  0  0  0  0  0  0  0  0
   -1.8419    0.7281    5.2568 O   0  0  0  0  0  0  0  0  0  0  0  0
   -1.2986    3.1175    5.0510 C   0  0  2  0  0  0  0  0  0  0  0  0
   -0.9057    3.0900    6.4235 O   0  0  0  0  0  0  0  0  0  0  0  0
   -2.7547    3.5320    4.8058 C   0  0  2  0  0  0  0  0  0  0  0  0
   -3.0482    3.0522    3.5012 O   0  0  0  0  0  0  0  0  0  0  0  0
   -2.9973    5.0453    4.8460 C   0  0  0  0  0  0  0  0  0  0  0  0
   -2.2351    5.7204    3.8680 O   0  0  0  0  0  0  0  0  0  0  0  0
    0.3992    2.5642    6.6578 C   0  0  2  0  0  0  0  0  0  0  0  0
    0.6409    2.2802    8.1481 C   0  0  2  0  0  0  0  0  0  0  0  0
   -0.3996    1.3902    8.6897 N   0  0  0  0  0  0  0  0  0  0  0  0
    0.7390    3.5853    8.9524 C   0  0  1  0  0  0  0  0  0  0  0  0
    1.0466    3.2658   10.2955 O   0  0  0  0  0  0  0  0  0  0  0  0
    1.8564    4.4490    8.3432 C   0  0  2  0  0  0  0  0  0  0  0  0
    1.9604    5.6866    9.0230 O   0  0  0  0  0  0  0  0  0  0  0  0
    1.6175    4.6801    6.8369 C   0  0  1  0  0  0  0  0  0  0  0  0
    1.3951    3.4478    6.1473 O   0  0  0  0  0  0  0  0  0  0  0  0
    0.5136    5.7075    6.5461 C   0  0  0  0  0  0  0  0  0  0  0  0
    0.4942    6.0856    5.1238 N   0  0  0  0  0  0  0  0  0  0  0  0
  1  3  1  0  0  0  0
  1  2  1  6  0  0  0
  3  4  1  6  0  0  0
  5  6  1  1  0  0  0
  5  3  1  0  0  0  0
  7  9  1  0  0  0  0
  7  5  1  0  0  0  0
  7  8  1  6  0  0  0
  9 10  1  0  0  0  0
  9 11  1  1  0  0  0
 10  1  1  0  0  0  0
 11 12  1  0  0  0  0
 13 14  1  1  0  0  0
 13 21  1  0  0  0  0
 15 13  1  0  0  0  0
 16 15  1  0  0  0  0
 16 18  1  0  0  0  0
 16 17  1  6  0  0  0
 18  2  1  6  0  0  0
 18 19  1  0  0  0  0
 19 21  1  0  0  0  0
 19 20  1  1  0  0  0
 21 22  1  1  0  0  0
 23 20  1  6  0  0  0
 23 29  1  0  0  0  0
 23 24  1  0  0  0  0
 24 26  1  0  0  0  0
 24 25  1  1  0  0  0
 26 27  1  1  0  0  0
 28 26  1  0  0  0  0
 28 30  1  6  0  0  0
 29 28  1  0  0  0  0
 30 31  1  0  0  0  0
 32 27  1  1  0  0  0
 32 40  1  0  0  0  0
 32 33  1  0  0  0  0
 33 35  1  0  0  0  0
 33 34  1  1  0  0  0
 35 37  1  0  0  0  0
 35 36  1  1  0  0  0
 37 38  1  1  0  0  0
 39 37  1  0  0  0  0
 39 41  1  1  0  0  0
 40 39  1  0  0  0  0
 42 41  1  0  0  0  0
M  END
>  <CHROM.1>
-149.47011614,-142.13619695,-95.24455289,60.36518567,11.19073238,-55.38826742
-139.98586140,169.07530670,66.96129618,-170.06278809,134.84334660,-73.75887256
-57.36482979,59.73531452,-167.66812083,59.89907873,163.26363323,50.36605709
-62.70438675,-61.29157632,169.17094282,-133.93960192,-0.25736682,3.27324146
2.85807078,-1.55098189,1.05789227,1.49249998

>  <Name>
lig.pdb

>  <RI>
224

>  <Rbt.Current_Directory>
/home/itssahil/PROJECTS/Mol_Feturizer/New_Systems/rnas/2mxs

>  <Rbt.Executable>
rbdock ($Id: //depot/dev/client3/rdock/2013.1/src/exe/rbdock.cxx#4 $)

>  <Rbt.Library>
libRbt.so (2013.1, Build901 2013/11/27)

>  <Rbt.Parameter_File>
/export/apps/rDock/src/rDock_2013.1_src/data/scripts/dock_solv.prm

>  <Rbt.Receptor>
prm/pocket_docking_2.prm

>  <SCORE>
-39.7835

>  <SCORE.INTER>
-40.9597

>  <SCORE.INTER.CONST>
1

>  <SCORE.INTER.POLAR>
-5.58411

>  <SCORE.INTER.ROT>
9

>  <SCORE.INTER.SOLV>
14.1013

>  <SCORE.INTER.VDW>
-22.9932

>  <SCORE.INTER.norm>
-0.975231

>  <SCORE.INTRA>
1.00007

>  <SCORE.INTRA.DIHEDRAL>
6.0069

>  <SCORE.INTRA.DIHEDRAL.0>
30.1357

>  <SCORE.INTRA.POLAR>
-1.88747

>  <SCORE.INTRA.POLAR.0>
-0.631696

>  <SCORE.INTRA.REPUL>
0

>  <SCORE.INTRA.REPUL.0>
0

>  <SCORE.INTRA.SOLV>
1.45455

>  <SCORE.INTRA.SOLV.lig_0>
-55.904

>  <SCORE.INTRA.VDW>
3.68675

>  <SCORE.INTRA.VDW.0>
-8.21197

>  <SCORE.INTRA.norm>
0.0238113

>  <SCORE.RESTR>
0.176118

>  <SCORE.RESTR.CAVITY>
0.176118

>  <SCORE.RESTR.norm>
0.00419328

>  <SCORE.SYSTEM>
0

>  <SCORE.SYSTEM.CONST>
0

>  <SCORE.SYSTEM.DIHEDRAL>
0

>  <SCORE.SYSTEM.SOLV>
0

>  <SCORE.SYSTEM.norm>
0

>  <SCORE.heavy>
42

>  <SCORE.norm>
-0.947226

>  <RMSD>
0.997

$$$$
lig.pdb
 OpenBabel11021811453D
libRbt.so/2013.1/901 2013/11/27
 42 45  0  0  0  0  0  0  0  0999 V2000
    0.6332    3.8520    0.2110 C   0  0  2  0  0  0  0  0  0  0  0  0
   -0.3720    3.0860   -0.4556 O   0  0  0  0  0  0  0  0  0  0  0  0
    0.2765    5.3461    0.2046 C   0  0  2  0  0  0  0  0  0  0  0  0
   -1.0635    5.5727    0.7767 N   0  0  0  0  0  0  0  0  0  0  0  0
    0.3770    5.9294   -1.2108 C   0  0  1  0  0  0  0  0  0  0  0  0
    0.1927    7.3310   -1.1554 O   0  0  0  0  0  0  0  0  0  0  0  0
    1.7543    5.6208   -1.8170 C   0  0  2  0  0  0  0  0  0  0  0  0
    1.7710    6.0257   -3.1724 O   0  0  0  0  0  0  0  0  0  0  0  0
    2.0930    4.1196   -1.7164 C   0  0  2  0  0  0  0  0  0  0  0  0
    1.9098    3.6373   -0.3856 O   0  0  0  0  0  0  0  0  0  0  0  0
    3.5618    3.9305   -2.1408 C   0  0  0  0  0  0  0  0  0  0  0  0
    4.4578    4.8224   -1.4254 O   0  0  0  0  0  0  0  0  0  0  0  0
   -1.4002   -1.0873   -0.2169 C   0  0  2  0  0  0  0  0  0  0  0  0
   -1.0708   -2.5073    0.0189 N   0  0  0  0  0  0  0  0  0  0  0  0
   -0.5721   -0.5351   -1.3798 C   0  0  0  0  0  0  0  0  0  0  0  0
   -0.8020    0.9632   -1.5387 C   0  0  2  0  0  0  0  0  0  0  0  0
   -0.0812    1.4647   -2.7154 N   0  0  0  0  0  0  0  0  0  0  0  0
   -0.3501    1.6677   -0.2383 C   0  0  2  0  0  0  0  0  0  0  0  0
   -1.2635    1.2490    0.8689 C   0  0  2  0  0  0  0  0  0  0  0  0
   -0.8589    1.9362    2.0388 O   0  0  0  0  0  0  0  0  0  0  0  0
   -1.1792   -0.2537    1.0593 C   0  0  1  0  0  0  0  0  0  0  0  0
   -2.0876   -0.7169    2.0407 O   0  0  0  0  0  0  0  0  0  0  0  0
   -1.8762    2.4112    2.9141 C   0  0  1  0  0  0  0  0  0  0  0  0
   -1.6978    1.7101    4.2624 C   0  0  2  0  0  0  0  0  0  0  0  0
   -2.9690    1.4612    4.8324 O   0  0  0  0  0  0  0  0  0  0  0  0
   -0.8759    2.7316    5.0600 C   0  0  2  0  0  0  0  0  0  0  0  0
   -0.9804    2.5447    6.4717 O   0  0  0  0  0  0  0  0  0  0  0  0
   -1.4907    4.0351    4.5355 C   0  0  2  0  0  0  0  0  0  0  0  0
   -1.6941    3.8019    3.1489 O   0  0  0  0  0  0  0  0  0  0  0  0
   -0.5982    5.2698    4.7070 C   0  0  0  0  0  0  0  0  0  0  0  0
   -0.9942    6.3207    3.8514 O   0  0  0  0  0  0  0  0  0  0  0  0
   -0.4482    1.3105    6.9489 C   0  0  2  0  0  0  0  0  0  0  0  0
   -0.8538    1.0393    8.4056 C   0  0  2  0  0  0  0  0  0  0  0  0
   -2.3172    1.0870    8.5619 N   0  0  0  0  0  0  0  0  0  0  0  0
   -0.1537    2.0121    9.3663 C   0  0  1  0  0  0  0  0  0  0  0  0
   -0.4960    1.6612   10.6931 O   0  0  0  0  0  0  0  0  0  0  0  0
    1.3657    1.8898    9.1604 C   0  0  2  0  0  0  0  0  0  0  0  0
    2.0594    2.7995    9.9944 O   0  0  0  0  0  0  0  0  0  0  0  0
    1.7433    2.1182    7.6823 C   0  0  1  0  0  0  0  0  0  0  0  0
    0.9708    1.2894    6.8108 O   0  0  0  0  0  0  0  0  0  0  0  0
    1.6942    3.5948    7.2626 C   0  0  0  0  0  0  0  0  0  0  0  0
    2.9444    4.2916    7.6054 N   0  0  0  0  0  0  0  0  0  0  0  0
  1  3  1  0  0  0  0
  1  2  1  6  0  0  0
  3  4  1  6  0  0  0
  5  6  1  1  0  0  0
  5  3  1  0  0  0  0
  7  9  1  0  0  0  0
  7  5  1  0  0  0  0
  7  8  1  6  0  0  0
  9 10  1  0  0  0  0
  9 11  1  1  0  0  0
 10  1  1  0  0  0  0
 11 12  1  0  0  0  0
 13 14  1  1  0  0  0
 13 21  1  0  0  0  0
 15 13  1  0  0  0  0
 16 15  1  0  0  0  0
 16 18  1  0  0  0  0
 16 17  1  6  0  0  0
 18  2  1  6  0  0  0
 18 19  1  0  0  0  0
 19 21  1  0  0  0  0
 19 20  1  1  0  0  0
 21 22  1  1  0  0  0
 23 20  1  6  0  0  0
 23 29  1  0  0  0  0
 23 24  1  0  0  0  0
 24 26  1  0  0  0  0
 24 25  1  1  0  0  0
 26 27  1  1  0  0  0
 28 26  1  0  0  0  0
 28 30  1  6  0  0  0
 29 28  1  0  0  0  0
 30 31  1  0  0  0  0
 32 27  1  1  0  0  0
 32 40  1  0  0  0  0
 32 33  1  0  0  0  0
 33 35  1  0  0  0  0
 33 34  1  6  0  0  0
 35 37  1  0  0  0  0
 35 36  1  1  0  0  0
 37 38  1  1  0  0  0
 39 37  1  0  0  0  0
 39 41  1  6  0  0  0
 40 39  1  0  0  0  0
 42 41  1  0  0  0  0
M  END
>  <CHROM.1>
-145.62382154,-164.75094776,79.49874451,-69.05708677,-38.24164524,61.17034277
51.55817600,-81.35738791,-179.62901177,141.24956440,118.08717196,171.87541345
169.76885202,64.27195503,-167.86396095,160.92634219,179.34965771,103.70350498
-29.11934853,150.92501776,83.98782976,170.97328664,-0.01351074,2.76142259
2.87549328,-1.39619259,1.08042802,1.56925640

>  <Name>
lig.pdb

>  <RI>
224

>  <Rbt.Current_Directory>
/home/itssahil/PROJECTS/Mol_Feturizer/New_Systems/rnas/2mxs

>  <Rbt.Executable>
rbdock ($Id: //depot/dev/client3/rdock/2013.1/src/exe/rbdock.cxx#4 $)

>  <Rbt.Library>
libRbt.so (2013.1, Build901 2013/11/27)

>  <Rbt.Parameter_File>
/export/apps/rDock/src/rDock_2013.1_src/data/scripts/dock_solv.prm

>  <Rbt.Receptor>
prm/pocket_docking_2.prm

>  <SCORE>
-38.1383

>  <SCORE.INTER>
-44.1035

>  <SCORE.INTER.CONST>
1

>  <SCORE.INTER.POLAR>
-5.53935

>  <SCORE.INTER.ROT>
9

>  <SCORE.INTER.SOLV>
18.1444

>  <SCORE.INTER.VDW>
-26.5859

>  <SCORE.INTER.norm>
-1.05008

>  <SCORE.INTRA>
5.30611

>  <SCORE.INTRA.DIHEDRAL>
7.87258

>  <SCORE.INTRA.DIHEDRAL.0>
30.1357

>  <SCORE.INTRA.POLAR>
-0.730462

>  <SCORE.INTRA.POLAR.0>
-0.631696

>  <SCORE.INTRA.REPUL>
0.0358686

>  <SCORE.INTRA.REPUL.0>
0

>  <SCORE.INTRA.SOLV>
0.397998

>  <SCORE.INTRA.SOLV.lig_0>
-55.904

>  <SCORE.INTRA.VDW>
3.47505

>  <SCORE.INTRA.VDW.0>
-8.21197

>  <SCORE.INTRA.norm>
0.126336

>  <SCORE.RESTR>
0.659017

>  <SCORE.RESTR.CAVITY>
0.659017

>  <SCORE.RESTR.norm>
0.0156909

>  <SCORE.SYSTEM>
0

>  <SCORE.SYSTEM.CONST>
0

>  <SCORE.SYSTEM.DIHEDRAL>
0

>  <SCORE.SYSTEM.SOLV>
0

>  <SCORE.SYSTEM.norm>
0

>  <SCORE.heavy>
42

>  <SCORE.norm>
-0.908056

>  <RMSD>
1.006

$$$$
lig.pdb
 OpenBabel11021811453D
libRbt.so/2013.1/901 2013/11/27
 42 45  0  0  0  0  0  0  0  0999 V2000
    0.7779    4.0637    0.3778 C   0  0  2  0  0  0  0  0  0  0  0  0
   -0.0617    3.2316   -0.4247 O   0  0  0  0  0  0  0  0  0  0  0  0
    0.3180    5.5280    0.3147 C   0  0  2  0  0  0  0  0  0  0  0  0
   -1.1036    5.6526    0.6861 N   0  0  0  0  0  0  0  0  0  0  0  0
    0.5794    6.1272   -1.0731 C   0  0  1  0  0  0  0  0  0  0  0  0
    0.2874    7.5113   -1.0497 O   0  0  0  0  0  0  0  0  0  0  0  0
    2.0487    5.9238   -1.4725 C   0  0  2  0  0  0  0  0  0  0  0  0
    2.2317    6.3386   -2.8126 O   0  0  0  0  0  0  0  0  0  0  0  0
    2.4777    4.4505   -1.3188 C   0  0  2  0  0  0  0  0  0  0  0  0
    2.1396    3.9466   -0.0270 O   0  0  0  0  0  0  0  0  0  0  0  0
    4.0023    4.3715   -1.5254 C   0  0  0  0  0  0  0  0  0  0  0  0
    4.5004    5.4594   -2.3493 O   0  0  0  0  0  0  0  0  0  0  0  0
   -0.7623   -1.0102   -0.2081 C   0  0  2  0  0  0  0  0  0  0  0  0
   -0.3111   -2.4069   -0.0467 N   0  0  0  0  0  0  0  0  0  0  0  0
   -0.0947   -0.3734   -1.4295 C   0  0  0  0  0  0  0  0  0  0  0  0
   -0.4450    1.1071   -1.5219 C   0  0  2  0  0  0  0  0  0  0  0  0
    0.1183    1.6857   -2.7481 N   0  0  0  0  0  0  0  0  0  0  0  0
    0.0822    1.8143   -0.2517 C   0  0  2  0  0  0  0  0  0  0  0  0
   -0.6850    1.3056    0.9264 C   0  0  2  0  0  0  0  0  0  0  0  0
   -0.2164    1.9950    2.0708 O   0  0  0  0  0  0  0  0  0  0  0  0
   -0.4758   -0.1906    1.0641 C   0  0  1  0  0  0  0  0  0  0  0  0
   -1.2474   -0.7407    2.1154 O   0  0  0  0  0  0  0  0  0  0  0  0
   -1.0819    2.0730    3.1986 C   0  0  1  0  0  0  0  0  0  0  0  0
   -0.2533    1.7602    4.4463 C   0  0  2  0  0  0  0  0  0  0  0  0
   -1.0498    1.0413    5.3691 O   0  0  0  0  0  0  0  0  0  0  0  0
    0.1274    3.1590    4.9496 C   0  0  2  0  0  0  0  0  0  0  0  0
    0.4826    3.1718    6.3326 O   0  0  0  0  0  0  0  0  0  0  0  0
   -1.1574    3.9234    4.6073 C   0  0  2  0  0  0  0  0  0  0  0  0
   -1.5563    3.4054    3.3460 O   0  0  0  0  0  0  0  0  0  0  0  0
   -0.9781    5.4413    4.4880 C   0  0  0  0  0  0  0  0  0  0  0  0
   -0.0711    5.7787    3.4601 O   0  0  0  0  0  0  0  0  0  0  0  0
    1.7668    2.6229    6.6215 C   0  0  2  0  0  0  0  0  0  0  0  0
    1.7638    1.8238    7.9336 C   0  0  2  0  0  0  0  0  0  0  0  0
    0.7279    0.7778    7.9103 N   0  0  0  0  0  0  0  0  0  0  0  0
    1.5993    2.7512    9.1471 C   0  0  1  0  0  0  0  0  0  0  0  0
    1.6903    1.9736   10.3252 O   0  0  0  0  0  0  0  0  0  0  0  0
    2.7251    3.7988    9.1147 C   0  0  2  0  0  0  0  0  0  0  0  0
    2.5946    4.7084   10.1918 O   0  0  0  0  0  0  0  0  0  0  0  0
    2.7384    4.5544    7.7698 C   0  0  1  0  0  0  0  0  0  0  0  0
    2.7541    3.6509    6.6622 O   0  0  0  0  0  0  0  0  0  0  0  0
    1.6161    5.5953    7.6452 C   0  0  0  0  0  0  0  0  0  0  0  0
    1.7442    6.3759    6.4040 N   0  0  0  0  0  0  0  0  0  0  0  0
  1  3  1  0  0  0  0
  1  2  1  6  0  0  0
  3  4  1  6  0  0  0
  5  6  1  1  0  0  0
  5  3  1  0  0  0  0
  7  9  1  0  0  0  0
  7  5  1  0  0  0  0
  7  8  1  6  0  0  0
  9 10  1  0  0  0  0
  9 11  1  1  0  0  0
 10  1  1  0  0  0  0
 11 12  1  0  0  0  0
 13 14  1  1  0  0  0
 13 21  1  0  0  0  0
 15 13  1  0  0  0  0
 16 15  1  0  0  0  0
 16 18  1  0  0  0  0
 16 17  1  6  0  0  0
 18  2  1  6  0  0  0
 18 19  1  0  0  0  0
 19 21  1  0  0  0  0
 19 20  1  1  0  0  0
 21 22  1  1  0  0  0
 23 20  1  6  0  0  0
 23 29  1  0  0  0  0
 23 24  1  0  0  0  0
 24 26  1  0  0  0  0
 24 25  1  1  0  0  0
 26 27  1  1  0  0  0
 28 26  1  0  0  0  0
 28 30  1  6  0  0  0
 29 28  1  0  0  0  0
 30 31  1  0  0  0  0
 32 27  1  1  0  0  0
 32 40  1  0  0  0  0
 32 33  1  0  0  0  0
 33 35  1  0  0  0  0
 33 34  1  6  0  0  0
 35 37  1  0  0  0  0
 35 36  1  1  0  0  0
 37 38  1  1  0  0  0
 39 37  1  0  0  0  0
 39 41  1  6  0  0  0
 40 39  1  0  0  0  0
 42 41  1  0  0  0  0
M  END
>  <CHROM.1>
-157.93482725,-167.92502564,-149.73688191,-68.55515691,-47.88640538,-49.26248647
-25.62019697,14.70306875,63.12593129,157.07035198,135.06779155,-56.40689739
63.74776294,74.60311802,-142.24048001,61.14220609,-56.85524221,-141.84277526
66.51293302,69.89536973,174.66999840,171.76390931,0.72227730,3.21166933,2.83932911
-1.73163641,1.19263854,1.73586510

>  <Name>
lig.pdb

>  <RI>
0

>  <Rbt.Current_Directory>
/home/itssahil/PROJECTS/Mol_Feturizer/New_Systems/rnas/2mxs

>  <Rbt.Executable>
rbdock ($Id: //depot/dev/client3/rdock/2013.1/src/exe/rbdock.cxx#4 $)

>  <Rbt.Library>
libRbt.so (2013.1, Build901 2013/11/27)

>  <Rbt.Parameter_File>
/export/apps/rDock/src/rDock_2013.1_src/data/scripts/dock_solv.prm

>  <Rbt.Receptor>
prm/pocket_docking_3.prm

>  <SCORE>
-54.965

>  <SCORE.INTER>
-55.0622

>  <SCORE.INTER.CONST>
1

>  <SCORE.INTER.POLAR>
-7.0252

>  <SCORE.INTER.ROT>
9

>  <SCORE.INTER.SOLV>
19.5875

>  <SCORE.INTER.VDW>
-29.42

>  <SCORE.INTER.norm>
-1.31101

>  <SCORE.INTRA>
0.0972452

>  <SCORE.INTRA.DIHEDRAL>
1.22605

>  <SCORE.INTRA.DIHEDRAL.0>
30.1357

>  <SCORE.INTRA.POLAR>
-1.48168

>  <SCORE.INTRA.POLAR.0>
-0.631696

>  <SCORE.INTRA.REPUL>
0

>  <SCORE.INTRA.REPUL.0>
0

>  <SCORE.INTRA.SOLV>
2.14541

>  <SCORE.INTRA.SOLV.lig_0>
-55.904

>  <SCORE.INTRA.VDW>
3.44923

>  <SCORE.INTRA.VDW.0>
-8.21197

>  <SCORE.INTRA.norm>
0.00231536

>  <SCORE.RESTR>
0

>  <SCORE.RESTR.CAVITY>
0

>  <SCORE.RESTR.norm>
0

>  <SCORE.SYSTEM>
0

>  <SCORE.SYSTEM.CONST>
0

>  <SCORE.SYSTEM.DIHEDRAL>
0

>  <SCORE.SYSTEM.SOLV>
0

>  <SCORE.SYSTEM.norm>
0

>  <SCORE.heavy>
42

>  <SCORE.norm>
-1.30869

>  <RMSD>
1.059

$$$$
lig.pdb
 OpenBabel11021811453D
libRbt.so/2013.1/901 2013/11/27
 42 45  0  0  0  0  0  0  0  0999 V2000
    0.4333    3.7667    0.5776 C   0  0  2  0  0  0  0  0  0  0  0  0
   -0.4312    3.0978   -0.3425 O   0  0  0  0  0  0  0  0  0  0  0  0
   -0.0609    5.1948    0.8534 C   0  0  2  0  0  0  0  0  0  0  0  0
   -1.4622    5.1903    1.3126 N   0  0  0  0  0  0  0  0  0  0  0  0
    0.1103    6.0847   -0.3844 C   0  0  1  0  0  0  0  0  0  0  0  0
   -0.2099    7.4215   -0.0497 O   0  0  0  0  0  0  0  0  0  0  0  0
    1.5593    6.0197   -0.8902 C   0  0  2  0  0  0  0  0  0  0  0  0
    1.6589    6.7169   -2.1172 O   0  0  0  0  0  0  0  0  0  0  0  0
    2.0279    4.5625   -1.0781 C   0  0  2  0  0  0  0  0  0  0  0  0
    1.7728    3.7837    0.0904 O   0  0  0  0  0  0  0  0  0  0  0  0
    3.5401    4.5799   -1.3718 C   0  0  0  0  0  0  0  0  0  0  0  0
    3.8217    4.7777   -2.7832 O   0  0  0  0  0  0  0  0  0  0  0  0
   -2.2069   -0.8207   -0.1907 C   0  0  2  0  0  0  0  0  0  0  0  0
   -2.1885   -2.2557    0.1566 N   0  0  0  0  0  0  0  0  0  0  0  0
   -1.0746   -0.4954   -1.1681 C   0  0  0  0  0  0  0  0  0  0  0  0
   -0.9989    1.0056   -1.4216 C   0  0  2  0  0  0  0  0  0  0  0  0
    0.0240    1.2978   -2.4336 N   0  0  0  0  0  0  0  0  0  0  0  0
   -0.7050    1.7141   -0.0788 C   0  0  2  0  0  0  0  0  0  0  0  0
   -1.8845    1.5304    0.8215 C   0  0  2  0  0  0  0  0  0  0  0  0
   -1.6124    2.2206    2.0273 O   0  0  0  0  0  0  0  0  0  0  0  0
   -2.1075    0.0514    1.0750 C   0  0  1  0  0  0  0  0  0  0  0  0
   -3.2643   -0.1856    1.8550 O   0  0  0  0  0  0  0  0  0  0  0  0
   -2.4431    1.9460    3.1504 C   0  0  1  0  0  0  0  0  0  0  0  0
   -1.5329    1.6817    4.3517 C   0  0  2  0  0  0  0  0  0  0  0  0
   -2.1137    0.6823    5.1682 O   0  0  0  0  0  0  0  0  0  0  0  0
   -1.4806    3.0547    5.0353 C   0  0  2  0  0  0  0  0  0  0  0  0
   -1.1037    2.9743    6.4101 O   0  0  0  0  0  0  0  0  0  0  0  0
   -2.9177    3.5297    4.7878 C   0  0  2  0  0  0  0  0  0  0  0  0
   -3.2148    3.0976    3.4675 O   0  0  0  0  0  0  0  0  0  0  0  0
   -3.1048    5.0492    4.8684 C   0  0  0  0  0  0  0  0  0  0  0  0
   -2.2926    5.7237    3.9312 O   0  0  0  0  0  0  0  0  0  0  0  0
    0.1924    2.4254    6.6401 C   0  0  2  0  0  0  0  0  0  0  0  0
    0.4527    2.1833    8.1346 C   0  0  2  0  0  0  0  0  0  0  0  0
   -0.5989    1.3361    8.7215 N   0  0  0  0  0  0  0  0  0  0  0  0
    0.5948    3.5106    8.8947 C   0  0  1  0  0  0  0  0  0  0  0  0
    0.9177    3.2268   10.2423 O   0  0  0  0  0  0  0  0  0  0  0  0
    1.7216    4.3276    8.2400 C   0  0  2  0  0  0  0  0  0  0  0  0
    1.8659    5.5834    8.8778 O   0  0  0  0  0  0  0  0  0  0  0  0
    1.4626    4.5162    6.7310 C   0  0  1  0  0  0  0  0  0  0  0  0
    1.1998    3.2683    6.0853 O   0  0  0  0  0  0  0  0  0  0  0  0
    0.3782    5.5599    6.4252 C   0  0  0  0  0  0  0  0  0  0  0  0
    0.4888    6.0595    5.0452 N   0  0  0  0  0  0  0  0  0  0  0  0
  1  3  1  0  0  0  0
  1  2  1  6  0  0  0
  3  4  1  6  0  0  0
  5  6  1  1  0  0  0
  5  3  1  0  0  0  0
  7  9  1  0  0  0  0
  7  5  1  0  0  0  0
  7  8  1  6  0  0  0
  9 10  1  0  0  0  0
  9 11  1  1  0  0  0
 10  1  1  0  0  0  0
 11 12  1  0  0  0  0
 13 14  1  1  0  0  0
 13 21  1  0  0  0  0
 15 13  1  0  0  0  0
 16 15  1  0  0  0  0
 16 18  1  0  0  0  0
 16 17  1  6  0  0  0
 18  2  1  6  0  0  0
 18 19  1  0  0  0  0
 19 21  1  0  0  0  0
 19 20  1  1  0  0  0
 21 22  1  6  0  0  0
 23 20  1  6  0  0  0
 23 29  1  0  0  0  0
 23 24  1  0  0  0  0
 24 26  1  0  0  0  0
 24 25  1  1  0  0  0
 26 27  1  1  0  0  0
 28 26  1  0  0  0  0
 28 30  1  6  0  0  0
 29 28  1  0  0  0  0
 30 31  1  0  0  0  0
 32 27  1  1  0  0  0
 32 40  1  0  0  0  0
 32 33  1  0  0  0  0
 33 35  1  0  0  0  0
 33 34  1  1  0  0  0
 35 37  1  0  0  0  0
 35 36  1  1  0  0  0
 37 38  1  1  0  0  0
 39 37  1  0  0  0  0
 39 41  1  1  0  0  0
 40 39  1  0  0  0  0
 42 41  1  0  0  0  0
M  END
>  <CHROM.1>
-151.67980223,-140.27241007,33.06094592,60.11238241,163.85701183,61.08960419
-85.52970362,-178.20064209,-171.08275410,-165.98409512,131.32950871,-67.63594452
59.57986999,61.24862996,-171.89443152,58.99691360,169.10780638,56.77188261
63.27433273,52.31336563,159.65400398,131.11098805,-0.34831471,3.23756548
2.85255098,-1.51289143,0.99783859,1.48313646

>  <Name>
lig.pdb

>  <RI>
224

>  <Rbt.Current_Directory>
/home/itssahil/PROJECTS/Mol_Feturizer/New_Systems/rnas/2mxs

>  <Rbt.Executable>
rbdock ($Id: //depot/dev/client3/rdock/2013.1/src/exe/rbdock.cxx#4 $)

>  <Rbt.Library>
libRbt.so (2013.1, Build901 2013/11/27)

>  <Rbt.Parameter_File>
/export/apps/rDock/src/rDock_2013.1_src/data/scripts/dock_solv.prm

>  <Rbt.Receptor>
prm/pocket_docking_2.prm

>  <SCORE>
-37.6024

>  <SCORE.INTER>
-34.914

>  <SCORE.INTER.CONST>
1

>  <SCORE.INTER.POLAR>
-4.77636

>  <SCORE.INTER.ROT>
9

>  <SCORE.INTER.SOLV>
13.4849

>  <SCORE.INTER.VDW>
-21.4498

>  <SCORE.INTER.norm>
-0.831286

>  <SCORE.INTRA>
-3.06197

>  <SCORE.INTRA.DIHEDRAL>
-2.1488

>  <SCORE.INTRA.DIHEDRAL.0>
30.1357

>  <SCORE.INTRA.POLAR>
-1.71422

>  <SCORE.INTRA.POLAR.0>
-0.631696

>  <SCORE.INTRA.REPUL>
0

>  <SCORE.INTRA.REPUL.0>
0

>  <SCORE.INTRA.SOLV>
1.99773

>  <SCORE.INTRA.SOLV.lig_0>
-55.904

>  <SCORE.INTRA.VDW>
2.84191

>  <SCORE.INTRA.VDW.0>
-8.21197

>  <SCORE.INTRA.norm>
-0.0729042

>  <SCORE.RESTR>
0.373571

>  <SCORE.RESTR.CAVITY>
0.373571

>  <SCORE.RESTR.norm>
0.00889455

>  <SCORE.SYSTEM>
0

>  <SCORE.SYSTEM.CONST>
0

>  <SCORE.SYSTEM.DIHEDRAL>
0

>  <SCORE.SYSTEM.SOLV>
0

>  <SCORE.SYSTEM.norm>
0

>  <SCORE.heavy>
42

>  <SCORE.norm>
-0.895296

>  <RMSD>
1.074

$$$$
lig.pdb
 OpenBabel11021811453D
libRbt.so/2013.1/901 2013/11/27
 42 45  0  0  0  0  0  0  0  0999 V2000
    0.7216    4.0548    0.2699 C   0  0  2  0  0  0  0  0  0  0  0  0
   -0.2388    3.3123   -0.4836 O   0  0  0  0  0  0  0  0  0  0  0  0
    0.4588    5.5639    0.1553 C   0  0  2  0  0  0  0  0  0  0  0  0
   -0.9250    5.8911    0.5457 N   0  0  0  0  0  0  0  0  0  0  0  0
    0.7661    6.0697   -1.2601 C   0  0  1  0  0  0  0  0  0  0  0  0
    0.6609    7.4803   -1.2879 O   0  0  0  0  0  0  0  0  0  0  0  0
    2.1861    5.6570   -1.6760 C   0  0  2  0  0  0  0  0  0  0  0  0
    2.3924    5.9925   -3.0348 O   0  0  0  0  0  0  0  0  0  0  0  0
    2.4192    4.1465   -1.4701 C   0  0  2  0  0  0  0  0  0  0  0  0
    2.0463    3.7417   -0.1532 O   0  0  0  0  0  0  0  0  0  0  0  0
    3.9148    3.8570   -1.6995 C   0  0  0  0  0  0  0  0  0  0  0  0
    4.2981    4.0247   -3.0906 O   0  0  0  0  0  0  0  0  0  0  0  0
   -1.6779   -0.7160   -0.0010 C   0  0  2  0  0  0  0  0  0  0  0  0
   -1.4956   -2.1414    0.3385 N   0  0  0  0  0  0  0  0  0  0  0  0
   -0.7713   -0.3278   -1.1716 C   0  0  0  0  0  0  0  0  0  0  0  0
   -0.8487    1.1712   -1.4365 C   0  0  2  0  0  0  0  0  0  0  0  0
   -0.0535    1.5184   -2.6209 N   0  0  0  0  0  0  0  0  0  0  0  0
   -0.3618    1.9168   -0.1722 C   0  0  2  0  0  0  0  0  0  0  0  0
   -1.3388    1.6656    0.9313 C   0  0  2  0  0  0  0  0  0  0  0  0
   -0.8974    2.3896    2.0651 O   0  0  0  0  0  0  0  0  0  0  0  0
   -1.4074    0.1785    1.2234 C   0  0  1  0  0  0  0  0  0  0  0  0
   -2.3807   -0.1261    2.2046 O   0  0  0  0  0  0  0  0  0  0  0  0
   -1.7574    2.4353    3.1987 C   0  0  1  0  0  0  0  0  0  0  0  0
   -0.9230    2.0860    4.4329 C   0  0  2  0  0  0  0  0  0  0  0  0
   -1.7155    1.3410    5.3383 O   0  0  0  0  0  0  0  0  0  0  0  0
   -0.5390    3.4695    4.9748 C   0  0  2  0  0  0  0  0  0  0  0  0
   -0.1772    3.4420    6.3557 O   0  0  0  0  0  0  0  0  0  0  0  0
   -1.8250    4.2441    4.6609 C   0  0  2  0  0  0  0  0  0  0  0  0
   -2.2303    3.7631    3.3871 O   0  0  0  0  0  0  0  0  0  0  0  0
   -1.6453    5.7647    4.5849 C   0  0  0  0  0  0  0  0  0  0  0  0
   -0.7567    6.1324    3.5513 O   0  0  0  0  0  0  0  0  0  0  0  0
    1.2223    3.3185    6.6012 C   0  0  2  0  0  0  0  0  0  0  0  0
    1.5519    2.0472    7.3982 C   0  0  2  0  0  0  0  0  0  0  0  0
    1.0193    0.8510    6.7248 N   0  0  0  0  0  0  0  0  0  0  0  0
    1.0435    2.1518    8.8439 C   0  0  1  0  0  0  0  0  0  0  0  0
    1.4493    0.9954    9.5501 O   0  0  0  0  0  0  0  0  0  0  0  0
    1.6572    3.4078    9.4855 C   0  0  2  0  0  0  0  0  0  0  0  0
    1.1857    3.5756   10.8099 O   0  0  0  0  0  0  0  0  0  0  0  0
    1.3542    4.6635    8.6424 C   0  0  1  0  0  0  0  0  0  0  0  0
    1.7177    4.4745    7.2729 O   0  0  0  0  0  0  0  0  0  0  0  0
   -0.0916    5.1608    8.7888 C   0  0  0  0  0  0  0  0  0  0  0  0
   -1.0448    4.0394    8.8088 N   0  0  0  0  0  0  0  0  0  0  0  0
  1  3  1  0  0  0  0
  1  2  1  6  0  0  0
  3  4  1  6  0  0  0
  5  6  1  1  0  0  0
  5  3  1  0  0  0  0
  7  9  1  0  0  0  0
  7  5  1  0  0  0  0
  7  8  1  6  0  0  0
  9 10  1  0  0  0  0
  9 11  1  1  0  0  0
 10  1  1  0  0  0  0
 11 12  1  0  0  0  0
 13 14  1  1  0  0  0
 13 21  1  0  0  0  0
 15 13  1  0  0  0  0
 16 15  1  0  0  0  0
 16 18  1  0  0  0  0
 16 17  1  6  0  0  0
 18  2  1  6  0  0  0
 18 19  1  0  0  0  0
 19 21  1  0  0  0  0
 19 20  1  1  0  0  0
 21 22  1  1  0  0  0
 23 20  1  6  0  0  0
 23 29  1  0  0  0  0
 23 24  1  0  0  0  0
 24 26  1  0  0  0  0
 24 25  1  1  0  0  0
 26 27  1  1  0  0  0
 28 26  1  0  0  0  0
 28 30  1  6  0  0  0
 29 28  1  0  0  0  0
 30 31  1  0  0  0  0
 32 27  1  1  0  0  0
 32 40  1  0  0  0  0
 32 33  1  0  0  0  0
 33 35  1  0  0  0  0
 33 34  1  6  0  0  0
 35 37  1  0  0  0  0
 35 36  1  1  0  0  0
 37 38  1  1  0  0  0
 39 37  1  0  0  0  0
 39 41  1  6  0  0  0
 40 39  1  0  0  0  0
 42 41  1  0  0  0  0
M  END
>  <CHROM.1>
-152.35395460,-162.62996314,-141.28957539,-130.77943909,57.69617324,-173.74300586
-68.80232178,177.24117191,60.00489411,172.57337699,131.36651487,66.34496804
-166.06257388,94.56689807,-119.63141188,61.92368208,-178.72509628,-98.29554541
-171.88991920,63.57597675,-41.05672232,-57.88765763,0.16539342,3.15964927
2.90061100,-1.45562076,1.13196529,1.50787191

>  <Name>
lig.pdb

>  <RI>
224

>  <Rbt.Current_Directory>
/home/itssahil/PROJECTS/Mol_Feturizer/New_Systems/rnas/2mxs

>  <Rbt.Executable>
rbdock ($Id: //depot/dev/client3/rdock/2013.1/src/exe/rbdock.cxx#4 $)

>  <Rbt.Library>
libRbt.so (2013.1, Build901 2013/11/27)

>  <Rbt.Parameter_File>
/export/apps/rDock/src/rDock_2013.1_src/data/scripts/dock_solv.prm

>  <Rbt.Receptor>
prm/pocket_docking_2.prm

>  <SCORE>
-39.6763

>  <SCORE.INTER>
-44.7055

>  <SCORE.INTER.CONST>
1

>  <SCORE.INTER.POLAR>
-5.84413

>  <SCORE.INTER.ROT>
9

>  <SCORE.INTER.SOLV>
15.036

>  <SCORE.INTER.VDW>
-24.9352

>  <SCORE.INTER.norm>
-1.06442

>  <SCORE.INTRA>
3.24559

>  <SCORE.INTRA.DIHEDRAL>
8.23229

>  <SCORE.INTRA.DIHEDRAL.0>
30.1357

>  <SCORE.INTRA.POLAR>
-1.40917

>  <SCORE.INTRA.POLAR.0>
-0.631696

>  <SCORE.INTRA.REPUL>
0

>  <SCORE.INTRA.REPUL.0>
0

>  <SCORE.INTRA.SOLV>
2.55515

>  <SCORE.INTRA.SOLV.lig_0>
-55.904

>  <SCORE.INTRA.VDW>
2.64305

>  <SCORE.INTRA.VDW.0>
-8.21197

>  <SCORE.INTRA.norm>
0.0772759

>  <SCORE.RESTR>
1.7836

>  <SCORE.RESTR.CAVITY>
1.7836

>  <SCORE.RESTR.norm>
0.0424667

>  <SCORE.SYSTEM>
0

>  <SCORE.SYSTEM.CONST>
0

>  <SCORE.SYSTEM.DIHEDRAL>
0

>  <SCORE.SYSTEM.SOLV>
0

>  <SCORE.SYSTEM.norm>
0

>  <SCORE.heavy>
42

>  <SCORE.norm>
-0.944673

>  <RMSD>
1.089

$$$$
lig.pdb
 OpenBabel11021811453D
libRbt.so/2013.1/901 2013/11/27
 42 45  0  0  0  0  0  0  0  0999 V2000
   -0.0007    3.6174    0.5012 C   0  0  2  0  0  0  0  0  0  0  0  0
   -0.8044    2.8029   -0.3546 O   0  0  0  0  0  0  0  0  0  0  0  0
   -0.3196    5.1061    0.2972 C   0  0  2  0  0  0  0  0  0  0  0  0
   -1.7598    5.3680    0.4750 N   0  0  0  0  0  0  0  0  0  0  0  0
    0.1624    5.5885   -1.0771 C   0  0  1  0  0  0  0  0  0  0  0  0
   -0.0082    6.9899   -1.1693 O   0  0  0  0  0  0  0  0  0  0  0  0
    1.6464    5.2425   -1.2720 C   0  0  2  0  0  0  0  0  0  0  0  0
    2.0289    5.5510   -2.5986 O   0  0  0  0  0  0  0  0  0  0  0  0
    1.9227    3.7533   -0.9818 C   0  0  2  0  0  0  0  0  0  0  0  0
    1.3850    3.3655    0.2821 O   0  0  0  0  0  0  0  0  0  0  0  0
    3.4484    3.5397   -0.9858 C   0  0  0  0  0  0  0  0  0  0  0  0
    3.8107    2.1709   -0.6611 O   0  0  0  0  0  0  0  0  0  0  0  0
   -1.6846   -1.4092   -0.2358 C   0  0  2  0  0  0  0  0  0  0  0  0
   -1.3336   -2.8143    0.0523 N   0  0  0  0  0  0  0  0  0  0  0  0
   -0.7257   -0.8238   -1.2753 C   0  0  0  0  0  0  0  0  0  0  0  0
   -0.9920    0.6637   -1.4739 C   0  0  2  0  0  0  0  0  0  0  0  0
   -0.1352    1.1940   -2.5418 N   0  0  0  0  0  0  0  0  0  0  0  0
   -0.7552    1.3868   -0.1276 C   0  0  2  0  0  0  0  0  0  0  0  0
   -1.7962    0.9312    0.8441 C   0  0  2  0  0  0  0  0  0  0  0  0
   -1.5871    1.6350    2.0546 O   0  0  0  0  0  0  0  0  0  0  0  0
   -1.6780   -0.5666    1.0536 C   0  0  1  0  0  0  0  0  0  0  0  0
   -2.6948   -1.0666    1.9017 O   0  0  0  0  0  0  0  0  0  0  0  0
   -2.6389    1.6310    3.0141 C   0  0  1  0  0  0  0  0  0  0  0  0
   -2.0431    1.2101    4.3592 C   0  0  2  0  0  0  0  0  0  0  0  0
   -2.9876    0.4276    5.0652 O   0  0  0  0  0  0  0  0  0  0  0  0
   -1.7632    2.5599    5.0336 C   0  0  2  0  0  0  0  0  0  0  0  0
   -1.6586    2.4576    6.4540 O   0  0  0  0  0  0  0  0  0  0  0  0
   -2.9701    3.3627    4.5326 C   0  0  2  0  0  0  0  0  0  0  0  0
   -3.1373    2.9520    3.1829 O   0  0  0  0  0  0  0  0  0  0  0  0
   -2.7786    4.8833    4.5704 C   0  0  0  0  0  0  0  0  0  0  0  0
   -3.8917    5.5613    4.0276 O   0  0  0  0  0  0  0  0  0  0  0  0
   -0.6384    1.5727    6.9126 C   0  0  2  0  0  0  0  0  0  0  0  0
   -0.6079    1.4829    8.4460 C   0  0  2  0  0  0  0  0  0  0  0  0
   -1.9268    1.0999    8.9770 N   0  0  0  0  0  0  0  0  0  0  0  0
   -0.1109    2.7963    9.0685 C   0  0  1  0  0  0  0  0  0  0  0  0
   -0.0218    2.6265   10.4699 O   0  0  0  0  0  0  0  0  0  0  0  0
    1.2750    3.1177    8.4838 C   0  0  2  0  0  0  0  0  0  0  0  0
    1.7619    4.3453    8.9939 O   0  0  0  0  0  0  0  0  0  0  0  0
    1.2296    3.1547    6.9423 C   0  0  1  0  0  0  0  0  0  0  0  0
    0.6345    1.9701    6.4078 O   0  0  0  0  0  0  0  0  0  0  0  0
    0.5767    4.4274    6.3829 C   0  0  0  0  0  0  0  0  0  0  0  0
    1.5072    5.5672    6.4177 N   0  0  0  0  0  0  0  0  0  0  0  0
  1  3  1  0  0  0  0
  1  2  1  6  0  0  0
  3  4  1  6  0  0  0
  5  6  1  1  0  0  0
  5  3  1  0  0  0  0
  7  9  1  0  0  0  0
  7  5  1  0  0  0  0
  7  8  1  6  0  0  0
  9 10  1  0  0  0  0
  9 11  1  1  0  0  0
 10  1  1  0  0  0  0
 11 12  1  0  0  0  0
 13 14  1  1  0  0  0
 13 21  1  0  0  0  0
 15 13  1  0  0  0  0
 16 15  1  0  0  0  0
 16 18  1  0  0  0  0
 16 17  1  6  0  0  0
 18  2  1  6  0  0  0
 18 19  1  0  0  0  0
 19 21  1  0  0  0  0
 19 20  1  1  0  0  0
 21 22  1  1  0  0  0
 23 20  1  6  0  0  0
 23 29  1  0  0  0  0
 23 24  1  0  0  0  0
 24 26  1  0  0  0  0
 24 25  1  1  0  0  0
 26 27  1  1  0  0  0
 28 26  1  0  0  0  0
 28 30  1  6  0  0  0
 29 28  1  0  0  0  0
 30 31  1  0  0  0  0
 32 27  1  1  0  0  0
 32 40  1  0  0  0  0
 32 33  1  0  0  0  0
 33 35  1  0  0  0  0
 33 34  1  1  0  0  0
 35 37  1  0  0  0  0
 35 36  1  1  0  0  0
 37 38  1  1  0  0  0
 39 37  1  0  0  0  0
 39 41  1  1  0  0  0
 40 39  1  0  0  0  0
 42 41  1  0  0  0  0
M  END
>  <CHROM.1>
-149.66818983,-170.94739105,61.70691076,-163.91637078,59.67024613,59.49567432
177.44233415,-61.30663888,-171.06346153,164.44746198,128.98487863,167.56424200
72.01359878,58.69763101,-178.46151311,176.66237735,174.03534781,73.32084269
-64.92183452,171.96588276,78.66522784,-48.92210103,-0.52414150,2.62768171
2.87922213,-1.38406020,1.06322422,1.40468572

>  <Name>
lig.pdb

>  <RI>
0

>  <Rbt.Current_Directory>
/home/itssahil/PROJECTS/Mol_Feturizer/New_Systems/rnas/2mxs

>  <Rbt.Executable>
rbdock ($Id: //depot/dev/client3/rdock/2013.1/src/exe/rbdock.cxx#4 $)

>  <Rbt.Library>
libRbt.so (2013.1, Build901 2013/11/27)

>  <Rbt.Parameter_File>
/export/apps/rDock/src/rDock_2013.1_src/data/scripts/dock_solv.prm

>  <Rbt.Receptor>
prm/pocket_docking_3.prm

>  <SCORE>
-49.8819

>  <SCORE.INTER>
-48.4059

>  <SCORE.INTER.CONST>
1

>  <SCORE.INTER.POLAR>
-7.59357

>  <SCORE.INTER.ROT>
9

>  <SCORE.INTER.SOLV>
18.5571

>  <SCORE.INTER.VDW>
-22.7444

>  <SCORE.INTER.norm>
-1.15252

>  <SCORE.INTRA>
-1.47606

>  <SCORE.INTRA.DIHEDRAL>
-12.1191

>  <SCORE.INTRA.DIHEDRAL.0>
30.1357

>  <SCORE.INTRA.POLAR>
0.413855

>  <SCORE.INTRA.POLAR.0>
-0.631696

>  <SCORE.INTRA.REPUL>
0.0560598

>  <SCORE.INTRA.REPUL.0>
0

>  <SCORE.INTRA.SOLV>
-1.17287

>  <SCORE.INTRA.SOLV.lig_0>
-55.904

>  <SCORE.INTRA.VDW>
3.48251

>  <SCORE.INTRA.VDW.0>
-8.21197

>  <SCORE.INTRA.norm>
-0.0351442

>  <SCORE.RESTR>
0

>  <SCORE.RESTR.CAVITY>
0

>  <SCORE.RESTR.norm>
0

>  <SCORE.SYSTEM>
0

>  <SCORE.SYSTEM.CONST>
0

>  <SCORE.SYSTEM.DIHEDRAL>
0

>  <SCORE.SYSTEM.SOLV>
0

>  <SCORE.SYSTEM.norm>
0

>  <SCORE.heavy>
42

>  <SCORE.norm>
-1.18766

>  <RMSD>
1.103

$$$$
lig.pdb
 OpenBabel11021811453D
libRbt.so/2013.1/901 2013/11/27
 42 45  0  0  0  0  0  0  0  0999 V2000
    0.4444    3.7593    0.3363 C   0  0  2  0  0  0  0  0  0  0  0  0
   -0.2646    2.9106   -0.5684 O   0  0  0  0  0  0  0  0  0  0  0  0
   -0.0096    5.2191    0.1869 C   0  0  2  0  0  0  0  0  0  0  0  0
   -1.4708    5.3376    0.3456 N   0  0  0  0  0  0  0  0  0  0  0  0
    0.4478    5.8026   -1.1562 C   0  0  1  0  0  0  0  0  0  0  0  0
    0.1477    7.1846   -1.1945 O   0  0  0  0  0  0  0  0  0  0  0  0
    1.9607    5.6052   -1.3345 C   0  0  2  0  0  0  0  0  0  0  0  0
    2.3347    6.0043   -2.6392 O   0  0  0  0  0  0  0  0  0  0  0  0
    2.3711    4.1373   -1.0998 C   0  0  2  0  0  0  0  0  0  0  0  0
    1.8512    3.6474    0.1358 O   0  0  0  0  0  0  0  0  0  0  0  0
    3.9099    4.0673   -1.0811 C   0  0  0  0  0  0  0  0  0  0  0  0
    4.4809    4.2102   -2.4092 O   0  0  0  0  0  0  0  0  0  0  0  0
   -1.4895   -1.1702    0.0459 C   0  0  2  0  0  0  0  0  0  0  0  0
   -1.2200   -2.5849    0.3719 N   0  0  0  0  0  0  0  0  0  0  0  0
   -0.7035   -0.7521   -1.1993 C   0  0  0  0  0  0  0  0  0  0  0  0
   -0.8651    0.7408   -1.4601 C   0  0  2  0  0  0  0  0  0  0  0  0
   -0.1895    1.1132   -2.7094 N   0  0  0  0  0  0  0  0  0  0  0  0
   -0.3027    1.5132   -0.2442 C   0  0  2  0  0  0  0  0  0  0  0  0
   -1.1702    1.2288    0.9399 C   0  0  2  0  0  0  0  0  0  0  0  0
   -0.6634    1.9770    2.0297 O   0  0  0  0  0  0  0  0  0  0  0  0
   -1.1520   -0.2581    1.2403 C   0  0  1  0  0  0  0  0  0  0  0  0
   -2.0241   -0.5964    2.3023 O   0  0  0  0  0  0  0  0  0  0  0  0
   -1.5747    2.3524    3.0571 C   0  0  1  0  0  0  0  0  0  0  0  0
   -0.9141    2.0458    4.4029 C   0  0  2  0  0  0  0  0  0  0  0  0
   -1.8995    1.6064    5.3187 O   0  0  0  0  0  0  0  0  0  0  0  0
   -0.3035    3.4001    4.7876 C   0  0  2  0  0  0  0  0  0  0  0  0
   -0.0518    3.5157    6.1884 O   0  0  0  0  0  0  0  0  0  0  0  0
   -1.3860    4.3427    4.2476 C   0  0  2  0  0  0  0  0  0  0  0  0
   -1.7882    3.7577    3.0170 O   0  0  0  0  0  0  0  0  0  0  0  0
   -0.9049    5.7745    3.9846 C   0  0  0  0  0  0  0  0  0  0  0  0
   -1.9857    6.6786    3.8975 O   0  0  0  0  0  0  0  0  0  0  0  0
    1.3092    3.3177    6.5661 C   0  0  2  0  0  0  0  0  0  0  0  0
    1.5075    1.9878    7.3091 C   0  0  2  0  0  0  0  0  0  0  0  0
    1.0044    0.8582    6.5097 N   0  0  0  0  0  0  0  0  0  0  0  0
    0.8558    2.0270    8.6995 C   0  0  1  0  0  0  0  0  0  0  0  0
    1.1435    0.8138    9.3674 O   0  0  0  0  0  0  0  0  0  0  0  0
    1.4450    3.2146    9.4794 C   0  0  2  0  0  0  0  0  0  0  0  0
    0.8449    3.3226   10.7571 O   0  0  0  0  0  0  0  0  0  0  0  0
    1.2773    4.5306    8.6923 C   0  0  1  0  0  0  0  0  0  0  0  0
    1.7740    4.4089    7.3574 O   0  0  0  0  0  0  0  0  0  0  0  0
   -0.1567    5.0798    8.7229 C   0  0  0  0  0  0  0  0  0  0  0  0
   -0.5548    5.4636   10.0869 N   0  0  0  0  0  0  0  0  0  0  0  0
  1  3  1  0  0  0  0
  1  2  1  6  0  0  0
  3  4  1  6  0  0  0
  5  6  1  1  0  0  0
  5  3  1  0  0  0  0
  7  9  1  0  0  0  0
  7  5  1  0  0  0  0
  7  8  1  6  0  0  0
  9 10  1  0  0  0  0
  9 11  1  1  0  0  0
 10  1  1  0  0  0  0
 11 12  1  0  0  0  0
 13 14  1  1  0  0  0
 13 21  1  0  0  0  0
 15 13  1  0  0  0  0
 16 15  1  0  0  0  0
 16 18  1  0  0  0  0
 16 17  1  6  0  0  0
 18  2  1  6  0  0  0
 18 19  1  0  0  0  0
 19 21  1  0  0  0  0
 19 20  1  1  0  0  0
 21 22  1  1  0  0  0
 23 20  1  6  0  0  0
 23 29  1  0  0  0  0
 23 24  1  0  0  0  0
 24 26  1  0  0  0  0
 24 25  1  1  0  0  0
 26 27  1  1  0  0  0
 28 26  1  0  0  0  0
 28 30  1  6  0  0  0
 29 28  1  0  0  0  0
 30 31  1  0  0  0  0
 32 27  1  1  0  0  0
 32 40  1  0  0  0  0
 32 33  1  0  0  0  0
 33 35  1  0  0  0  0
 33 34  1  6  0  0  0
 35 37  1  0  0  0  0
 35 36  1  1  0  0  0
 37 38  1  1  0  0  0
 39 37  1  0  0  0  0
 39 41  1  6  0  0  0
 40 39  1  0  0  0  0
 42 41  1  0  0  0  0
M  END
>  <CHROM.1>
-169.19011652,-159.02205550,179.60628124,-159.14907241,-168.51476373,-174.84330029
-73.81505702,-174.12615257,48.29487962,153.08230908,133.81276077,-65.42292800
-172.77398203,101.15142338,-108.82654786,-161.63427375,-71.03158712,-97.87280497
57.43558453,59.65803245,64.70210101,-158.21122664,0.14034709,3.04651084,2.94605553
-1.49327509,1.24602221,1.47652875

>  <Name>
lig.pdb

>  <RI>
224

>  <Rbt.Current_Directory>
/home/itssahil/PROJECTS/Mol_Feturizer/New_Systems/rnas/2mxs

>  <Rbt.Executable>
rbdock ($Id: //depot/dev/client3/rdock/2013.1/src/exe/rbdock.cxx#4 $)

>  <Rbt.Library>
libRbt.so (2013.1, Build901 2013/11/27)

>  <Rbt.Parameter_File>
/export/apps/rDock/src/rDock_2013.1_src/data/scripts/dock_solv.prm

>  <Rbt.Receptor>
prm/pocket_docking_2.prm

>  <SCORE>
-41.5004

>  <SCORE.INTER>
-41.2858

>  <SCORE.INTER.CONST>
1

>  <SCORE.INTER.POLAR>
-5.48616

>  <SCORE.INTER.ROT>
9

>  <SCORE.INTER.SOLV>
16.0203

>  <SCORE.INTER.VDW>
-24.1768

>  <SCORE.INTER.norm>
-0.982994

>  <SCORE.INTRA>
-1.73369

>  <SCORE.INTRA.DIHEDRAL>
3.84698

>  <SCORE.INTRA.DIHEDRAL.0>
30.1357

>  <SCORE.INTRA.POLAR>
-1.97257

>  <SCORE.INTRA.POLAR.0>
-0.631696

>  <SCORE.INTRA.REPUL>
0.0356762

>  <SCORE.INTRA.REPUL.0>
0

>  <SCORE.INTRA.SOLV>
0.405107

>  <SCORE.INTRA.SOLV.lig_0>
-55.904

>  <SCORE.INTRA.VDW>
2.66861

>  <SCORE.INTRA.VDW.0>
-8.21197

>  <SCORE.INTRA.norm>
-0.0412784

>  <SCORE.RESTR>
1.51902

>  <SCORE.RESTR.CAVITY>
1.51902

>  <SCORE.RESTR.norm>
0.0361671

>  <SCORE.SYSTEM>
0

>  <SCORE.SYSTEM.CONST>
0

>  <SCORE.SYSTEM.DIHEDRAL>
0

>  <SCORE.SYSTEM.SOLV>
0

>  <SCORE.SYSTEM.norm>
0

>  <SCORE.heavy>
42

>  <SCORE.norm>
-0.988106

>  <RMSD>
1.122

$$$$
lig.pdb
 OpenBabel11021811453D
libRbt.so/2013.1/901 2013/11/27
 42 45  0  0  0  0  0  0  0  0999 V2000
   -0.0582    3.6743    0.4629 C   0  0  2  0  0  0  0  0  0  0  0  0
   -0.7993    2.8816   -0.4666 O   0  0  0  0  0  0  0  0  0  0  0  0
   -0.4285    5.1594    0.3328 C   0  0  2  0  0  0  0  0  0  0  0  0
   -1.8832    5.3562    0.4728 N   0  0  0  0  0  0  0  0  0  0  0  0
    0.0807    5.7390   -0.9932 C   0  0  1  0  0  0  0  0  0  0  0  0
   -0.1419    7.1360   -1.0115 O   0  0  0  0  0  0  0  0  0  0  0  0
    1.5830    5.4609   -1.1535 C   0  0  2  0  0  0  0  0  0  0  0  0
    1.9981    5.8605   -2.4456 O   0  0  0  0  0  0  0  0  0  0  0  0
    1.9079    3.9687   -0.9389 C   0  0  2  0  0  0  0  0  0  0  0  0
    1.3431    3.4877    0.2804 O   0  0  0  0  0  0  0  0  0  0  0  0
    3.4401    3.8130   -0.8997 C   0  0  0  0  0  0  0  0  0  0  0  0
    3.8475    2.4206   -0.8258 O   0  0  0  0  0  0  0  0  0  0  0  0
   -1.7808   -1.3095   -0.4222 C   0  0  2  0  0  0  0  0  0  0  0  0
   -1.4731   -2.7250   -0.1361 N   0  0  0  0  0  0  0  0  0  0  0  0
   -0.7718   -0.7371   -1.4208 C   0  0  0  0  0  0  0  0  0  0  0  0
   -0.9963    0.7580   -1.6136 C   0  0  2  0  0  0  0  0  0  0  0  0
   -0.0896    1.2780   -2.6448 N   0  0  0  0  0  0  0  0  0  0  0  0
   -0.7912    1.4627   -0.2524 C   0  0  2  0  0  0  0  0  0  0  0  0
   -1.8767    1.0227    0.6768 C   0  0  2  0  0  0  0  0  0  0  0  0
   -1.6950    1.7101    1.9012 O   0  0  0  0  0  0  0  0  0  0  0  0
   -1.8009   -0.4794    0.8751 C   0  0  1  0  0  0  0  0  0  0  0  0
   -2.8588   -0.9631    1.6813 O   0  0  0  0  0  0  0  0  0  0  0  0
   -2.7446    1.6441    2.8607 C   0  0  1  0  0  0  0  0  0  0  0  0
   -2.1326    1.2081    4.1937 C   0  0  2  0  0  0  0  0  0  0  0  0
   -3.0486    0.3749    4.8790 O   0  0  0  0  0  0  0  0  0  0  0  0
   -1.8984    2.5482    4.9040 C   0  0  2  0  0  0  0  0  0  0  0  0
   -1.7882    2.4116    6.3210 O   0  0  0  0  0  0  0  0  0  0  0  0
   -3.1329    3.3221    4.4254 C   0  0  2  0  0  0  0  0  0  0  0  0
   -3.2879    2.9422    3.0652 O   0  0  0  0  0  0  0  0  0  0  0  0
   -2.9938    4.8469    4.5038 C   0  0  0  0  0  0  0  0  0  0  0  0
   -2.1207    5.3412    3.5105 O   0  0  0  0  0  0  0  0  0  0  0  0
   -0.7549    1.5293    6.7545 C   0  0  2  0  0  0  0  0  0  0  0  0
   -0.6833    1.4436    8.2867 C   0  0  2  0  0  0  0  0  0  0  0  0
   -1.9869    1.0602    8.8539 N   0  0  0  0  0  0  0  0  0  0  0  0
   -0.1716    2.7593    8.8923 C   0  0  1  0  0  0  0  0  0  0  0  0
   -0.0448    2.5933   10.2913 O   0  0  0  0  0  0  0  0  0  0  0  0
    1.1977    3.0810    8.2699 C   0  0  2  0  0  0  0  0  0  0  0  0
    1.6963    4.3107    8.7637 O   0  0  0  0  0  0  0  0  0  0  0  0
    1.1110    3.1139    6.7301 C   0  0  1  0  0  0  0  0  0  0  0  0
    0.5035    1.9271    6.2148 O   0  0  0  0  0  0  0  0  0  0  0  0
    0.4415    4.3842    6.1851 C   0  0  0  0  0  0  0  0  0  0  0  0
    1.3322    5.5504    6.2982 N   0  0  0  0  0  0  0  0  0  0  0  0
  1  3  1  0  0  0  0
  1  2  1  6  0  0  0
  3  4  1  6  0  0  0
  5  6  1  1  0  0  0
  5  3  1  0  0  0  0
  7  9  1  0  0  0  0
  7  5  1  0  0  0  0
  7  8  1  6  0  0  0
  9 10  1  0  0  0  0
  9 11  1  1  0  0  0
 10  1  1  0  0  0  0
 11 12  1  0  0  0  0
 13 14  1  1  0  0  0
 13 21  1  0  0  0  0
 15 13  1  0  0  0  0
 16 15  1  0  0  0  0
 16 18  1  0  0  0  0
 16 17  1  6  0  0  0
 18  2  1  6  0  0  0
 18 19  1  0  0  0  0
 19 21  1  0  0  0  0
 19 20  1  1  0  0  0
 21 22  1  1  0  0  0
 23 20  1  6  0  0  0
 23 29  1  0  0  0  0
 23 24  1  0  0  0  0
 24 26  1  0  0  0  0
 24 25  1  1  0  0  0
 26 27  1  1  0  0  0
 28 26  1  0  0  0  0
 28 30  1  6  0  0  0
 29 28  1  0  0  0  0
 30 31  1  0  0  0  0
 32 27  1  1  0  0  0
 32 40  1  0  0  0  0
 32 33  1  0  0  0  0
 33 35  1  0  0  0  0
 33 34  1  1  0  0  0
 35 37  1  0  0  0  0
 35 36  1  1  0  0  0
 37 38  1  1  0  0  0
 39 37  1  0  0  0  0
 39 41  1  1  0  0  0
 40 39  1  0  0  0  0
 42 41  1  0  0  0  0
M  END
>  <CHROM.1>
-152.47803852,-165.96214316,-177.19276492,64.67063728,-48.60497352,51.93184097
-174.61499609,-114.11860202,-170.54819589,168.71206775,128.45986830,70.53946372
55.68393035,57.49099170,179.32129866,72.56928786,169.17345524,72.16156445
61.90476761,64.74997370,73.82253323,71.62557780,-0.55652761,2.66846737,2.76589713
-1.39349365,1.04939496,1.43382247

>  <Name>
lig.pdb

>  <RI>
224

>  <Rbt.Current_Directory>
/home/itssahil/PROJECTS/Mol_Feturizer/New_Systems/rnas/2mxs

>  <Rbt.Executable>
rbdock ($Id: //depot/dev/client3/rdock/2013.1/src/exe/rbdock.cxx#4 $)

>  <Rbt.Library>
libRbt.so (2013.1, Build901 2013/11/27)

>  <Rbt.Parameter_File>
/export/apps/rDock/src/rDock_2013.1_src/data/scripts/dock_solv.prm

>  <Rbt.Receptor>
prm/pocket_docking_2.prm

>  <SCORE>
-47.6717

>  <SCORE.INTER>
-42.1378

>  <SCORE.INTER.CONST>
1

>  <SCORE.INTER.POLAR>
-6.06087

>  <SCORE.INTER.ROT>
9

>  <SCORE.INTER.SOLV>
17.296

>  <SCORE.INTER.VDW>
-23.2543

>  <SCORE.INTER.norm>
-1.00328

>  <SCORE.INTRA>
-5.54694

>  <SCORE.INTRA.DIHEDRAL>
-9.84468

>  <SCORE.INTRA.DIHEDRAL.0>
30.1357

>  <SCORE.INTRA.POLAR>
-1.0719

>  <SCORE.INTRA.POLAR.0>
-0.631696

>  <SCORE.INTRA.REPUL>
0

>  <SCORE.INTRA.REPUL.0>
0

>  <SCORE.INTRA.SOLV>
0.475088

>  <SCORE.INTRA.SOLV.lig_0>
-55.904

>  <SCORE.INTRA.VDW>
2.78232

>  <SCORE.INTRA.VDW.0>
-8.21197

>  <SCORE.INTRA.norm>
-0.13207

>  <SCORE.RESTR>
0.0130575

>  <SCORE.RESTR.CAVITY>
0.0130575

>  <SCORE.RESTR.norm>
0.000310893

>  <SCORE.SYSTEM>
0

>  <SCORE.SYSTEM.CONST>
0

>  <SCORE.SYSTEM.DIHEDRAL>
0

>  <SCORE.SYSTEM.SOLV>
0

>  <SCORE.SYSTEM.norm>
0

>  <SCORE.heavy>
42

>  <SCORE.norm>
-1.13504

>  <RMSD>
1.140

$$$$
lig.pdb
 OpenBabel11021811453D
libRbt.so/2013.1/901 2013/11/27
 42 45  0  0  0  0  0  0  0  0999 V2000
    0.4644    3.7456    0.2983 C   0  0  2  0  0  0  0  0  0  0  0  0
   -0.2695    2.8793   -0.5691 O   0  0  0  0  0  0  0  0  0  0  0  0
    0.0288    5.2064    0.1092 C   0  0  2  0  0  0  0  0  0  0  0  0
   -1.4282    5.3510    0.2844 N   0  0  0  0  0  0  0  0  0  0  0  0
    0.4749    5.7407   -1.2580 C   0  0  1  0  0  0  0  0  0  0  0  0
    0.1936    7.1250   -1.3358 O   0  0  0  0  0  0  0  0  0  0  0  0
    1.9822    5.5159   -1.4511 C   0  0  2  0  0  0  0  0  0  0  0  0
    2.3428    5.8683   -2.7729 O   0  0  0  0  0  0  0  0  0  0  0  0
    2.3753    4.0503   -1.1759 C   0  0  2  0  0  0  0  0  0  0  0  0
    1.8665    3.6070    0.0818 O   0  0  0  0  0  0  0  0  0  0  0  0
    3.9131    3.9586   -1.1765 C   0  0  0  0  0  0  0  0  0  0  0  0
    4.3800    2.5864   -1.2720 O   0  0  0  0  0  0  0  0  0  0  0  0
   -1.3423   -1.2422    0.0583 C   0  0  2  0  0  0  0  0  0  0  0  0
   -1.0190   -2.6468    0.3788 N   0  0  0  0  0  0  0  0  0  0  0  0
   -0.5894   -0.7962   -1.1976 C   0  0  0  0  0  0  0  0  0  0  0  0
   -0.8068    0.6903   -1.4545 C   0  0  2  0  0  0  0  0  0  0  0  0
   -0.1626    1.0868   -2.7129 N   0  0  0  0  0  0  0  0  0  0  0  0
   -0.2542    1.4812   -0.2459 C   0  0  2  0  0  0  0  0  0  0  0  0
   -1.0941    1.1659    0.9502 C   0  0  2  0  0  0  0  0  0  0  0  0
   -0.5980    1.9308    2.0335 O   0  0  0  0  0  0  0  0  0  0  0  0
   -1.0197   -0.3196    1.2487 C   0  0  1  0  0  0  0  0  0  0  0  0
   -1.8641   -0.6888    2.3228 O   0  0  0  0  0  0  0  0  0  0  0  0
   -1.5368    2.4159    2.9874 C   0  0  1  0  0  0  0  0  0  0  0  0
   -1.0344    2.0245    4.3787 C   0  0  2  0  0  0  0  0  0  0  0  0
   -2.1400    1.7112    5.2047 O   0  0  0  0  0  0  0  0  0  0  0  0
   -0.2918    3.2894    4.8301 C   0  0  2  0  0  0  0  0  0  0  0  0
   -0.1449    3.3684    6.2482 O   0  0  0  0  0  0  0  0  0  0  0  0
   -1.1981    4.3632    4.2154 C   0  0  2  0  0  0  0  0  0  0  0  0
   -1.5672    3.8371    2.9484 O   0  0  0  0  0  0  0  0  0  0  0  0
   -0.5200    5.7230    4.0117 C   0  0  0  0  0  0  0  0  0  0  0  0
    0.3381    6.0424    5.0862 O   0  0  0  0  0  0  0  0  0  0  0  0
    1.2036    3.4711    6.7012 C   0  0  2  0  0  0  0  0  0  0  0  0
    1.7576    2.1125    7.1564 C   0  0  2  0  0  0  0  0  0  0  0  0
    1.6270    1.1065    6.0892 N   0  0  0  0  0  0  0  0  0  0  0  0
    1.0828    1.6456    8.4550 C   0  0  1  0  0  0  0  0  0  0  0  0
    1.6907    0.4379    8.8708 O   0  0  0  0  0  0  0  0  0  0  0  0
    1.2796    2.7340    9.5239 C   0  0  2  0  0  0  0  0  0  0  0  0
    0.6375    2.3716   10.7325 O   0  0  0  0  0  0  0  0  0  0  0  0
    0.7601    4.0983    9.0256 C   0  0  1  0  0  0  0  0  0  0  0  0
    1.3089    4.4326    7.7488 O   0  0  0  0  0  0  0  0  0  0  0  0
   -0.7718    4.2079    9.0381 C   0  0  0  0  0  0  0  0  0  0  0  0
   -1.2455    5.2109    8.0707 N   0  0  0  0  0  0  0  0  0  0  0  0
  1  3  1  0  0  0  0
  1  2  1  6  0  0  0
  3  4  1  6  0  0  0
  5  6  1  1  0  0  0
  5  3  1  0  0  0  0
  7  9  1  0  0  0  0
  7  5  1  0  0  0  0
  7  8  1  6  0  0  0
  9 10  1  0  0  0  0
  9 11  1  1  0  0  0
 10  1  1  0  0  0  0
 11 12  1  0  0  0  0
 13 14  1  1  0  0  0
 13 21  1  0  0  0  0
 15 13  1  0  0  0  0
 16 15  1  0  0  0  0
 16 18  1  0  0  0  0
 16 17  1  6  0  0  0
 18  2  1  6  0  0  0
 18 19  1  0  0  0  0
 19 21  1  0  0  0  0
 19 20  1  1  0  0  0
 21 22  1  1  0  0  0
 23 20  1  6  0  0  0
 23 29  1  0  0  0  0
 23 24  1  0  0  0  0
 24 26  1  0  0  0  0
 24 25  1  1  0  0  0
 26 27  1  1  0  0  0
 28 26  1  0  0  0  0
 28 30  1  6  0  0  0
 29 28  1  0  0  0  0
 30 31  1  0  0  0  0
 32 27  1  1  0  0  0
 32 40  1  0  0  0  0
 32 33  1  0  0  0  0
 33 35  1  0  0  0  0
 33 34  1  6  0  0  0
 35 37  1  0  0  0  0
 35 36  1  1  0  0  0
 37 38  1  1  0  0  0
 39 37  1  0  0  0  0
 39 41  1  6  0  0  0
 40 39  1  0  0  0  0
 42 41  1  0  0  0  0
M  END
>  <CHROM.1>
-166.91465990,-162.73325403,-60.42920591,-59.12104605,173.41466080,-52.54468972
-165.10795224,55.42471551,51.54137292,145.36675981,128.99743619,-64.81401796
63.91794513,122.37639518,-98.70142301,-39.01523613,72.53193862,163.29260665
-52.17848622,-54.84968379,-155.66252433,-169.04743746,0.20819850,2.87726608
2.92105265,-1.45778136,1.29279383,1.46011876

>  <Name>
lig.pdb

>  <RI>
0

>  <Rbt.Current_Directory>
/home/itssahil/PROJECTS/Mol_Feturizer/New_Systems/rnas/2mxs

>  <Rbt.Executable>
rbdock ($Id: //depot/dev/client3/rdock/2013.1/src/exe/rbdock.cxx#4 $)

>  <Rbt.Library>
libRbt.so (2013.1, Build901 2013/11/27)

>  <Rbt.Parameter_File>
/export/apps/rDock/src/rDock_2013.1_src/data/scripts/dock_solv.prm

>  <Rbt.Receptor>
prm/pocket_docking_3.prm

>  <SCORE>
-52.5383

>  <SCORE.INTER>
-51.4022

>  <SCORE.INTER.CONST>
1

>  <SCORE.INTER.POLAR>
-7.37971

>  <SCORE.INTER.ROT>
9

>  <SCORE.INTER.SOLV>
19.8838

>  <SCORE.INTER.VDW>
-25.897

>  <SCORE.INTER.norm>
-1.22386

>  <SCORE.INTRA>
-1.13607

>  <SCORE.INTRA.DIHEDRAL>
3.04294

>  <SCORE.INTRA.DIHEDRAL.0>
30.1357

>  <SCORE.INTRA.POLAR>
-1.11746

>  <SCORE.INTRA.POLAR.0>
-0.631696

>  <SCORE.INTRA.REPUL>
0

>  <SCORE.INTRA.REPUL.0>
0

>  <SCORE.INTRA.SOLV>
-0.0792388

>  <SCORE.INTRA.SOLV.lig_0>
-55.904

>  <SCORE.INTRA.VDW>
1.18146

>  <SCORE.INTRA.VDW.0>
-8.21197

>  <SCORE.INTRA.norm>
-0.0270492

>  <SCORE.RESTR>
0

>  <SCORE.RESTR.CAVITY>
0

>  <SCORE.RESTR.norm>
0

>  <SCORE.SYSTEM>
0

>  <SCORE.SYSTEM.CONST>
0

>  <SCORE.SYSTEM.DIHEDRAL>
0

>  <SCORE.SYSTEM.SOLV>
0

>  <SCORE.SYSTEM.norm>
0

>  <SCORE.heavy>
42

>  <SCORE.norm>
-1.25091

>  <RMSD>
1.268

$$$$
lig.pdb
 OpenBabel11021811453D
libRbt.so/2013.1/901 2013/11/27
 42 45  0  0  0  0  0  0  0  0999 V2000
    0.9567    4.3142    1.1118 C   0  0  2  0  0  0  0  0  0  0  0  0
   -0.0593    3.5132    0.5055 O   0  0  0  0  0  0  0  0  0  0  0  0
    0.3844    5.6598    1.5826 C   0  0  2  0  0  0  0  0  0  0  0  0
   -0.7709    5.4595    2.4768 N   0  0  0  0  0  0  0  0  0  0  0  0
    0.0092    6.5460    0.3879 C   0  0  1  0  0  0  0  0  0  0  0  0
   -0.3683    7.8273    0.8539 O   0  0  0  0  0  0  0  0  0  0  0  0
    1.2035    6.6837   -0.5684 C   0  0  2  0  0  0  0  0  0  0  0  0
    0.7924    7.3690   -1.7357 O   0  0  0  0  0  0  0  0  0  0  0  0
    1.7851    5.3070   -0.9487 C   0  0  2  0  0  0  0  0  0  0  0  0
    2.0433    4.5174    0.2119 O   0  0  0  0  0  0  0  0  0  0  0  0
    3.0967    5.5385   -1.7229 C   0  0  0  0  0  0  0  0  0  0  0  0
    4.0545    4.4670   -1.5107 O   0  0  0  0  0  0  0  0  0  0  0  0
   -0.3867   -0.7271   -0.1607 C   0  0  2  0  0  0  0  0  0  0  0  0
    0.1250   -2.1099   -0.0817 N   0  0  0  0  0  0  0  0  0  0  0  0
    0.5550    0.1416   -0.9984 C   0  0  0  0  0  0  0  0  0  0  0  0
    0.1102    1.5990   -0.9681 C   0  0  2  0  0  0  0  0  0  0  0  0
    0.9600    2.4068   -1.8519 N   0  0  0  0  0  0  0  0  0  0  0  0
    0.1595    2.0950    0.4958 C   0  0  2  0  0  0  0  0  0  0  0  0
   -0.8758    1.3557    1.2813 C   0  0  2  0  0  0  0  0  0  0  0  0
   -0.8424    1.8536    2.6062 O   0  0  0  0  0  0  0  0  0  0  0  0
   -0.5770   -0.1312    1.2469 C   0  0  1  0  0  0  0  0  0  0  0  0
   -1.5742   -0.8892    1.9058 O   0  0  0  0  0  0  0  0  0  0  0  0
   -1.9598    1.5812    3.4453 C   0  0  1  0  0  0  0  0  0  0  0  0
   -1.4240    1.1211    4.8027 C   0  0  2  0  0  0  0  0  0  0  0  0
   -2.2822    0.1283    5.3326 O   0  0  0  0  0  0  0  0  0  0  0  0
   -1.4371    2.4195    5.6207 C   0  0  2  0  0  0  0  0  0  0  0  0
   -1.4439    2.1860    7.0293 O   0  0  0  0  0  0  0  0  0  0  0  0
   -2.7125    3.0684    5.0689 C   0  0  2  0  0  0  0  0  0  0  0  0
   -2.6869    2.7809    3.6778 O   0  0  0  0  0  0  0  0  0  0  0  0
   -2.7843    4.5876    5.2622 C   0  0  0  0  0  0  0  0  0  0  0  0
   -3.9932    5.1188    4.7626 O   0  0  0  0  0  0  0  0  0  0  0  0
   -0.4277    1.2974    7.4894 C   0  0  2  0  0  0  0  0  0  0  0  0
   -0.3319    1.2851    9.0227 C   0  0  2  0  0  0  0  0  0  0  0  0
   -1.6354    0.9669    9.6289 N   0  0  0  0  0  0  0  0  0  0  0  0
    0.2259    2.6141    9.5540 C   0  0  1  0  0  0  0  0  0  0  0  0
    0.3725    2.5135   10.9572 O   0  0  0  0  0  0  0  0  0  0  0  0
    1.5925    2.8662    8.8946 C   0  0  2  0  0  0  0  0  0  0  0  0
    2.1330    4.1041    9.3187 O   0  0  0  0  0  0  0  0  0  0  0  0
    1.4801    2.8258    7.3566 C   0  0  1  0  0  0  0  0  0  0  0  0
    0.8315    1.6326    6.9106 O   0  0  0  0  0  0  0  0  0  0  0  0
    0.8362    4.0861    6.7601 C   0  0  0  0  0  0  0  0  0  0  0  0
    1.7687    5.2247    6.7786 N   0  0  0  0  0  0  0  0  0  0  0  0
  1  3  1  0  0  0  0
  1  2  1  6  0  0  0
  3  4  1  6  0  0  0
  5  6  1  1  0  0  0
  5  3  1  0  0  0  0
  7  9  1  0  0  0  0
  7  5  1  0  0  0  0
  7  8  1  6  0  0  0
  9 10  1  0  0  0  0
  9 11  1  1  0  0  0
 10  1  1  0  0  0  0
 11 12  1  0  0  0  0
 13 14  1  1  0  0  0
 13 21  1  0  0  0  0
 15 13  1  0  0  0  0
 16 15  1  0  0  0  0
 16 18  1  0  0  0  0
 16 17  1  6  0  0  0
 18  2  1  6  0  0  0
 18 19  1  0  0  0  0
 19 21  1  0  0  0  0
 19 20  1  1  0  0  0
 21 22  1  6  0  0  0
 23 20  1  6  0  0  0
 23 29  1  0  0  0  0
 23 24  1  0  0  0  0
 24 26  1  0  0  0  0
 24 25  1  1  0  0  0
 26 27  1  1  0  0  0
 28 26  1  0  0  0  0
 28 30  1  6  0  0  0
 29 28  1  0  0  0  0
 30 31  1  0  0  0  0
 32 27  1  1  0  0  0
 32 40  1  0  0  0  0
 32 33  1  0  0  0  0
 33 35  1  0  0  0  0
 33 34  1  1  0  0  0
 35 37  1  0  0  0  0
 35 36  1  1  0  0  0
 37 38  1  6  0  0  0
 39 37  1  0  0  0  0
 39 41  1  1  0  0  0
 40 39  1  0  0  0  0
 42 41  1  0  0  0  0
M  END
>  <CHROM.1>
-122.99299866,-156.30917813,-53.86660099,-151.64744729,63.29459847,-72.85842619
148.90995451,-36.31025101,30.07902228,163.10540373,134.48326745,-59.43987738
-57.88815961,51.40541672,169.85644296,-178.61147804,171.48887656,-63.93738297
59.06410929,62.98266326,74.85716748,75.55364607,-0.07772765,3.00571583,3.39456199
-1.10624905,1.25131578,1.30705705

>  <Name>
lig.pdb

>  <RI>
0

>  <Rbt.Current_Directory>
/home/itssahil/PROJECTS/Mol_Feturizer/New_Systems/rnas/2mxs

>  <Rbt.Executable>
rbdock ($Id: //depot/dev/client3/rdock/2013.1/src/exe/rbdock.cxx#4 $)

>  <Rbt.Library>
libRbt.so (2013.1, Build901 2013/11/27)

>  <Rbt.Parameter_File>
/export/apps/rDock/src/rDock_2013.1_src/data/scripts/dock_solv.prm

>  <Rbt.Receptor>
prm/pocket_docking_3.prm

>  <SCORE>
-37.693

>  <SCORE.INTER>
-40.098

>  <SCORE.INTER.CONST>
1

>  <SCORE.INTER.POLAR>
-5.23323

>  <SCORE.INTER.ROT>
9

>  <SCORE.INTER.SOLV>
16.5445

>  <SCORE.INTER.VDW>
-24.4028

>  <SCORE.INTER.norm>
-0.954715

>  <SCORE.INTRA>
2.40502

>  <SCORE.INTRA.DIHEDRAL>
0.314729

>  <SCORE.INTRA.DIHEDRAL.0>
30.1357

>  <SCORE.INTRA.POLAR>
-0.124052

>  <SCORE.INTRA.POLAR.0>
-0.631696

>  <SCORE.INTRA.REPUL>
0

>  <SCORE.INTRA.REPUL.0>
0

>  <SCORE.INTRA.SOLV>
-0.0631404

>  <SCORE.INTRA.SOLV.lig_0>
-55.904

>  <SCORE.INTRA.VDW>
2.701

>  <SCORE.INTRA.VDW.0>
-8.21197

>  <SCORE.INTRA.norm>
0.0572624

>  <SCORE.RESTR>
0

>  <SCORE.RESTR.CAVITY>
0

>  <SCORE.RESTR.norm>
0

>  <SCORE.SYSTEM>
0

>  <SCORE.SYSTEM.CONST>
0

>  <SCORE.SYSTEM.DIHEDRAL>
0

>  <SCORE.SYSTEM.SOLV>
0

>  <SCORE.SYSTEM.norm>
0

>  <SCORE.heavy>
42

>  <SCORE.norm>
-0.897453

>  <RMSD>
1.293

$$$$
lig.pdb
 OpenBabel11021811453D
libRbt.so/2013.1/901 2013/11/27
 42 45  0  0  0  0  0  0  0  0999 V2000
    1.5365    3.8742    0.1635 C   0  0  2  0  0  0  0  0  0  0  0  0
    0.3942    3.3812   -0.5390 O   0  0  0  0  0  0  0  0  0  0  0  0
    1.5673    5.4100    0.1484 C   0  0  2  0  0  0  0  0  0  0  0  0
    0.3086    5.9696    0.6749 N   0  0  0  0  0  0  0  0  0  0  0  0
    1.8588    5.9403   -1.2613 C   0  0  1  0  0  0  0  0  0  0  0  0
    2.0309    7.3436   -1.2088 O   0  0  0  0  0  0  0  0  0  0  0  0
    3.1340    5.2917   -1.8207 C   0  0  2  0  0  0  0  0  0  0  0  0
    3.2977    5.6709   -3.1738 O   0  0  0  0  0  0  0  0  0  0  0  0
    3.0809    3.7543   -1.7121 C   0  0  2  0  0  0  0  0  0  0  0  0
    2.7376    3.3419   -0.3896 O   0  0  0  0  0  0  0  0  0  0  0  0
    4.4685    3.1995   -2.0864 C   0  0  0  0  0  0  0  0  0  0  0  0
    5.5001    3.6340   -1.1604 O   0  0  0  0  0  0  0  0  0  0  0  0
   -1.9141   -0.2158   -0.0243 C   0  0  2  0  0  0  0  0  0  0  0  0
   -2.0601   -1.6385    0.3430 N   0  0  0  0  0  0  0  0  0  0  0  0
   -0.9209   -0.0637   -1.1791 C   0  0  0  0  0  0  0  0  0  0  0  0
   -0.6578    1.4089   -1.4706 C   0  0  2  0  0  0  0  0  0  0  0  0
    0.2181    1.5454   -2.6411 N   0  0  0  0  0  0  0  0  0  0  0  0
   -0.0423    2.0549   -0.2075 C   0  0  2  0  0  0  0  0  0  0  0  0
   -1.0723    2.0506    0.8762 C   0  0  2  0  0  0  0  0  0  0  0  0
   -0.5034    2.6828    2.0081 O   0  0  0  0  0  0  0  0  0  0  0  0
   -1.4756    0.6225    1.1912 C   0  0  1  0  0  0  0  0  0  0  0  0
   -2.5115    0.5627    2.1536 O   0  0  0  0  0  0  0  0  0  0  0  0
   -1.3906    3.2197    2.9836 C   0  0  1  0  0  0  0  0  0  0  0  0
   -0.7875    2.9487    4.3635 C   0  0  2  0  0  0  0  0  0  0  0  0
   -1.8277    2.6761    5.2836 O   0  0  0  0  0  0  0  0  0  0  0  0
   -0.0519    4.2610    4.6663 C   0  0  2  0  0  0  0  0  0  0  0  0
    0.1855    4.4532    6.0612 O   0  0  0  0  0  0  0  0  0  0  0  0
   -1.0255    5.2634    4.0344 C   0  0  2  0  0  0  0  0  0  0  0  0
   -1.4623    4.6325    2.8387 O   0  0  0  0  0  0  0  0  0  0  0  0
   -0.3995    6.6180    3.6825 C   0  0  0  0  0  0  0  0  0  0  0  0
   -1.3786    7.5582    3.2942 O   0  0  0  0  0  0  0  0  0  0  0  0
    0.7551    3.3283    6.7277 C   0  0  2  0  0  0  0  0  0  0  0  0
    0.2328    3.1925    8.1660 C   0  0  2  0  0  0  0  0  0  0  0  0
   -1.2385    3.1392    8.1888 N   0  0  0  0  0  0  0  0  0  0  0  0
    0.7685    4.3216    9.0592 C   0  0  1  0  0  0  0  0  0  0  0  0
    0.3270    4.0971   10.3842 O   0  0  0  0  0  0  0  0  0  0  0  0
    2.3054    4.2999    9.0013 C   0  0  2  0  0  0  0  0  0  0  0  0
    2.8511    5.3515    9.7763 O   0  0  0  0  0  0  0  0  0  0  0  0
    2.8049    4.3886    7.5445 C   0  0  1  0  0  0  0  0  0  0  0  0
    2.1788    3.4064    6.7160 O   0  0  0  0  0  0  0  0  0  0  0  0
    2.6924    5.7990    6.9472 C   0  0  0  0  0  0  0  0  0  0  0  0
    3.5624    6.7520    7.6552 N   0  0  0  0  0  0  0  0  0  0  0  0
  1  3  1  0  0  0  0
  1  2  1  6  0  0  0
  3  4  1  6  0  0  0
  5  6  1  1  0  0  0
  5  3  1  0  0  0  0
  7  9  1  0  0  0  0
  7  5  1  0  0  0  0
  7  8  1  6  0  0  0
  9 10  1  0  0  0  0
  9 11  1  1  0  0  0
 10  1  1  0  0  0  0
 11 12  1  0  0  0  0
 13 14  1  1  0  0  0
 13 21  1  0  0  0  0
 15 13  1  0  0  0  0
 16 15  1  0  0  0  0
 16 18  1  0  0  0  0
 16 17  1  6  0  0  0
 18  2  1  6  0  0  0
 18 19  1  0  0  0  0
 19 21  1  0  0  0  0
 19 20  1  1  0  0  0
 21 22  1  1  0  0  0
 23 20  1  6  0  0  0
 23 29  1  0  0  0  0
 23 24  1  0  0  0  0
 24 26  1  0  0  0  0
 24 25  1  1  0  0  0
 26 27  1  1  0  0  0
 28 26  1  0  0  0  0
 28 30  1  6  0  0  0
 29 28  1  0  0  0  0
 30 31  1  0  0  0  0
 32 27  1  1  0  0  0
 32 40  1  0  0  0  0
 32 33  1  0  0  0  0
 33 35  1  0  0  0  0
 33 34  1  6  0  0  0
 35 37  1  0  0  0  0
 35 36  1  1  0  0  0
 37 38  1  1  0  0  0
 39 37  1  0  0  0  0
 39 41  1  6  0  0  0
 40 39  1  0  0  0  0
 42 41  1  0  0  0  0
M  END
>  <CHROM.1>
-148.33092741,-157.67922532,-87.50025313,-57.52201890,65.24997564,-33.66648207
63.34113705,106.18303741,58.97609976,158.39532942,141.34060448,169.05301173
72.21700684,48.77220351,-145.00473303,-171.17844483,-173.71757152,-84.54674745
-177.50430501,171.80485064,64.35566449,-177.78854903,0.67404791,3.73698072
2.78454631,-1.53827463,0.80102479,1.39760354

>  <Name>
lig.pdb

>  <RI>
4.11275e+07

>  <Rbt.Current_Directory>
/home/itssahil/PROJECTS/Mol_Feturizer/New_Systems/rnas/2mxs

>  <Rbt.Executable>
rbdock ($Id: //depot/dev/client3/rdock/2013.1/src/exe/rbdock.cxx#4 $)

>  <Rbt.Library>
libRbt.so (2013.1, Build901 2013/11/27)

>  <Rbt.Parameter_File>
/export/apps/rDock/src/rDock_2013.1_src/data/scripts/dock_solv.prm

>  <Rbt.Receptor>
prm/pocket_docking_8.prm

>  <SCORE>
-44.3928

>  <SCORE.INTER>
-42.0191

>  <SCORE.INTER.CONST>
1

>  <SCORE.INTER.POLAR>
-5.02946

>  <SCORE.INTER.ROT>
9

>  <SCORE.INTER.SOLV>
17.2017

>  <SCORE.INTER.VDW>
-26.5818

>  <SCORE.INTER.norm>
-1.00046

>  <SCORE.INTRA>
-2.37372

>  <SCORE.INTRA.DIHEDRAL>
0.231415

>  <SCORE.INTRA.DIHEDRAL.0>
30.1357

>  <SCORE.INTRA.POLAR>
-1.64232

>  <SCORE.INTRA.POLAR.0>
-0.631696

>  <SCORE.INTRA.REPUL>
0.0343926

>  <SCORE.INTRA.REPUL.0>
0

>  <SCORE.INTRA.SOLV>
0.936555

>  <SCORE.INTRA.SOLV.lig_0>
-55.904

>  <SCORE.INTRA.VDW>
2.45421

>  <SCORE.INTRA.VDW.0>
-8.21197

>  <SCORE.INTRA.norm>
-0.0565171

>  <SCORE.RESTR>
0

>  <SCORE.RESTR.CAVITY>
0

>  <SCORE.RESTR.norm>
0

>  <SCORE.SYSTEM>
0

>  <SCORE.SYSTEM.CONST>
0

>  <SCORE.SYSTEM.DIHEDRAL>
0

>  <SCORE.SYSTEM.SOLV>
0

>  <SCORE.SYSTEM.norm>
0

>  <SCORE.heavy>
42

>  <SCORE.norm>
-1.05697

>  <RMSD>
1.410

$$$$
lig.pdb
 OpenBabel11021811453D
libRbt.so/2013.1/901 2013/11/27
 42 45  0  0  0  0  0  0  0  0999 V2000
    0.0144    3.7676    0.3426 C   0  0  2  0  0  0  0  0  0  0  0  0
   -0.7295    3.0031   -0.6080 O   0  0  0  0  0  0  0  0  0  0  0  0
   -0.3384    5.2593    0.2414 C   0  0  2  0  0  0  0  0  0  0  0  0
   -1.7916    5.4696    0.3765 N   0  0  0  0  0  0  0  0  0  0  0  0
    0.1858    5.8607   -1.0689 C   0  0  1  0  0  0  0  0  0  0  0  0
   -0.0210    7.2603   -1.0591 O   0  0  0  0  0  0  0  0  0  0  0  0
    1.6859    5.5691   -1.2257 C   0  0  2  0  0  0  0  0  0  0  0  0
    2.1138    5.9909   -2.5065 O   0  0  0  0  0  0  0  0  0  0  0  0
    1.9927    4.0691   -1.0405 C   0  0  2  0  0  0  0  0  0  0  0  0
    1.4147    3.5691    0.1649 O   0  0  0  0  0  0  0  0  0  0  0  0
    3.5227    3.8953   -0.9951 C   0  0  0  0  0  0  0  0  0  0  0  0
    4.1473    4.2050   -2.2695 O   0  0  0  0  0  0  0  0  0  0  0  0
   -2.0616   -1.0892   -0.5109 C   0  0  2  0  0  0  0  0  0  0  0  0
   -1.9051   -2.5104   -0.1424 N   0  0  0  0  0  0  0  0  0  0  0  0
   -0.9127   -0.6457   -1.4200 C   0  0  0  0  0  0  0  0  0  0  0  0
   -0.9894    0.8524   -1.6901 C   0  0  2  0  0  0  0  0  0  0  0  0
    0.0570    1.2504   -2.6401 N   0  0  0  0  0  0  0  0  0  0  0  0
   -0.8630    1.5993   -0.3419 C   0  0  2  0  0  0  0  0  0  0  0  0
   -2.0697    1.2907    0.4852 C   0  0  2  0  0  0  0  0  0  0  0  0
   -1.9543    2.0160    1.6956 O   0  0  0  0  0  0  0  0  0  0  0  0
   -2.1416   -0.2021    0.7457 C   0  0  1  0  0  0  0  0  0  0  0  0
   -3.3122   -0.5621    1.4550 O   0  0  0  0  0  0  0  0  0  0  0  0
   -2.7711    1.6138    2.7901 C   0  0  1  0  0  0  0  0  0  0  0  0
   -1.8826    0.8658    3.7864 C   0  0  2  0  0  0  0  0  0  0  0  0
   -2.6235   -0.1857    4.3765 O   0  0  0  0  0  0  0  0  0  0  0  0
   -1.5085    1.9670    4.7875 C   0  0  2  0  0  0  0  0  0  0  0  0
   -1.0936    1.4482    6.0514 O   0  0  0  0  0  0  0  0  0  0  0  0
   -2.8221    2.7581    4.8156 C   0  0  2  0  0  0  0  0  0  0  0  0
   -3.2652    2.7634    3.4658 O   0  0  0  0  0  0  0  0  0  0  0  0
   -2.6787    4.2062    5.2982 C   0  0  0  0  0  0  0  0  0  0  0  0
   -2.3933    4.2682    6.6794 O   0  0  0  0  0  0  0  0  0  0  0  0
    0.1528    0.7554    6.0293 C   0  0  2  0  0  0  0  0  0  0  0  0
    0.3432   -0.1167    7.2796 C   0  0  2  0  0  0  0  0  0  0  0  0
   -0.7841   -1.0490    7.4476 N   0  0  0  0  0  0  0  0  0  0  0  0
    0.5494    0.7478    8.5325 C   0  0  1  0  0  0  0  0  0  0  0  0
    0.8044   -0.1045    9.6322 O   0  0  0  0  0  0  0  0  0  0  0  0
    1.7519    1.6758    8.2904 C   0  0  2  0  0  0  0  0  0  0  0  0
    1.9596    2.5274    9.4022 O   0  0  0  0  0  0  0  0  0  0  0  0
    1.5596    2.5056    7.0044 C   0  0  1  0  0  0  0  0  0  0  0  0
    1.2346    1.6735    5.8884 O   0  0  0  0  0  0  0  0  0  0  0  0
    0.5609    3.6607    7.1688 C   0  0  0  0  0  0  0  0  0  0  0  0
    0.4809    4.4783    5.9475 N   0  0  0  0  0  0  0  0  0  0  0  0
  1  3  1  0  0  0  0
  1  2  1  6  0  0  0
  3  4  1  6  0  0  0
  5  6  1  1  0  0  0
  5  3  1  0  0  0  0
  7  9  1  0  0  0  0
  7  5  1  0  0  0  0
  7  8  1  6  0  0  0
  9 10  1  0  0  0  0
  9 11  1  1  0  0  0
 10  1  1  0  0  0  0
 11 12  1  0  0  0  0
 13 14  1  1  0  0  0
 13 21  1  0  0  0  0
 15 13  1  0  0  0  0
 16 15  1  0  0  0  0
 16 18  1  0  0  0  0
 16 17  1  6  0  0  0
 18  2  1  6  0  0  0
 18 19  1  0  0  0  0
 19 21  1  0  0  0  0
 19 20  1  1  0  0  0
 21 22  1  6  0  0  0
 23 20  1  6  0  0  0
 23 29  1  0  0  0  0
 23 24  1  0  0  0  0
 24 26  1  0  0  0  0
 24 25  1  1  0  0  0
 26 27  1  1  0  0  0
 28 26  1  0  0  0  0
 28 30  1  6  0  0  0
 29 28  1  0  0  0  0
 30 31  1  0  0  0  0
 32 27  1  1  0  0  0
 32 40  1  0  0  0  0
 32 33  1  0  0  0  0
 33 35  1  0  0  0  0
 33 34  1  1  0  0  0
 35 37  1  0  0  0  0
 35 36  1  1  0  0  0
 37 38  1  1  0  0  0
 39 37  1  0  0  0  0
 39 41  1  1  0  0  0
 40 39  1  0  0  0  0
 42 41  1  0  0  0  0
M  END
>  <CHROM.1>
-150.60031961,-159.25358302,-56.24574604,-153.65433826,-175.92960238,-74.61938004
-66.96884119,-122.84254172,83.37132497,-162.85538979,104.51390265,-64.34556828
60.45006419,68.50142516,-163.18338759,-70.35620519,-56.75469495,31.93077631
-70.37587369,-170.82539747,176.05179256,75.74480788,-0.38847353,2.30580564
2.68983467,-1.44580246,0.99003659,1.71076723

>  <Name>
lig.pdb

>  <RI>
0

>  <Rbt.Current_Directory>
/home/itssahil/PROJECTS/Mol_Feturizer/New_Systems/rnas/2mxs

>  <Rbt.Executable>
rbdock ($Id: //depot/dev/client3/rdock/2013.1/src/exe/rbdock.cxx#4 $)

>  <Rbt.Library>
libRbt.so (2013.1, Build901 2013/11/27)

>  <Rbt.Parameter_File>
/export/apps/rDock/src/rDock_2013.1_src/data/scripts/dock_solv.prm

>  <Rbt.Receptor>
prm/pocket_docking_3.prm

>  <SCORE>
-46.0997

>  <SCORE.INTER>
-48.839

>  <SCORE.INTER.CONST>
1

>  <SCORE.INTER.POLAR>
-6.82507

>  <SCORE.INTER.ROT>
9

>  <SCORE.INTER.SOLV>
20.6597

>  <SCORE.INTER.VDW>
-26.2957

>  <SCORE.INTER.norm>
-1.16283

>  <SCORE.INTRA>
2.73931

>  <SCORE.INTRA.DIHEDRAL>
-2.28171

>  <SCORE.INTRA.DIHEDRAL.0>
30.1357

>  <SCORE.INTRA.POLAR>
-0.466749

>  <SCORE.INTRA.POLAR.0>
-0.631696

>  <SCORE.INTRA.REPUL>
0

>  <SCORE.INTRA.REPUL.0>
0

>  <SCORE.INTRA.SOLV>
1.15667

>  <SCORE.INTRA.SOLV.lig_0>
-55.904

>  <SCORE.INTRA.VDW>
4.88877

>  <SCORE.INTRA.VDW.0>
-8.21197

>  <SCORE.INTRA.norm>
0.0652217

>  <SCORE.RESTR>
0

>  <SCORE.RESTR.CAVITY>
0

>  <SCORE.RESTR.norm>
0

>  <SCORE.SYSTEM>
0

>  <SCORE.SYSTEM.CONST>
0

>  <SCORE.SYSTEM.DIHEDRAL>
0

>  <SCORE.SYSTEM.SOLV>
0

>  <SCORE.SYSTEM.norm>
0

>  <SCORE.heavy>
42

>  <SCORE.norm>
-1.09761

>  <RMSD>
1.442

$$$$
lig.pdb
 OpenBabel11021811453D
libRbt.so/2013.1/901 2013/11/27
 42 45  0  0  0  0  0  0  0  0999 V2000
    1.5590    3.8145    0.2329 C   0  0  2  0  0  0  0  0  0  0  0  0
    0.4074    3.3534   -0.4761 O   0  0  0  0  0  0  0  0  0  0  0  0
    1.5317    5.3427    0.3860 C   0  0  2  0  0  0  0  0  0  0  0  0
    0.2762    5.7888    1.0179 N   0  0  0  0  0  0  0  0  0  0  0  0
    1.7437    6.0348   -0.9667 C   0  0  1  0  0  0  0  0  0  0  0  0
    1.8652    7.4300   -0.7664 O   0  0  0  0  0  0  0  0  0  0  0  0
    3.0176    5.5046   -1.6418 C   0  0  2  0  0  0  0  0  0  0  0  0
    3.1099    6.0351   -2.9501 O   0  0  0  0  0  0  0  0  0  0  0  0
    3.0266    3.9636   -1.7014 C   0  0  2  0  0  0  0  0  0  0  0  0
    2.7549    3.3961   -0.4203 O   0  0  0  0  0  0  0  0  0  0  0  0
    4.4170    3.5113   -2.1865 C   0  0  0  0  0  0  0  0  0  0  0  0
    5.4526    3.7730   -1.2020 O   0  0  0  0  0  0  0  0  0  0  0  0
   -1.9081   -0.2530   -0.0717 C   0  0  2  0  0  0  0  0  0  0  0  0
   -2.0536   -1.6900    0.2349 N   0  0  0  0  0  0  0  0  0  0  0  0
   -0.9395   -0.0538   -1.2401 C   0  0  0  0  0  0  0  0  0  0  0  0
   -0.6750    1.4293   -1.4714 C   0  0  2  0  0  0  0  0  0  0  0  0
    0.1758    1.6142   -2.6536 N   0  0  0  0  0  0  0  0  0  0  0  0
   -0.0287    2.0155   -0.1946 C   0  0  2  0  0  0  0  0  0  0  0  0
   -1.0349    1.9672    0.9103 C   0  0  2  0  0  0  0  0  0  0  0  0
   -0.4381    2.5457    2.0565 O   0  0  0  0  0  0  0  0  0  0  0  0
   -1.4388    0.5282    1.1700 C   0  0  1  0  0  0  0  0  0  0  0  0
   -2.4538    0.4300    2.1514 O   0  0  0  0  0  0  0  0  0  0  0  0
   -1.2937    2.9272    3.1285 C   0  0  1  0  0  0  0  0  0  0  0  0
   -0.6526    2.4466    4.4321 C   0  0  2  0  0  0  0  0  0  0  0  0
   -1.6673    2.0369    5.3295 O   0  0  0  0  0  0  0  0  0  0  0  0
    0.0988    3.6959    4.9112 C   0  0  2  0  0  0  0  0  0  0  0  0
    0.3774    3.6710    6.3114 O   0  0  0  0  0  0  0  0  0  0  0  0
   -0.8870    4.7847    4.4697 C   0  0  2  0  0  0  0  0  0  0  0  0
   -1.3616    4.3456    3.2046 O   0  0  0  0  0  0  0  0  0  0  0  0
   -0.2638    6.1765    4.3119 C   0  0  0  0  0  0  0  0  0  0  0  0
    0.2978    6.6352    5.5233 O   0  0  0  0  0  0  0  0  0  0  0  0
    1.6860    3.2153    6.6491 C   0  0  2  0  0  0  0  0  0  0  0  0
    1.6844    1.7386    7.0728 C   0  0  2  0  0  0  0  0  0  0  0  0
    1.0754    0.8933    6.0323 N   0  0  0  0  0  0  0  0  0  0  0  0
    0.9870    1.5517    8.4286 C   0  0  1  0  0  0  0  0  0  0  0  0
    1.0917    0.1927    8.8066 O   0  0  0  0  0  0  0  0  0  0  0  0
    1.6894    2.4461    9.4642 C   0  0  2  0  0  0  0  0  0  0  0  0
    1.0564    2.3438   10.7264 O   0  0  0  0  0  0  0  0  0  0  0  0
    1.7214    3.9151    8.9947 C   0  0  1  0  0  0  0  0  0  0  0  0
    2.2525    4.0305    7.6726 O   0  0  0  0  0  0  0  0  0  0  0  0
    0.3683    4.6282    9.1336 C   0  0  0  0  0  0  0  0  0  0  0  0
    0.0616    4.9267   10.5419 N   0  0  0  0  0  0  0  0  0  0  0  0
  1  3  1  0  0  0  0
  1  2  1  6  0  0  0
  3  4  1  6  0  0  0
  5  6  1  1  0  0  0
  5  3  1  0  0  0  0
  7  9  1  0  0  0  0
  7  5  1  0  0  0  0
  7  8  1  6  0  0  0
  9 10  1  0  0  0  0
  9 11  1  1  0  0  0
 10  1  1  0  0  0  0
 11 12  1  0  0  0  0
 13 14  1  1  0  0  0
 13 21  1  0  0  0  0
 15 13  1  0  0  0  0
 16 15  1  0  0  0  0
 16 18  1  0  0  0  0
 16 17  1  6  0  0  0
 18  2  1  6  0  0  0
 18 19  1  0  0  0  0
 19 21  1  0  0  0  0
 19 20  1  1  0  0  0
 21 22  1  1  0  0  0
 23 20  1  6  0  0  0
 23 29  1  0  0  0  0
 23 24  1  0  0  0  0
 24 26  1  0  0  0  0
 24 25  1  1  0  0  0
 26 27  1  1  0  0  0
 28 26  1  0  0  0  0
 28 30  1  6  0  0  0
 29 28  1  0  0  0  0
 30 31  1  0  0  0  0
 32 27  1  1  0  0  0
 32 40  1  0  0  0  0
 32 33  1  0  0  0  0
 33 35  1  0  0  0  0
 33 34  1  6  0  0  0
 35 37  1  0  0  0  0
 35 36  1  1  0  0  0
 37 38  1  1  0  0  0
 39 37  1  0  0  0  0
 39 41  1  6  0  0  0
 40 39  1  0  0  0  0
 42 41  1  0  0  0  0
M  END
>  <CHROM.1>
-148.97275513,-152.79563994,159.37692905,20.75546299,66.56362593,-42.27883316
68.73519232,54.94268204,173.08352947,164.19447791,134.98316285,75.61490969
-45.97112024,96.96194943,-99.01055134,-59.93699545,-66.21706458,-76.97214764
39.57033496,174.55721617,73.22400332,56.91620435,0.63710136,3.17910668,3.01432284
-1.43793270,0.98416966,1.50132589

>  <Name>
lig.pdb

>  <RI>
0

>  <Rbt.Current_Directory>
/home/itssahil/PROJECTS/Mol_Feturizer/New_Systems/rnas/2mxs

>  <Rbt.Executable>
rbdock ($Id: //depot/dev/client3/rdock/2013.1/src/exe/rbdock.cxx#4 $)

>  <Rbt.Library>
libRbt.so (2013.1, Build901 2013/11/27)

>  <Rbt.Parameter_File>
/export/apps/rDock/src/rDock_2013.1_src/data/scripts/dock_solv.prm

>  <Rbt.Receptor>
prm/pocket_docking_3.prm

>  <SCORE>
-44.8884

>  <SCORE.INTER>
-47.4465

>  <SCORE.INTER.CONST>
1

>  <SCORE.INTER.POLAR>
-6.0001

>  <SCORE.INTER.ROT>
9

>  <SCORE.INTER.SOLV>
18.1908

>  <SCORE.INTER.VDW>
-27.2943

>  <SCORE.INTER.norm>
-1.12968

>  <SCORE.INTRA>
2.55817

>  <SCORE.INTRA.DIHEDRAL>
8.42583

>  <SCORE.INTRA.DIHEDRAL.0>
30.1357

>  <SCORE.INTRA.POLAR>
-1.32873

>  <SCORE.INTRA.POLAR.0>
-0.631696

>  <SCORE.INTRA.REPUL>
0

>  <SCORE.INTRA.REPUL.0>
0

>  <SCORE.INTRA.SOLV>
0.822773

>  <SCORE.INTRA.SOLV.lig_0>
-55.904

>  <SCORE.INTRA.VDW>
2.45153

>  <SCORE.INTRA.VDW.0>
-8.21197

>  <SCORE.INTRA.norm>
0.0609087

>  <SCORE.RESTR>
0

>  <SCORE.RESTR.CAVITY>
0

>  <SCORE.RESTR.norm>
0

>  <SCORE.SYSTEM>
0

>  <SCORE.SYSTEM.CONST>
0

>  <SCORE.SYSTEM.DIHEDRAL>
0

>  <SCORE.SYSTEM.SOLV>
0

>  <SCORE.SYSTEM.norm>
0

>  <SCORE.heavy>
42

>  <SCORE.norm>
-1.06877

>  <RMSD>
1.453

$$$$
lig.pdb
 OpenBabel11021811453D
libRbt.so/2013.1/901 2013/11/27
 42 45  0  0  0  0  0  0  0  0999 V2000
    1.0396    4.1618   -0.2754 C   0  0  2  0  0  0  0  0  0  0  0  0
    0.2329    3.4285   -1.1990 O   0  0  0  0  0  0  0  0  0  0  0  0
    0.7615    5.6687   -0.3825 C   0  0  2  0  0  0  0  0  0  0  0  0
   -0.6750    5.9550   -0.2126 N   0  0  0  0  0  0  0  0  0  0  0  0
    1.2818    6.2309   -1.7117 C   0  0  1  0  0  0  0  0  0  0  0  0
    1.1476    7.6393   -1.7106 O   0  0  0  0  0  0  0  0  0  0  0  0
    2.7603    5.8607   -1.9036 C   0  0  2  0  0  0  0  0  0  0  0  0
    3.1760    6.2487   -3.1990 O   0  0  0  0  0  0  0  0  0  0  0  0
    2.9942    4.3485   -1.7113 C   0  0  2  0  0  0  0  0  0  0  0  0
    2.4227    3.8896   -0.4867 O   0  0  0  0  0  0  0  0  0  0  0  0
    4.5139    4.0963   -1.7031 C   0  0  0  0  0  0  0  0  0  0  0  0
    5.1289    4.4138   -2.9803 O   0  0  0  0  0  0  0  0  0  0  0  0
   -2.6552    0.3634   -0.3074 C   0  0  2  0  0  0  0  0  0  0  0  0
   -3.0552   -0.9283    0.2856 N   0  0  0  0  0  0  0  0  0  0  0  0
   -1.5652    0.1502   -1.3609 C   0  0  0  0  0  0  0  0  0  0  0  0
   -1.0477    1.4879   -1.8762 C   0  0  2  0  0  0  0  0  0  0  0  0
   -0.0745    1.2736   -2.9546 N   0  0  0  0  0  0  0  0  0  0  0  0
   -0.4347    2.2655   -0.6883 C   0  0  2  0  0  0  0  0  0  0  0  0
   -1.5318    2.6140    0.2660 C   0  0  2  0  0  0  0  0  0  0  0  0
   -0.9569    3.3601    1.3230 O   0  0  0  0  0  0  0  0  0  0  0  0
   -2.1819    1.3441    0.7818 C   0  0  1  0  0  0  0  0  0  0  0  0
   -3.2844    1.6167    1.6264 O   0  0  0  0  0  0  0  0  0  0  0  0
   -1.8173    3.8003    2.3683 C   0  0  1  0  0  0  0  0  0  0  0  0
   -1.5174    2.9548    3.6080 C   0  0  2  0  0  0  0  0  0  0  0  0
   -2.7194    2.7223    4.3179 O   0  0  0  0  0  0  0  0  0  0  0  0
   -0.5298    3.8395    4.3805 C   0  0  2  0  0  0  0  0  0  0  0  0
   -0.4652    3.5145    5.7694 O   0  0  0  0  0  0  0  0  0  0  0  0
   -1.1129    5.2234    4.0692 C   0  0  2  0  0  0  0  0  0  0  0  0
   -1.5085    5.1465    2.7069 O   0  0  0  0  0  0  0  0  0  0  0  0
   -0.1206    6.3803    4.2349 C   0  0  0  0  0  0  0  0  0  0  0  0
    0.6406    6.2473    5.4164 O   0  0  0  0  0  0  0  0  0  0  0  0
   -0.0594    2.1759    6.0483 C   0  0  2  0  0  0  0  0  0  0  0  0
   -0.8577    1.5683    7.2117 C   0  0  2  0  0  0  0  0  0  0  0  0
   -2.3053    1.6457    6.9537 N   0  0  0  0  0  0  0  0  0  0  0  0
   -0.4879    2.2345    8.5455 C   0  0  1  0  0  0  0  0  0  0  0  0
   -1.1863    1.5792    9.5865 O   0  0  0  0  0  0  0  0  0  0  0  0
    1.0296    2.0946    8.7547 C   0  0  2  0  0  0  0  0  0  0  0  0
    1.4312    2.7318    9.9534 O   0  0  0  0  0  0  0  0  0  0  0  0
    1.8083    2.6676    7.5526 C   0  0  1  0  0  0  0  0  0  0  0  0
    1.3398    2.1217    6.3174 O   0  0  0  0  0  0  0  0  0  0  0  0
    1.8423    4.2028    7.5252 C   0  0  0  0  0  0  0  0  0  0  0  0
    3.1440    4.7019    7.0533 N   0  0  0  0  0  0  0  0  0  0  0  0
  1  3  1  0  0  0  0
  1  2  1  6  0  0  0
  3  4  1  6  0  0  0
  5  6  1  1  0  0  0
  5  3  1  0  0  0  0
  7  9  1  0  0  0  0
  7  5  1  0  0  0  0
  7  8  1  6  0  0  0
  9 10  1  0  0  0  0
  9 11  1  1  0  0  0
 10  1  1  0  0  0  0
 11 12  1  0  0  0  0
 13 14  1  1  0  0  0
 13 21  1  0  0  0  0
 15 13  1  0  0  0  0
 16 15  1  0  0  0  0
 16 18  1  0  0  0  0
 16 17  1  6  0  0  0
 18  2  1  6  0  0  0
 18 19  1  0  0  0  0
 19 21  1  0  0  0  0
 19 20  1  1  0  0  0
 21 22  1  6  0  0  0
 23 20  1  6  0  0  0
 23 29  1  0  0  0  0
 23 24  1  0  0  0  0
 24 26  1  0  0  0  0
 24 25  1  1  0  0  0
 26 27  1  1  0  0  0
 28 26  1  0  0  0  0
 28 30  1  6  0  0  0
 29 28  1  0  0  0  0
 30 31  1  0  0  0  0
 32 27  1  1  0  0  0
 32 40  1  0  0  0  0
 32 33  1  0  0  0  0
 33 35  1  0  0  0  0
 33 34  1  6  0  0  0
 35 37  1  0  0  0  0
 35 36  1  1  0  0  0
 37 38  1  1  0  0  0
 39 37  1  0  0  0  0
 39 41  1  6  0  0  0
 40 39  1  0  0  0  0
 42 41  1  0  0  0  0
M  END
>  <CHROM.1>
-170.46808660,-133.59657145,74.27009816,-88.77969030,-173.55997508,-68.88130147
-64.64682090,-172.38515154,48.10276277,-179.60645923,107.32852064,65.71772142
60.94552345,59.84464381,-140.19495290,-43.72020098,76.24640890,41.80099889
-71.34149520,175.38614929,142.45486218,-145.01399905,0.11505212,3.41770484
2.43897856,-1.38403009,0.72835382,1.59101994

>  <Name>
lig.pdb

>  <RI>
0

>  <Rbt.Current_Directory>
/home/itssahil/PROJECTS/Mol_Feturizer/New_Systems/rnas/2mxs

>  <Rbt.Executable>
rbdock ($Id: //depot/dev/client3/rdock/2013.1/src/exe/rbdock.cxx#4 $)

>  <Rbt.Library>
libRbt.so (2013.1, Build901 2013/11/27)

>  <Rbt.Parameter_File>
/export/apps/rDock/src/rDock_2013.1_src/data/scripts/dock_solv.prm

>  <Rbt.Receptor>
prm/pocket_docking_3.prm

>  <SCORE>
-51.6105

>  <SCORE.INTER>
-50.2573

>  <SCORE.INTER.CONST>
1

>  <SCORE.INTER.POLAR>
-5.97349

>  <SCORE.INTER.ROT>
9

>  <SCORE.INTER.SOLV>
16.0342

>  <SCORE.INTER.VDW>
-28.5379

>  <SCORE.INTER.norm>
-1.1966

>  <SCORE.INTRA>
-1.38812

>  <SCORE.INTRA.DIHEDRAL>
3.59135

>  <SCORE.INTRA.DIHEDRAL.0>
30.1357

>  <SCORE.INTRA.POLAR>
-2.01511

>  <SCORE.INTRA.POLAR.0>
-0.631696

>  <SCORE.INTRA.REPUL>
0

>  <SCORE.INTRA.REPUL.0>
0

>  <SCORE.INTRA.SOLV>
1.53104

>  <SCORE.INTRA.SOLV.lig_0>
-55.904

>  <SCORE.INTRA.VDW>
2.90206

>  <SCORE.INTRA.VDW.0>
-8.21197

>  <SCORE.INTRA.norm>
-0.0330504

>  <SCORE.RESTR>
0.0348649

>  <SCORE.RESTR.CAVITY>
0.0348649

>  <SCORE.RESTR.norm>
0.000830117

>  <SCORE.SYSTEM>
0

>  <SCORE.SYSTEM.CONST>
0

>  <SCORE.SYSTEM.DIHEDRAL>
0

>  <SCORE.SYSTEM.SOLV>
0

>  <SCORE.SYSTEM.norm>
0

>  <SCORE.heavy>
42

>  <SCORE.norm>
-1.22882

>  <RMSD>
1.454

$$$$
lig.pdb
 OpenBabel11021811453D
libRbt.so/2013.1/901 2013/11/27
 42 45  0  0  0  0  0  0  0  0999 V2000
    0.7108    3.8922    0.3856 C   0  0  2  0  0  0  0  0  0  0  0  0
   -0.1557    3.0597   -0.3874 O   0  0  0  0  0  0  0  0  0  0  0  0
    0.3906    5.3770    0.1568 C   0  0  2  0  0  0  0  0  0  0  0  0
   -1.0320    5.6587    0.4236 N   0  0  0  0  0  0  0  0  0  0  0  0
    0.7816    5.8117   -1.2616 C   0  0  1  0  0  0  0  0  0  0  0  0
    0.6162    7.2112   -1.3863 O   0  0  0  0  0  0  0  0  0  0  0  0
    2.2460    5.4449   -1.5458 C   0  0  2  0  0  0  0  0  0  0  0  0
    2.5397    5.7082   -2.9045 O   0  0  0  0  0  0  0  0  0  0  0  0
    2.5297    3.9627   -1.2281 C   0  0  2  0  0  0  0  0  0  0  0  0
    2.0764    3.6197    0.0811 O   0  0  0  0  0  0  0  0  0  0  0  0
    4.0498    3.7338   -1.3289 C   0  0  0  0  0  0  0  0  0  0  0  0
    4.4029    2.3314   -1.1913 O   0  0  0  0  0  0  0  0  0  0  0  0
   -1.0562   -1.1285    0.0362 C   0  0  2  0  0  0  0  0  0  0  0  0
   -0.6722   -2.5346    0.2721 N   0  0  0  0  0  0  0  0  0  0  0  0
   -0.3508   -0.5862   -1.2094 C   0  0  0  0  0  0  0  0  0  0  0  0
   -0.6305    0.9023   -1.3796 C   0  0  2  0  0  0  0  0  0  0  0  0
   -0.0320    1.3911   -2.6281 N   0  0  0  0  0  0  0  0  0  0  0  0
   -0.0797    1.6479   -0.1418 C   0  0  2  0  0  0  0  0  0  0  0  0
   -0.8783    1.2359    1.0532 C   0  0  2  0  0  0  0  0  0  0  0  0
   -0.3859    1.9600    2.1658 O   0  0  0  0  0  0  0  0  0  0  0  0
   -0.7405   -0.2595    1.2681 C   0  0  1  0  0  0  0  0  0  0  0  0
   -1.5444   -0.7190    2.3385 O   0  0  0  0  0  0  0  0  0  0  0  0
   -1.3340    2.6062    3.0086 C   0  0  1  0  0  0  0  0  0  0  0  0
   -1.0149    2.2191    4.4541 C   0  0  2  0  0  0  0  0  0  0  0  0
   -2.2220    2.0898    5.1815 O   0  0  0  0  0  0  0  0  0  0  0  0
   -0.1549    3.3977    4.9299 C   0  0  2  0  0  0  0  0  0  0  0  0
   -0.1268    3.5236    6.3519 O   0  0  0  0  0  0  0  0  0  0  0  0
   -0.8520    4.5491    4.1948 C   0  0  2  0  0  0  0  0  0  0  0  0
   -1.1722    4.0160    2.9174 O   0  0  0  0  0  0  0  0  0  0  0  0
    0.0159    5.7993    4.0093 C   0  0  0  0  0  0  0  0  0  0  0  0
   -0.6192    6.7562    3.1884 O   0  0  0  0  0  0  0  0  0  0  0  0
    1.1795    3.5096    6.9241 C   0  0  2  0  0  0  0  0  0  0  0  0
    1.6252    2.0868    7.2942 C   0  0  2  0  0  0  0  0  0  0  0  0
    1.5416    1.1895    6.1297 N   0  0  0  0  0  0  0  0  0  0  0  0
    0.8163    1.5437    8.4817 C   0  0  1  0  0  0  0  0  0  0  0  0
    1.3262    0.2715    8.8314 O   0  0  0  0  0  0  0  0  0  0  0  0
    0.9695    2.5191    9.6612 C   0  0  2  0  0  0  0  0  0  0  0  0
    0.2060    2.0862   10.7721 O   0  0  0  0  0  0  0  0  0  0  0  0
    0.5623    3.9496    9.2519 C   0  0  1  0  0  0  0  0  0  0  0  0
    1.2376    4.3658    8.0628 O   0  0  0  0  0  0  0  0  0  0  0  0
   -0.9577    4.1431    9.1460 C   0  0  0  0  0  0  0  0  0  0  0  0
   -1.5559    4.4192   10.4621 N   0  0  0  0  0  0  0  0  0  0  0  0
  1  3  1  0  0  0  0
  1  2  1  6  0  0  0
  3  4  1  6  0  0  0
  5  6  1  1  0  0  0
  5  3  1  0  0  0  0
  7  9  1  0  0  0  0
  7  5  1  0  0  0  0
  7  8  1  6  0  0  0
  9 10  1  0  0  0  0
  9 11  1  1  0  0  0
 10  1  1  0  0  0  0
 11 12  1  0  0  0  0
 13 14  1  1  0  0  0
 13 21  1  0  0  0  0
 15 13  1  0  0  0  0
 16 15  1  0  0  0  0
 16 18  1  0  0  0  0
 16 17  1  6  0  0  0
 18  2  1  6  0  0  0
 18 19  1  0  0  0  0
 19 21  1  0  0  0  0
 19 20  1  1  0  0  0
 21 22  1  1  0  0  0
 23 20  1  6  0  0  0
 23 29  1  0  0  0  0
 23 24  1  0  0  0  0
 24 26  1  0  0  0  0
 24 25  1  1  0  0  0
 26 27  1  1  0  0  0
 28 26  1  0  0  0  0
 28 30  1  6  0  0  0
 29 28  1  0  0  0  0
 30 31  1  0  0  0  0
 32 27  1  1  0  0  0
 32 40  1  0  0  0  0
 32 33  1  0  0  0  0
 33 35  1  0  0  0  0
 33 34  1  6  0  0  0
 35 37  1  0  0  0  0
 35 36  1  1  0  0  0
 37 38  1  1  0  0  0
 39 37  1  0  0  0  0
 39 41  1  6  0  0  0
 40 39  1  0  0  0  0
 42 41  1  0  0  0  0
M  END
>  <CHROM.1>
-158.29031391,-172.36984204,-42.49489569,59.38069708,171.66357361,59.38321452
-173.61465513,-65.51451659,-174.30292550,131.89025612,130.14065842,173.41247225
-177.83215421,124.00228822,-90.61967307,172.77501676,-175.70348232,162.49564770
-54.09596872,-50.71973672,83.25833130,71.46721437,0.28847833,2.92415526,2.98223465
-1.14416322,1.35007023,1.18587315

>  <Name>
lig.pdb

>  <RI>
0

>  <Rbt.Current_Directory>
/home/itssahil/PROJECTS/Mol_Feturizer/New_Systems/rnas/2mxs

>  <Rbt.Executable>
rbdock ($Id: //depot/dev/client3/rdock/2013.1/src/exe/rbdock.cxx#4 $)

>  <Rbt.Library>
libRbt.so (2013.1, Build901 2013/11/27)

>  <Rbt.Parameter_File>
/export/apps/rDock/src/rDock_2013.1_src/data/scripts/dock_solv.prm

>  <Rbt.Receptor>
prm/pocket_docking_3.prm

>  <SCORE>
-48.6985

>  <SCORE.INTER>
-47.1889

>  <SCORE.INTER.CONST>
1

>  <SCORE.INTER.POLAR>
-6.0835

>  <SCORE.INTER.ROT>
9

>  <SCORE.INTER.SOLV>
18.8574

>  <SCORE.INTER.VDW>
-27.0668

>  <SCORE.INTER.norm>
-1.12355

>  <SCORE.INTRA>
-1.50954

>  <SCORE.INTRA.DIHEDRAL>
1.81747

>  <SCORE.INTRA.DIHEDRAL.0>
30.1357

>  <SCORE.INTRA.POLAR>
-0.786528

>  <SCORE.INTRA.POLAR.0>
-0.631696

>  <SCORE.INTRA.REPUL>
0

>  <SCORE.INTRA.REPUL.0>
0

>  <SCORE.INTRA.SOLV>
-0.490422

>  <SCORE.INTRA.SOLV.lig_0>
-55.904

>  <SCORE.INTRA.VDW>
0.501128

>  <SCORE.INTRA.VDW.0>
-8.21197

>  <SCORE.INTRA.norm>
-0.0359415

>  <SCORE.RESTR>
0

>  <SCORE.RESTR.CAVITY>
0

>  <SCORE.RESTR.norm>
0

>  <SCORE.SYSTEM>
0

>  <SCORE.SYSTEM.CONST>
0

>  <SCORE.SYSTEM.DIHEDRAL>
0

>  <SCORE.SYSTEM.SOLV>
0

>  <SCORE.SYSTEM.norm>
0

>  <SCORE.heavy>
42

>  <SCORE.norm>
-1.15949

>  <RMSD>
1.484

$$$$
lig.pdb
 OpenBabel11021811453D
libRbt.so/2013.1/901 2013/11/27
 42 45  0  0  0  0  0  0  0  0999 V2000
    0.6097    3.8481    0.5234 C   0  0  2  0  0  0  0  0  0  0  0  0
   -0.3347    3.2051   -0.3345 O   0  0  0  0  0  0  0  0  0  0  0  0
    0.0666    5.1956    1.0226 C   0  0  2  0  0  0  0  0  0  0  0  0
   -1.2474    5.0290    1.6708 N   0  0  0  0  0  0  0  0  0  0  0  0
   -0.0085    6.2158   -0.1207 C   0  0  1  0  0  0  0  0  0  0  0  0
   -0.3650    7.4813    0.4018 O   0  0  0  0  0  0  0  0  0  0  0  0
    1.3504    6.3221   -0.8291 C   0  0  2  0  0  0  0  0  0  0  0  0
    1.2193    7.1441   -1.9730 O   0  0  0  0  0  0  0  0  0  0  0  0
    1.8833    4.9349   -1.2414 C   0  0  2  0  0  0  0  0  0  0  0  0
    1.8577    4.0247   -0.1423 O   0  0  0  0  0  0  0  0  0  0  0  0
    3.3304    5.1068   -1.7410 C   0  0  0  0  0  0  0  0  0  0  0  0
    3.7297    4.0386   -2.6409 O   0  0  0  0  0  0  0  0  0  0  0  0
   -2.0750   -0.7287   -0.1690 C   0  0  2  0  0  0  0  0  0  0  0  0
   -2.0257   -2.1721    0.1382 N   0  0  0  0  0  0  0  0  0  0  0  0
   -1.0119   -0.3699   -1.2103 C   0  0  0  0  0  0  0  0  0  0  0  0
   -0.9615    1.1376   -1.4286 C   0  0  2  0  0  0  0  0  0  0  0  0
   -0.0097    1.4634   -2.4981 N   0  0  0  0  0  0  0  0  0  0  0  0
   -0.5828    1.8130   -0.0899 C   0  0  2  0  0  0  0  0  0  0  0  0
   -1.6988    1.5975    0.8815 C   0  0  2  0  0  0  0  0  0  0  0  0
   -1.3509    2.2580    2.0844 O   0  0  0  0  0  0  0  0  0  0  0  0
   -1.8964    0.1108    1.1100 C   0  0  1  0  0  0  0  0  0  0  0  0
   -2.9975   -0.1548    1.9585 O   0  0  0  0  0  0  0  0  0  0  0  0
   -2.0913    1.9344    3.2566 C   0  0  1  0  0  0  0  0  0  0  0  0
   -1.1003    1.8079    4.4155 C   0  0  2  0  0  0  0  0  0  0  0  0
   -1.5298    0.7802    5.2886 O   0  0  0  0  0  0  0  0  0  0  0  0
   -1.1622    3.2006    5.0571 C   0  0  2  0  0  0  0  0  0  0  0  0
   -0.7120    3.2061    6.4121 O   0  0  0  0  0  0  0  0  0  0  0  0
   -2.6523    3.5124    4.8720 C   0  0  2  0  0  0  0  0  0  0  0  0
   -2.9656    3.0078    3.5814 O   0  0  0  0  0  0  0  0  0  0  0  0
   -2.9973    5.0055    4.9201 C   0  0  0  0  0  0  0  0  0  0  0  0
   -2.5198    5.6865    3.7794 O   0  0  0  0  0  0  0  0  0  0  0  0
    0.6703    3.5158    6.5780 C   0  0  2  0  0  0  0  0  0  0  0  0
    1.4904    2.2759    6.9654 C   0  0  2  0  0  0  0  0  0  0  0  0
    1.2987    1.1916    5.9878 N   0  0  0  0  0  0  0  0  0  0  0  0
    1.1557    1.8131    8.3913 C   0  0  1  0  0  0  0  0  0  0  0  0
    1.9988    0.7269    8.7231 O   0  0  0  0  0  0  0  0  0  0  0  0
    1.4001    2.9877    9.3538 C   0  0  2  0  0  0  0  0  0  0  0  0
    1.0646    2.6265   10.6810 O   0  0  0  0  0  0  0  0  0  0  0  0
    0.6043    4.2349    8.9171 C   0  0  1  0  0  0  0  0  0  0  0  0
    0.8400    4.5514    7.5432 O   0  0  0  0  0  0  0  0  0  0  0  0
   -0.8954    4.1424    9.2354 C   0  0  0  0  0  0  0  0  0  0  0  0
   -1.1236    3.8198   10.6532 N   0  0  0  0  0  0  0  0  0  0  0  0
  1  3  1  0  0  0  0
  1  2  1  6  0  0  0
  3  4  1  6  0  0  0
  5  6  1  1  0  0  0
  5  3  1  0  0  0  0
  7  9  1  0  0  0  0
  7  5  1  0  0  0  0
  7  8  1  6  0  0  0
  9 10  1  0  0  0  0
  9 11  1  1  0  0  0
 10  1  1  0  0  0  0
 11 12  1  0  0  0  0
 13 14  1  1  0  0  0
 13 21  1  0  0  0  0
 15 13  1  0  0  0  0
 16 15  1  0  0  0  0
 16 18  1  0  0  0  0
 16 17  1  6  0  0  0
 18  2  1  6  0  0  0
 18 19  1  0  0  0  0
 19 21  1  0  0  0  0
 19 20  1  1  0  0  0
 21 22  1  1  0  0  0
 23 20  1  6  0  0  0
 23 29  1  0  0  0  0
 23 24  1  0  0  0  0
 24 26  1  0  0  0  0
 24 25  1  1  0  0  0
 26 27  1  1  0  0  0
 28 26  1  0  0  0  0
 28 30  1  6  0  0  0
 29 28  1  0  0  0  0
 30 31  1  0  0  0  0
 32 27  1  1  0  0  0
 32 40  1  0  0  0  0
 32 33  1  0  0  0  0
 33 35  1  0  0  0  0
 33 34  1  6  0  0  0
 35 37  1  0  0  0  0
 35 36  1  1  0  0  0
 37 38  1  1  0  0  0
 39 37  1  0  0  0  0
 39 41  1  6  0  0  0
 40 39  1  0  0  0  0
 42 41  1  0  0  0  0
M  END
>  <CHROM.1>
-150.21858328,-133.47832339,32.22194620,58.67731796,-41.67382642,-72.67812086
-156.10016115,-59.44252800,-173.91475442,-165.12321796,137.55701454,71.05536274
57.23397133,93.08419854,-107.20871650,70.32536910,171.64152845,45.11533961
-56.80059739,164.50968985,53.02485810,70.35827596,-0.27883721,3.03133135
3.10914664,-1.50742523,1.14389618,1.56461022

>  <Name>
lig.pdb

>  <RI>
224

>  <Rbt.Current_Directory>
/home/itssahil/PROJECTS/Mol_Feturizer/New_Systems/rnas/2mxs

>  <Rbt.Executable>
rbdock ($Id: //depot/dev/client3/rdock/2013.1/src/exe/rbdock.cxx#4 $)

>  <Rbt.Library>
libRbt.so (2013.1, Build901 2013/11/27)

>  <Rbt.Parameter_File>
/export/apps/rDock/src/rDock_2013.1_src/data/scripts/dock_solv.prm

>  <Rbt.Receptor>
prm/pocket_docking_2.prm

>  <SCORE>
-39.0449

>  <SCORE.INTER>
-43.683

>  <SCORE.INTER.CONST>
1

>  <SCORE.INTER.POLAR>
-6.27457

>  <SCORE.INTER.ROT>
9

>  <SCORE.INTER.SOLV>
15.3418

>  <SCORE.INTER.VDW>
-22.9207

>  <SCORE.INTER.norm>
-1.04007

>  <SCORE.INTRA>
2.06426

>  <SCORE.INTRA.DIHEDRAL>
6.87955

>  <SCORE.INTRA.DIHEDRAL.0>
30.1357

>  <SCORE.INTRA.POLAR>
-1.84224

>  <SCORE.INTRA.POLAR.0>
-0.631696

>  <SCORE.INTRA.REPUL>
0

>  <SCORE.INTRA.REPUL.0>
0

>  <SCORE.INTRA.SOLV>
2.05074

>  <SCORE.INTRA.SOLV.lig_0>
-55.904

>  <SCORE.INTRA.VDW>
3.86272

>  <SCORE.INTRA.VDW.0>
-8.21197

>  <SCORE.INTRA.norm>
0.0491489

>  <SCORE.RESTR>
2.57389

>  <SCORE.RESTR.CAVITY>
2.57389

>  <SCORE.RESTR.norm>
0.061283

>  <SCORE.SYSTEM>
0

>  <SCORE.SYSTEM.CONST>
0

>  <SCORE.SYSTEM.DIHEDRAL>
0

>  <SCORE.SYSTEM.SOLV>
0

>  <SCORE.SYSTEM.norm>
0

>  <SCORE.heavy>
42

>  <SCORE.norm>
-0.92964

>  <RMSD>
1.530

$$$$
lig.pdb
 OpenBabel11021811453D
libRbt.so/2013.1/901 2013/11/27
 42 45  0  0  0  0  0  0  0  0999 V2000
    1.0027    3.9945   -0.0093 C   0  0  2  0  0  0  0  0  0  0  0  0
    0.0690    3.4655   -0.9526 O   0  0  0  0  0  0  0  0  0  0  0  0
    0.7604    5.4943    0.2183 C   0  0  2  0  0  0  0  0  0  0  0  0
   -0.6360    5.7500    0.6173 N   0  0  0  0  0  0  0  0  0  0  0  0
    1.1349    6.3071   -1.0278 C   0  0  1  0  0  0  0  0  0  0  0  0
    1.0452    7.6877   -0.7323 O   0  0  0  0  0  0  0  0  0  0  0  0
    2.5677    5.9733   -1.4700 C   0  0  2  0  0  0  0  0  0  0  0  0
    2.8371    6.6094   -2.7046 O   0  0  0  0  0  0  0  0  0  0  0  0
    2.7762    4.4517   -1.6102 C   0  0  2  0  0  0  0  0  0  0  0  0
    2.3415    3.7612   -0.4392 O   0  0  0  0  0  0  0  0  0  0  0  0
    4.2775    4.1932   -1.8395 C   0  0  0  0  0  0  0  0  0  0  0  0
    4.5738    2.7785   -1.9851 O   0  0  0  0  0  0  0  0  0  0  0  0
   -2.6851    0.1781   -0.5803 C   0  0  2  0  0  0  0  0  0  0  0  0
   -3.0484   -1.1847   -0.1433 N   0  0  0  0  0  0  0  0  0  0  0  0
   -1.5099    0.1271   -1.5598 C   0  0  0  0  0  0  0  0  0  0  0  0
   -1.0382    1.5344   -1.9061 C   0  0  2  0  0  0  0  0  0  0  0  0
    0.0226    1.4784   -2.9197 N   0  0  0  0  0  0  0  0  0  0  0  0
   -0.5624    2.2242   -0.6064 C   0  0  2  0  0  0  0  0  0  0  0  0
   -1.7456    2.4190    0.2867 C   0  0  2  0  0  0  0  0  0  0  0  0
   -1.2961    3.0883    1.4505 O   0  0  0  0  0  0  0  0  0  0  0  0
   -2.3535    1.0720    0.6294 C   0  0  1  0  0  0  0  0  0  0  0  0
   -3.5294    1.2017    1.4061 O   0  0  0  0  0  0  0  0  0  0  0  0
   -2.2337    3.2913    2.5024 C   0  0  1  0  0  0  0  0  0  0  0  0
   -1.9354    2.2665    3.5989 C   0  0  2  0  0  0  0  0  0  0  0  0
   -3.1508    1.8445    4.1883 O   0  0  0  0  0  0  0  0  0  0  0  0
   -1.0492    3.0644    4.5649 C   0  0  2  0  0  0  0  0  0  0  0  0
   -1.0285    2.5118    5.8813 O   0  0  0  0  0  0  0  0  0  0  0  0
   -1.7112    4.4435    4.4554 C   0  0  2  0  0  0  0  0  0  0  0  0
   -2.0353    4.5762    3.0785 O   0  0  0  0  0  0  0  0  0  0  0  0
   -0.8103    5.6127    4.8698 C   0  0  0  0  0  0  0  0  0  0  0  0
    0.1574    5.8989    3.8825 O   0  0  0  0  0  0  0  0  0  0  0  0
    0.1773    2.7469    6.6058 C   0  0  2  0  0  0  0  0  0  0  0  0
    0.3505    1.7524    7.7638 C   0  0  2  0  0  0  0  0  0  0  0  0
    0.2794    0.3636    7.2798 N   0  0  0  0  0  0  0  0  0  0  0  0
   -0.6756    2.0132    8.8767 C   0  0  1  0  0  0  0  0  0  0  0  0
   -0.4138    1.1282    9.9487 O   0  0  0  0  0  0  0  0  0  0  0  0
   -0.5262    3.4711    9.3439 C   0  0  2  0  0  0  0  0  0  0  0  0
   -1.4812    3.7777   10.3431 O   0  0  0  0  0  0  0  0  0  0  0  0
   -0.6556    4.4479    8.1570 C   0  0  1  0  0  0  0  0  0  0  0  0
    0.2204    4.0888    7.0860 O   0  0  0  0  0  0  0  0  0  0  0  0
   -2.1025    4.6341    7.6767 C   0  0  0  0  0  0  0  0  0  0  0  0
   -2.8109    3.3464    7.5969 N   0  0  0  0  0  0  0  0  0  0  0  0
  1  3  1  0  0  0  0
  1  2  1  6  0  0  0
  3  4  1  6  0  0  0
  5  6  1  1  0  0  0
  5  3  1  0  0  0  0
  7  9  1  0  0  0  0
  7  5  1  0  0  0  0
  7  8  1  6  0  0  0
  9 10  1  0  0  0  0
  9 11  1  1  0  0  0
 10  1  1  0  0  0  0
 11 12  1  0  0  0  0
 13 14  1  1  0  0  0
 13 21  1  0  0  0  0
 15 13  1  0  0  0  0
 16 15  1  0  0  0  0
 16 18  1  0  0  0  0
 16 17  1  6  0  0  0
 18  2  1  6  0  0  0
 18 19  1  0  0  0  0
 19 21  1  0  0  0  0
 19 20  1  1  0  0  0
 21 22  1  6  0  0  0
 23 20  1  6  0  0  0
 23 29  1  0  0  0  0
 23 24  1  0  0  0  0
 24 26  1  0  0  0  0
 24 25  1  1  0  0  0
 26 27  1  1  0  0  0
 28 26  1  0  0  0  0
 28 30  1  6  0  0  0
 29 28  1  0  0  0  0
 30 31  1  0  0  0  0
 32 27  1  1  0  0  0
 32 40  1  0  0  0  0
 32 33  1  0  0  0  0
 33 35  1  0  0  0  0
 33 34  1  6  0  0  0
 35 37  1  0  0  0  0
 35 36  1  1  0  0  0
 37 38  1  1  0  0  0
 39 37  1  0  0  0  0
 39 41  1  6  0  0  0
 40 39  1  0  0  0  0
 42 41  1  0  0  0  0
M  END
>  <CHROM.1>
-156.72092240,-133.94753158,164.18136694,50.70611004,57.83243966,-173.12125939
-179.96012202,169.14400950,-66.05436177,-175.12381452,103.17482161,70.92302934
-174.87178499,150.89806991,-159.85134432,75.24272724,-73.13791965,-38.50048559
-177.35380532,179.77463578,-43.88157745,-55.52742245,-0.39222295,3.27612794
2.67852435,-1.20590239,0.88901674,1.37637864

>  <Name>
lig.pdb

>  <RI>
0

>  <Rbt.Current_Directory>
/home/itssahil/PROJECTS/Mol_Feturizer/New_Systems/rnas/2mxs

>  <Rbt.Executable>
rbdock ($Id: //depot/dev/client3/rdock/2013.1/src/exe/rbdock.cxx#4 $)

>  <Rbt.Library>
libRbt.so (2013.1, Build901 2013/11/27)

>  <Rbt.Parameter_File>
/export/apps/rDock/src/rDock_2013.1_src/data/scripts/dock_solv.prm

>  <Rbt.Receptor>
prm/pocket_docking_3.prm

>  <SCORE>
-46.3169

>  <SCORE.INTER>
-40.9681

>  <SCORE.INTER.CONST>
1

>  <SCORE.INTER.POLAR>
-5.20443

>  <SCORE.INTER.ROT>
9

>  <SCORE.INTER.SOLV>
15.2149

>  <SCORE.INTER.VDW>
-24.6356

>  <SCORE.INTER.norm>
-0.975431

>  <SCORE.INTRA>
-5.34879

>  <SCORE.INTRA.DIHEDRAL>
-3.83462

>  <SCORE.INTRA.DIHEDRAL.0>
30.1357

>  <SCORE.INTRA.POLAR>
-2.18285

>  <SCORE.INTRA.POLAR.0>
-0.631696

>  <SCORE.INTRA.REPUL>
0

>  <SCORE.INTRA.REPUL.0>
0

>  <SCORE.INTRA.SOLV>
2.45146

>  <SCORE.INTRA.SOLV.lig_0>
-55.904

>  <SCORE.INTRA.VDW>
2.76446

>  <SCORE.INTRA.VDW.0>
-8.21197

>  <SCORE.INTRA.norm>
-0.127352

>  <SCORE.RESTR>
0

>  <SCORE.RESTR.CAVITY>
0

>  <SCORE.RESTR.norm>
0

>  <SCORE.SYSTEM>
0

>  <SCORE.SYSTEM.CONST>
0

>  <SCORE.SYSTEM.DIHEDRAL>
0

>  <SCORE.SYSTEM.SOLV>
0

>  <SCORE.SYSTEM.norm>
0

>  <SCORE.heavy>
42

>  <SCORE.norm>
-1.10278

>  <RMSD>
1.534

$$$$
lig.pdb
 OpenBabel11021811453D
libRbt.so/2013.1/901 2013/11/27
 42 45  0  0  0  0  0  0  0  0999 V2000
    0.6728    3.2486    0.6344 C   0  0  2  0  0  0  0  0  0  0  0  0
   -0.0477    2.2458   -0.0843 O   0  0  0  0  0  0  0  0  0  0  0  0
   -0.0365    4.6077    0.5369 C   0  0  2  0  0  0  0  0  0  0  0  0
   -1.4385    4.5059    0.9824 N   0  0  0  0  0  0  0  0  0  0  0  0
    0.0494    5.1719   -0.8871 C   0  0  1  0  0  0  0  0  0  0  0  0
   -0.4767    6.4851   -0.9045 O   0  0  0  0  0  0  0  0  0  0  0  0
    1.5107    5.2028   -1.3600 C   0  0  2  0  0  0  0  0  0  0  0  0
    1.5538    5.5746   -2.7243 O   0  0  0  0  0  0  0  0  0  0  0  0
    2.1956    3.8341   -1.1699 C   0  0  2  0  0  0  0  0  0  0  0  0
    2.0130    3.3458    0.1587 O   0  0  0  0  0  0  0  0  0  0  0  0
    3.6989    4.0067   -1.4588 C   0  0  0  0  0  0  0  0  0  0  0  0
    3.9448    4.5127   -2.7982 O   0  0  0  0  0  0  0  0  0  0  0  0
   -1.3665   -1.6291    1.2489 C   0  0  2  0  0  0  0  0  0  0  0  0
   -1.1494   -2.9331    1.9065 N   0  0  0  0  0  0  0  0  0  0  0  0
   -0.4276   -1.4750    0.0498 C   0  0  0  0  0  0  0  0  0  0  0  0
   -0.5455   -0.0782   -0.5485 C   0  0  2  0  0  0  0  0  0  0  0  0
    0.2842    0.0281   -1.7552 N   0  0  0  0  0  0  0  0  0  0  0  0
   -0.1354    0.9517    0.5297 C   0  0  2  0  0  0  0  0  0  0  0  0
   -1.1466    0.9130    1.6303 C   0  0  2  0  0  0  0  0  0  0  0  0
   -0.7759    1.8907    2.5849 O   0  0  0  0  0  0  0  0  0  0  0  0
   -1.1759   -0.4723    2.2479 C   0  0  1  0  0  0  0  0  0  0  0  0
   -2.1768   -0.5902    3.2415 O   0  0  0  0  0  0  0  0  0  0  0  0
   -1.7375    2.2537    3.5700 C   0  0  1  0  0  0  0  0  0  0  0  0
   -1.1266    1.9748    4.9449 C   0  0  2  0  0  0  0  0  0  0  0  0
   -2.1387    1.5205    5.8235 O   0  0  0  0  0  0  0  0  0  0  0  0
   -0.5640    3.3465    5.3411 C   0  0  2  0  0  0  0  0  0  0  0  0
   -0.3735    3.4805    6.7498 O   0  0  0  0  0  0  0  0  0  0  0  0
   -1.6447    4.2586    4.7474 C   0  0  2  0  0  0  0  0  0  0  0  0
   -1.9817    3.6532    3.5071 O   0  0  0  0  0  0  0  0  0  0  0  0
   -1.1863    5.6988    4.4903 C   0  0  0  0  0  0  0  0  0  0  0  0
   -0.9954    6.4070    5.6966 O   0  0  0  0  0  0  0  0  0  0  0  0
    0.7295    4.3033    7.1248 C   0  0  2  0  0  0  0  0  0  0  0  0
    1.8467    3.4893    7.7952 C   0  0  2  0  0  0  0  0  0  0  0  0
    2.2780    2.3772    6.9320 N   0  0  0  0  0  0  0  0  0  0  0  0
    1.4130    2.9895    9.1815 C   0  0  1  0  0  0  0  0  0  0  0  0
    2.5062    2.3240    9.7838 O   0  0  0  0  0  0  0  0  0  0  0  0
    0.9993    4.2046   10.0290 C   0  0  2  0  0  0  0  0  0  0  0  0
    0.5484    3.7944   11.3068 O   0  0  0  0  0  0  0  0  0  0  0  0
   -0.0881    5.0328    9.3140 C   0  0  1  0  0  0  0  0  0  0  0  0
    0.2986    5.3616    7.9777 O   0  0  0  0  0  0  0  0  0  0  0  0
   -1.4794    4.3843    9.3654 C   0  0  0  0  0  0  0  0  0  0  0  0
   -1.4028    2.9322    9.1377 N   0  0  0  0  0  0  0  0  0  0  0  0
  1  3  1  0  0  0  0
  1  2  1  6  0  0  0
  3  4  1  6  0  0  0
  5  6  1  1  0  0  0
  5  3  1  0  0  0  0
  7  9  1  0  0  0  0
  7  5  1  0  0  0  0
  7  8  1  6  0  0  0
  9 10  1  0  0  0  0
  9 11  1  1  0  0  0
 10  1  1  0  0  0  0
 11 12  1  0  0  0  0
 13 14  1  1  0  0  0
 13 21  1  0  0  0  0
 15 13  1  0  0  0  0
 16 15  1  0  0  0  0
 16 18  1  0  0  0  0
 16 17  1  6  0  0  0
 18  2  1  6  0  0  0
 18 19  1  0  0  0  0
 19 21  1  0  0  0  0
 19 20  1  1  0  0  0
 21 22  1  1  0  0  0
 23 20  1  6  0  0  0
 23 29  1  0  0  0  0
 23 24  1  0  0  0  0
 24 26  1  0  0  0  0
 24 25  1  1  0  0  0
 26 27  1  1  0  0  0
 28 26  1  0  0  0  0
 28 30  1  6  0  0  0
 29 28  1  0  0  0  0
 30 31  1  0  0  0  0
 32 27  1  1  0  0  0
 32 40  1  0  0  0  0
 32 33  1  0  0  0  0
 33 35  1  0  0  0  0
 33 34  1  6  0  0  0
 35 37  1  0  0  0  0
 35 36  1  1  0  0  0
 37 38  1  1  0  0  0
 39 37  1  0  0  0  0
 39 41  1  6  0  0  0
 40 39  1  0  0  0  0
 42 41  1  0  0  0  0
M  END
>  <CHROM.1>
-162.74080277,-139.70860261,-54.75726687,57.79088219,178.85054831,171.53034098
-58.13195797,-176.56785275,18.42068992,166.14575480,121.65266181,67.20379974
174.20976204,147.34461864,-112.50269251,-70.70404996,-52.76828802,-17.21127846
-175.02754807,172.21510831,-41.63855725,179.92819632,0.02768167,2.93271086
3.46379025,-1.38600116,1.21935964,1.30315365

>  <Name>
lig.pdb

>  <RI>
224

>  <Rbt.Current_Directory>
/home/itssahil/PROJECTS/Mol_Feturizer/New_Systems/rnas/2mxs

>  <Rbt.Executable>
rbdock ($Id: //depot/dev/client3/rdock/2013.1/src/exe/rbdock.cxx#4 $)

>  <Rbt.Library>
libRbt.so (2013.1, Build901 2013/11/27)

>  <Rbt.Parameter_File>
/export/apps/rDock/src/rDock_2013.1_src/data/scripts/dock_solv.prm

>  <Rbt.Receptor>
prm/pocket_docking_2.prm

>  <SCORE>
-23.4073

>  <SCORE.INTER>
-25.1256

>  <SCORE.INTER.CONST>
1

>  <SCORE.INTER.POLAR>
-3.24183

>  <SCORE.INTER.ROT>
9

>  <SCORE.INTER.SOLV>
14.53

>  <SCORE.INTER.VDW>
-20.3876

>  <SCORE.INTER.norm>
-0.598229

>  <SCORE.INTRA>
-0.394165

>  <SCORE.INTRA.DIHEDRAL>
5.00759

>  <SCORE.INTRA.DIHEDRAL.0>
30.1357

>  <SCORE.INTRA.POLAR>
-2.09377

>  <SCORE.INTRA.POLAR.0>
-0.631696

>  <SCORE.INTRA.REPUL>
0.0153194

>  <SCORE.INTRA.REPUL.0>
0

>  <SCORE.INTRA.SOLV>
2.29362

>  <SCORE.INTRA.SOLV.lig_0>
-55.904

>  <SCORE.INTRA.VDW>
2.99744

>  <SCORE.INTRA.VDW.0>
-8.21197

>  <SCORE.INTRA.norm>
-0.00938487

>  <SCORE.RESTR>
2.11246

>  <SCORE.RESTR.CAVITY>
2.11246

>  <SCORE.RESTR.norm>
0.0502967

>  <SCORE.SYSTEM>
0

>  <SCORE.SYSTEM.CONST>
0

>  <SCORE.SYSTEM.DIHEDRAL>
0

>  <SCORE.SYSTEM.SOLV>
0

>  <SCORE.SYSTEM.norm>
0

>  <SCORE.heavy>
42

>  <SCORE.norm>
-0.557317

>  <RMSD>
1.710

$$$$
lig.pdb
 OpenBabel11021811453D
libRbt.so/2013.1/901 2013/11/27
 42 45  0  0  0  0  0  0  0  0999 V2000
    0.5409    3.9345    0.4539 C   0  0  2  0  0  0  0  0  0  0  0  0
   -0.3133    3.0804   -0.3092 O   0  0  0  0  0  0  0  0  0  0  0  0
    0.0734    5.3952    0.3668 C   0  0  2  0  0  0  0  0  0  0  0  0
   -1.3399    5.5232    0.7676 N   0  0  0  0  0  0  0  0  0  0  0  0
    0.3004    5.9622   -1.0404 C   0  0  1  0  0  0  0  0  0  0  0  0
    0.0031    7.3454   -1.0430 O   0  0  0  0  0  0  0  0  0  0  0  0
    1.7611    5.7549   -1.4684 C   0  0  2  0  0  0  0  0  0  0  0  0
    1.9117    6.1385   -2.8218 O   0  0  0  0  0  0  0  0  0  0  0  0
    2.1998    4.2872   -1.2899 C   0  0  2  0  0  0  0  0  0  0  0  0
    1.8935    3.8129    0.0209 O   0  0  0  0  0  0  0  0  0  0  0  0
    3.7196    4.2091   -1.5295 C   0  0  0  0  0  0  0  0  0  0  0  0
    4.0723    4.4980   -2.9088 O   0  0  0  0  0  0  0  0  0  0  0  0
   -1.0669   -1.1428    0.0480 C   0  0  2  0  0  0  0  0  0  0  0  0
   -0.6382   -2.5353    0.2873 N   0  0  0  0  0  0  0  0  0  0  0  0
   -0.3370   -0.5627   -1.1660 C   0  0  0  0  0  0  0  0  0  0  0  0
   -0.6672    0.9156   -1.3352 C   0  0  2  0  0  0  0  0  0  0  0  0
   -0.0418    1.4383   -2.5564 N   0  0  0  0  0  0  0  0  0  0  0  0
   -0.1922    1.6704   -0.0718 C   0  0  2  0  0  0  0  0  0  0  0  0
   -1.0184    1.2172    1.0891 C   0  0  2  0  0  0  0  0  0  0  0  0
   -0.5961    1.9495    2.2249 O   0  0  0  0  0  0  0  0  0  0  0  0
   -0.8312   -0.2737    1.2976 C   0  0  1  0  0  0  0  0  0  0  0  0
   -1.6562   -0.7732    2.3333 O   0  0  0  0  0  0  0  0  0  0  0  0
   -1.2315    1.6698    3.4679 C   0  0  1  0  0  0  0  0  0  0  0  0
   -0.2720    2.0814    4.5865 C   0  0  2  0  0  0  0  0  0  0  0  0
   -0.3953    1.1749    5.6662 O   0  0  0  0  0  0  0  0  0  0  0  0
   -0.7578    3.4946    4.9355 C   0  0  2  0  0  0  0  0  0  0  0  0
   -0.3580    3.9104    6.2416 O   0  0  0  0  0  0  0  0  0  0  0  0
   -2.2692    3.3087    4.7530 C   0  0  2  0  0  0  0  0  0  0  0  0
   -2.3916    2.4807    3.6051 O   0  0  0  0  0  0  0  0  0  0  0  0
   -3.0426    4.6105    4.5127 C   0  0  0  0  0  0  0  0  0  0  0  0
   -2.6305    5.2481    3.3224 O   0  0  0  0  0  0  0  0  0  0  0  0
    1.0006    4.3330    6.3410 C   0  0  2  0  0  0  0  0  0  0  0  0
    1.5350    4.2035    7.7755 C   0  0  2  0  0  0  0  0  0  0  0  0
    1.3636    2.8306    8.2790 N   0  0  0  0  0  0  0  0  0  0  0  0
    0.8752    5.2308    8.7077 C   0  0  1  0  0  0  0  0  0  0  0  0
    1.4658    5.1231    9.9884 O   0  0  0  0  0  0  0  0  0  0  0  0
    1.1144    6.6361    8.1297 C   0  0  2  0  0  0  0  0  0  0  0  0
    0.4878    7.6209    8.9308 O   0  0  0  0  0  0  0  0  0  0  0  0
    0.6139    6.7273    6.6735 C   0  0  1  0  0  0  0  0  0  0  0  0
    1.1454    5.6711    5.8703 O   0  0  0  0  0  0  0  0  0  0  0  0
   -0.9149    6.8207    6.5599 C   0  0  0  0  0  0  0  0  0  0  0  0
   -1.3269    7.2638    5.2182 N   0  0  0  0  0  0  0  0  0  0  0  0
  1  3  1  0  0  0  0
  1  2  1  6  0  0  0
  3  4  1  6  0  0  0
  5  6  1  1  0  0  0
  5  3  1  0  0  0  0
  7  9  1  0  0  0  0
  7  5  1  0  0  0  0
  7  8  1  6  0  0  0
  9 10  1  0  0  0  0
  9 11  1  1  0  0  0
 10  1  1  0  0  0  0
 11 12  1  0  0  0  0
 13 14  1  1  0  0  0
 13 21  1  0  0  0  0
 15 13  1  0  0  0  0
 16 15  1  0  0  0  0
 16 18  1  0  0  0  0
 16 17  1  6  0  0  0
 18  2  1  6  0  0  0
 18 19  1  0  0  0  0
 19 21  1  0  0  0  0
 19 20  1  1  0  0  0
 21 22  1  1  0  0  0
 23 20  1  6  0  0  0
 23 29  1  0  0  0  0
 23 24  1  0  0  0  0
 24 26  1  0  0  0  0
 24 25  1  1  0  0  0
 26 27  1  1  0  0  0
 28 26  1  0  0  0  0
 28 30  1  6  0  0  0
 29 28  1  0  0  0  0
 30 31  1  0  0  0  0
 32 27  1  1  0  0  0
 32 40  1  0  0  0  0
 32 33  1  0  0  0  0
 33 35  1  0  0  0  0
 33 34  1  1  0  0  0
 35 37  1  0  0  0  0
 35 36  1  1  0  0  0
 37 38  1  1  0  0  0
 39 37  1  0  0  0  0
 39 41  1  1  0  0  0
 40 39  1  0  0  0  0
 42 41  1  0  0  0  0
M  END
>  <CHROM.1>
-155.17085990,-165.80205875,-156.71022976,-167.39735463,-170.00668984,-171.56903853
-66.76254404,-154.06408981,-56.57305656,-178.94992704,156.08946964,152.96297308
-172.65803035,77.98995471,-156.20517597,62.25649102,75.44596329,-53.07996455
68.63706419,-43.52717331,164.73552887,-30.87257640,0.04449767,3.64473843
2.73461769,-1.45224064,1.22909507,1.15887291

>  <Name>
lig.pdb

>  <RI>
0

>  <Rbt.Current_Directory>
/home/itssahil/PROJECTS/Mol_Feturizer/New_Systems/rnas/2mxs

>  <Rbt.Executable>
rbdock ($Id: //depot/dev/client3/rdock/2013.1/src/exe/rbdock.cxx#4 $)

>  <Rbt.Library>
libRbt.so (2013.1, Build901 2013/11/27)

>  <Rbt.Parameter_File>
/export/apps/rDock/src/rDock_2013.1_src/data/scripts/dock_solv.prm

>  <Rbt.Receptor>
prm/pocket_docking_3.prm

>  <SCORE>
-47.717

>  <SCORE.INTER>
-42.3252

>  <SCORE.INTER.CONST>
1

>  <SCORE.INTER.POLAR>
-5.45899

>  <SCORE.INTER.ROT>
9

>  <SCORE.INTER.SOLV>
15.4936

>  <SCORE.INTER.VDW>
-24.7847

>  <SCORE.INTER.norm>
-1.00774

>  <SCORE.INTRA>
-5.48132

>  <SCORE.INTRA.DIHEDRAL>
-6.55571

>  <SCORE.INTRA.DIHEDRAL.0>
30.1357

>  <SCORE.INTRA.POLAR>
-2.16137

>  <SCORE.INTRA.POLAR.0>
-0.631696

>  <SCORE.INTRA.REPUL>
0

>  <SCORE.INTRA.REPUL.0>
0

>  <SCORE.INTRA.SOLV>
1.44502

>  <SCORE.INTRA.SOLV.lig_0>
-55.904

>  <SCORE.INTRA.VDW>
4.42269

>  <SCORE.INTRA.VDW.0>
-8.21197

>  <SCORE.INTRA.norm>
-0.130508

>  <SCORE.RESTR>
0.0894841

>  <SCORE.RESTR.CAVITY>
0.0894841

>  <SCORE.RESTR.norm>
0.00213057

>  <SCORE.SYSTEM>
0

>  <SCORE.SYSTEM.CONST>
0

>  <SCORE.SYSTEM.DIHEDRAL>
0

>  <SCORE.SYSTEM.SOLV>
0

>  <SCORE.SYSTEM.norm>
0

>  <SCORE.heavy>
42

>  <SCORE.norm>
-1.13612

>  <RMSD>
1.767

$$$$
lig.pdb
 OpenBabel11021811453D
libRbt.so/2013.1/901 2013/11/27
 42 45  0  0  0  0  0  0  0  0999 V2000
    0.2024    3.8860    0.2867 C   0  0  2  0  0  0  0  0  0  0  0  0
   -0.6973    3.2125   -0.5957 O   0  0  0  0  0  0  0  0  0  0  0  0
   -0.1008    5.3912    0.3328 C   0  0  2  0  0  0  0  0  0  0  0  0
   -1.5112    5.6363    0.6862 N   0  0  0  0  0  0  0  0  0  0  0  0
    0.2590    6.0656   -0.9974 C   0  0  1  0  0  0  0  0  0  0  0  0
    0.1121    7.4668   -0.8684 O   0  0  0  0  0  0  0  0  0  0  0  0
    1.7095    5.7394   -1.3842 C   0  0  2  0  0  0  0  0  0  0  0  0
    1.9709    6.2356   -2.6830 O   0  0  0  0  0  0  0  0  0  0  0  0
    1.9785    4.2215   -1.3413 C   0  0  2  0  0  0  0  0  0  0  0  0
    1.5549    3.6572   -0.1006 O   0  0  0  0  0  0  0  0  0  0  0  0
    3.4916    3.9979   -1.5249 C   0  0  0  0  0  0  0  0  0  0  0  0
    3.9624    4.4698   -2.8157 O   0  0  0  0  0  0  0  0  0  0  0  0
   -2.3124   -0.7773   -0.5345 C   0  0  2  0  0  0  0  0  0  0  0  0
   -2.2633   -2.2060   -0.1647 N   0  0  0  0  0  0  0  0  0  0  0  0
   -1.1154   -0.4148   -1.4171 C   0  0  0  0  0  0  0  0  0  0  0  0
   -1.0817    1.0849   -1.6865 C   0  0  2  0  0  0  0  0  0  0  0  0
    0.0107    1.4092   -2.6124 N   0  0  0  0  0  0  0  0  0  0  0  0
   -0.9339    1.8214   -0.3348 C   0  0  2  0  0  0  0  0  0  0  0  0
   -2.1773    1.5974    0.4648 C   0  0  2  0  0  0  0  0  0  0  0  0
   -2.0388    2.3130    1.6786 O   0  0  0  0  0  0  0  0  0  0  0  0
   -2.3585    0.1132    0.7214 C   0  0  1  0  0  0  0  0  0  0  0  0
   -3.5669   -0.1645    1.4039 O   0  0  0  0  0  0  0  0  0  0  0  0
   -1.3247    1.6873    2.7394 C   0  0  1  0  0  0  0  0  0  0  0  0
   -0.7208    2.7904    3.6111 C   0  0  2  0  0  0  0  0  0  0  0  0
    0.5425    2.3695    4.0904 O   0  0  0  0  0  0  0  0  0  0  0  0
   -1.7636    2.9379    4.7273 C   0  0  2  0  0  0  0  0  0  0  0  0
   -1.2306    3.5420    5.9061 O   0  0  0  0  0  0  0  0  0  0  0  0
   -2.1882    1.4731    4.8895 C   0  0  2  0  0  0  0  0  0  0  0  0
   -2.2298    0.9640    3.5639 O   0  0  0  0  0  0  0  0  0  0  0  0
   -3.5630    1.2810    5.5402 C   0  0  0  0  0  0  0  0  0  0  0  0
   -3.9674   -0.0713    5.5116 O   0  0  0  0  0  0  0  0  0  0  0  0
   -0.2072    2.7862    6.5507 C   0  0  2  0  0  0  0  0  0  0  0  0
   -0.5828    2.4357    7.9986 C   0  0  2  0  0  0  0  0  0  0  0  0
   -1.8778    1.7372    8.0520 N   0  0  0  0  0  0  0  0  0  0  0  0
   -0.5814    3.6867    8.8900 C   0  0  1  0  0  0  0  0  0  0  0  0
   -0.8479    3.2923   10.2220 O   0  0  0  0  0  0  0  0  0  0  0  0
    0.8049    4.3469    8.7994 C   0  0  2  0  0  0  0  0  0  0  0  0
    0.8468    5.5328    9.5717 O   0  0  0  0  0  0  0  0  0  0  0  0
    1.1804    4.6451    7.3332 C   0  0  1  0  0  0  0  0  0  0  0  0
    1.0345    3.4859    6.5096 O   0  0  0  0  0  0  0  0  0  0  0  0
    0.4422    5.8593    6.7506 C   0  0  0  0  0  0  0  0  0  0  0  0
    0.4758    5.8519    5.2792 N   0  0  0  0  0  0  0  0  0  0  0  0
  1  3  1  0  0  0  0
  1  2  1  6  0  0  0
  3  4  1  6  0  0  0
  5  6  1  1  0  0  0
  5  3  1  0  0  0  0
  7  9  1  0  0  0  0
  7  5  1  0  0  0  0
  7  8  1  6  0  0  0
  9 10  1  0  0  0  0
  9 11  1  1  0  0  0
 10  1  1  0  0  0  0
 11 12  1  0  0  0  0
 13 14  1  1  0  0  0
 13 21  1  0  0  0  0
 15 13  1  0  0  0  0
 16 15  1  0  0  0  0
 16 18  1  0  0  0  0
 16 17  1  6  0  0  0
 18  2  1  6  0  0  0
 18 19  1  0  0  0  0
 19 21  1  0  0  0  0
 19 20  1  1  0  0  0
 21 22  1  6  0  0  0
 23 20  1  6  0  0  0
 23 29  1  0  0  0  0
 23 24  1  0  0  0  0
 24 26  1  0  0  0  0
 24 25  1  1  0  0  0
 26 27  1  1  0  0  0
 28 26  1  0  0  0  0
 28 30  1  6  0  0  0
 29 28  1  0  0  0  0
 30 31  1  0  0  0  0
 32 27  1  1  0  0  0
 32 40  1  0  0  0  0
 32 33  1  0  0  0  0
 33 35  1  0  0  0  0
 33 34  1  6  0  0  0
 35 37  1  0  0  0  0
 35 36  1  1  0  0  0
 37 38  1  1  0  0  0
 39 37  1  0  0  0  0
 39 41  1  6  0  0  0
 40 39  1  0  0  0  0
 42 41  1  0  0  0  0
M  END
>  <CHROM.1>
-143.56426372,-154.23835914,-145.37536486,-159.31115623,-53.73722764,62.04566839
-62.59909961,120.25686257,74.15492881,-83.66302306,152.74670278,60.16415189
50.40573353,-63.70163749,-121.06600076,172.72245771,55.83800803,58.82932570
-73.88958858,-172.03218128,-161.40693819,72.33319146,-0.49273412,2.99489452
2.69264441,-1.35903904,0.94946236,1.39767016

>  <Name>
lig.pdb

>  <RI>
224

>  <Rbt.Current_Directory>
/home/itssahil/PROJECTS/Mol_Feturizer/New_Systems/rnas/2mxs

>  <Rbt.Executable>
rbdock ($Id: //depot/dev/client3/rdock/2013.1/src/exe/rbdock.cxx#4 $)

>  <Rbt.Library>
libRbt.so (2013.1, Build901 2013/11/27)

>  <Rbt.Parameter_File>
/export/apps/rDock/src/rDock_2013.1_src/data/scripts/dock_solv.prm

>  <Rbt.Receptor>
prm/pocket_docking_2.prm

>  <SCORE>
-31.9316

>  <SCORE.INTER>
-40.4359

>  <SCORE.INTER.CONST>
1

>  <SCORE.INTER.POLAR>
-5.47594

>  <SCORE.INTER.ROT>
9

>  <SCORE.INTER.SOLV>
14.1925

>  <SCORE.INTER.VDW>
-23.0349

>  <SCORE.INTER.norm>
-0.962759

>  <SCORE.INTRA>
6.93027

>  <SCORE.INTRA.DIHEDRAL>
2.68497

>  <SCORE.INTRA.DIHEDRAL.0>
30.1357

>  <SCORE.INTRA.POLAR>
-0.186052

>  <SCORE.INTRA.POLAR.0>
-0.631696

>  <SCORE.INTRA.REPUL>
0.0355601

>  <SCORE.INTRA.REPUL.0>
0

>  <SCORE.INTRA.SOLV>
1.16244

>  <SCORE.INTRA.SOLV.lig_0>
-55.904

>  <SCORE.INTRA.VDW>
5.46134

>  <SCORE.INTRA.VDW.0>
-8.21197

>  <SCORE.INTRA.norm>
0.165007

>  <SCORE.RESTR>
1.57397

>  <SCORE.RESTR.CAVITY>
1.57397

>  <SCORE.RESTR.norm>
0.0374754

>  <SCORE.SYSTEM>
0

>  <SCORE.SYSTEM.CONST>
0

>  <SCORE.SYSTEM.DIHEDRAL>
0

>  <SCORE.SYSTEM.SOLV>
0

>  <SCORE.SYSTEM.norm>
0

>  <SCORE.heavy>
42

>  <SCORE.norm>
-0.760277

>  <RMSD>
1.785

$$$$
lig.pdb
 OpenBabel11021811453D
libRbt.so/2013.1/901 2013/11/27
 42 45  0  0  0  0  0  0  0  0999 V2000
    0.5474    3.8598    0.4882 C   0  0  2  0  0  0  0  0  0  0  0  0
   -0.3720    3.0884   -0.2872 O   0  0  0  0  0  0  0  0  0  0  0  0
    0.3244    5.3632    0.2651 C   0  0  2  0  0  0  0  0  0  0  0  0
   -1.0767    5.7360    0.5341 N   0  0  0  0  0  0  0  0  0  0  0  0
    0.7422    5.7767   -1.1520 C   0  0  1  0  0  0  0  0  0  0  0  0
    0.6682    7.1845   -1.2714 O   0  0  0  0  0  0  0  0  0  0  0  0
    2.1794    5.3164   -1.4388 C   0  0  2  0  0  0  0  0  0  0  0  0
    2.4888    5.5651   -2.7967 O   0  0  0  0  0  0  0  0  0  0  0  0
    2.3661    3.8177   -1.1267 C   0  0  2  0  0  0  0  0  0  0  0  0
    1.8921    3.5001    0.1816 O   0  0  0  0  0  0  0  0  0  0  0  0
    3.8680    3.4906   -1.2296 C   0  0  0  0  0  0  0  0  0  0  0  0
    4.5871    4.4649   -2.0321 O   0  0  0  0  0  0  0  0  0  0  0  0
   -1.5087   -1.0536   -0.0005 C   0  0  2  0  0  0  0  0  0  0  0  0
   -1.2204   -2.4765    0.2688 N   0  0  0  0  0  0  0  0  0  0  0  0
   -0.6383   -0.5431   -1.1516 C   0  0  0  0  0  0  0  0  0  0  0  0
   -0.8270    0.9571   -1.3429 C   0  0  2  0  0  0  0  0  0  0  0  0
   -0.0648    1.4192   -2.5096 N   0  0  0  0  0  0  0  0  0  0  0  0
   -0.3906    1.6743   -0.0442 C   0  0  2  0  0  0  0  0  0  0  0  0
   -1.3416    1.2983    1.0467 C   0  0  2  0  0  0  0  0  0  0  0  0
   -0.9495    1.9969    2.2141 O   0  0  0  0  0  0  0  0  0  0  0  0
   -1.2992   -0.2022    1.2658 C   0  0  1  0  0  0  0  0  0  0  0  0
   -2.2431   -0.6251    2.2319 O   0  0  0  0  0  0  0  0  0  0  0  0
   -1.9613    2.3297    3.1588 C   0  0  1  0  0  0  0  0  0  0  0  0
   -1.5640    1.7183    4.5041 C   0  0  2  0  0  0  0  0  0  0  0  0
   -2.7276    1.2843    5.1828 O   0  0  0  0  0  0  0  0  0  0  0  0
   -0.8657    2.8903    5.2066 C   0  0  2  0  0  0  0  0  0  0  0  0
   -0.8277    2.7413    6.6262 O   0  0  0  0  0  0  0  0  0  0  0  0
   -1.7288    4.0540    4.7038 C   0  0  2  0  0  0  0  0  0  0  0  0
   -1.9970    3.7391    3.3447 O   0  0  0  0  0  0  0  0  0  0  0  0
   -1.0452    5.4246    4.7718 C   0  0  0  0  0  0  0  0  0  0  0  0
   -1.7881    6.3383    5.5506 O   0  0  0  0  0  0  0  0  0  0  0  0
   -0.4111    3.9065    7.3353 C   0  0  2  0  0  0  0  0  0  0  0  0
    1.0718    3.8345    7.7301 C   0  0  2  0  0  0  0  0  0  0  0  0
    1.9195    3.5946    6.5503 N   0  0  0  0  0  0  0  0  0  0  0  0
    1.3056    2.7732    8.8156 C   0  0  1  0  0  0  0  0  0  0  0  0
    2.6665    2.8118    9.1993 O   0  0  0  0  0  0  0  0  0  0  0  0
    0.4056    3.1019   10.0189 C   0  0  2  0  0  0  0  0  0  0  0  0
    0.5510    2.1266   11.0349 O   0  0  0  0  0  0  0  0  0  0  0  0
   -1.0715    3.2167    9.5894 C   0  0  1  0  0  0  0  0  0  0  0  0
   -1.2275    4.1121    8.4861 O   0  0  0  0  0  0  0  0  0  0  0  0
   -1.7356    1.8576    9.3236 C   0  0  0  0  0  0  0  0  0  0  0  0
   -0.8926    1.0072    8.4679 N   0  0  0  0  0  0  0  0  0  0  0  0
  1  3  1  0  0  0  0
  1  2  1  6  0  0  0
  3  4  1  6  0  0  0
  5  6  1  1  0  0  0
  5  3  1  0  0  0  0
  7  9  1  0  0  0  0
  7  5  1  0  0  0  0
  7  8  1  6  0  0  0
  9 10  1  0  0  0  0
  9 11  1  1  0  0  0
 10  1  1  0  0  0  0
 11 12  1  0  0  0  0
 13 14  1  1  0  0  0
 13 21  1  0  0  0  0
 15 13  1  0  0  0  0
 16 15  1  0  0  0  0
 16 18  1  0  0  0  0
 16 17  1  6  0  0  0
 18  2  1  6  0  0  0
 18 19  1  0  0  0  0
 19 21  1  0  0  0  0
 19 20  1  1  0  0  0
 21 22  1  1  0  0  0
 23 20  1  6  0  0  0
 23 29  1  0  0  0  0
 23 24  1  0  0  0  0
 24 26  1  0  0  0  0
 24 25  1  1  0  0  0
 26 27  1  1  0  0  0
 28 26  1  0  0  0  0
 28 30  1  6  0  0  0
 29 28  1  0  0  0  0
 30 31  1  0  0  0  0
 32 27  1  1  0  0  0
 32 40  1  0  0  0  0
 32 33  1  0  0  0  0
 33 35  1  0  0  0  0
 33 34  1  6  0  0  0
 35 37  1  0  0  0  0
 35 36  1  1  0  0  0
 37 38  1  1  0  0  0
 39 37  1  0  0  0  0
 39 41  1  6  0  0  0
 40 39  1  0  0  0  0
 42 41  1  0  0  0  0
M  END
>  <CHROM.1>
-151.53981168,-172.20207764,85.13472968,-112.01932680,58.76192093,-50.77908147
-21.17450583,63.60702285,66.83707249,150.85779219,122.86886514,168.94051039
56.04125728,-169.15637340,-98.94473167,-122.44125127,-73.15111973,61.69373260
61.43170021,-63.09330574,-47.83239563,-49.12844223,-0.08775746,2.92544170
3.13465500,-1.31242922,1.06596621,1.38861769

>  <Name>
lig.pdb

>  <RI>
224

>  <Rbt.Current_Directory>
/home/itssahil/PROJECTS/Mol_Feturizer/New_Systems/rnas/2mxs

>  <Rbt.Executable>
rbdock ($Id: //depot/dev/client3/rdock/2013.1/src/exe/rbdock.cxx#4 $)

>  <Rbt.Library>
libRbt.so (2013.1, Build901 2013/11/27)

>  <Rbt.Parameter_File>
/export/apps/rDock/src/rDock_2013.1_src/data/scripts/dock_solv.prm

>  <Rbt.Receptor>
prm/pocket_docking_2.prm

>  <SCORE>
-29.9316

>  <SCORE.INTER>
-40.5716

>  <SCORE.INTER.CONST>
1

>  <SCORE.INTER.POLAR>
-5.81764

>  <SCORE.INTER.ROT>
9

>  <SCORE.INTER.SOLV>
15.6229

>  <SCORE.INTER.VDW>
-22.4632

>  <SCORE.INTER.norm>
-0.96599

>  <SCORE.INTRA>
9.90113

>  <SCORE.INTRA.DIHEDRAL>
10.6012

>  <SCORE.INTRA.DIHEDRAL.0>
30.1357

>  <SCORE.INTRA.POLAR>
-0.525397

>  <SCORE.INTRA.POLAR.0>
-0.631696

>  <SCORE.INTRA.REPUL>
0.0283851

>  <SCORE.INTRA.REPUL.0>
0

>  <SCORE.INTRA.SOLV>
1.46607

>  <SCORE.INTRA.SOLV.lig_0>
-55.904

>  <SCORE.INTRA.VDW>
5.51194

>  <SCORE.INTRA.VDW.0>
-8.21197

>  <SCORE.INTRA.norm>
0.235741

>  <SCORE.RESTR>
0.73888

>  <SCORE.RESTR.CAVITY>
0.73888

>  <SCORE.RESTR.norm>
0.0175924

>  <SCORE.SYSTEM>
0

>  <SCORE.SYSTEM.CONST>
0

>  <SCORE.SYSTEM.DIHEDRAL>
0

>  <SCORE.SYSTEM.SOLV>
0

>  <SCORE.SYSTEM.norm>
0

>  <SCORE.heavy>
42

>  <SCORE.norm>
-0.712656

>  <RMSD>
1.787

$$$$
lig.pdb
 OpenBabel11021811453D
libRbt.so/2013.1/901 2013/11/27
 42 45  0  0  0  0  0  0  0  0999 V2000
    0.3698    3.8147    0.2969 C   0  0  2  0  0  0  0  0  0  0  0  0
   -0.3655    2.9811   -0.6008 O   0  0  0  0  0  0  0  0  0  0  0  0
   -0.0239    5.2891    0.1211 C   0  0  2  0  0  0  0  0  0  0  0  0
   -1.4804    5.4686    0.2653 N   0  0  0  0  0  0  0  0  0  0  0  0
    0.4673    5.8326   -1.2268 C   0  0  1  0  0  0  0  0  0  0  0  0
    0.2234    7.2248   -1.2889 O   0  0  0  0  0  0  0  0  0  0  0  0
    1.9725    5.5719   -1.3890 C   0  0  2  0  0  0  0  0  0  0  0  0
    2.3726    5.9352   -2.6964 O   0  0  0  0  0  0  0  0  0  0  0  0
    2.3216    4.0925   -1.1282 C   0  0  2  0  0  0  0  0  0  0  0  0
    1.7725    3.6433    0.1102 O   0  0  0  0  0  0  0  0  0  0  0  0
    3.8561    3.9612   -1.0952 C   0  0  0  0  0  0  0  0  0  0  0  0
    4.2872    2.5740   -1.0903 O   0  0  0  0  0  0  0  0  0  0  0  0
   -1.6680   -1.0878   -0.0736 C   0  0  2  0  0  0  0  0  0  0  0  0
   -1.4413   -2.4996    0.2950 N   0  0  0  0  0  0  0  0  0  0  0  0
   -0.7525   -0.6872   -1.2332 C   0  0  0  0  0  0  0  0  0  0  0  0
   -0.8786    0.8030   -1.5265 C   0  0  2  0  0  0  0  0  0  0  0  0
   -0.0726    1.1584   -2.7013 N   0  0  0  0  0  0  0  0  0  0  0  0
   -0.4445    1.5878   -0.2667 C   0  0  2  0  0  0  0  0  0  0  0  0
   -1.4339    1.3203    0.8219 C   0  0  2  0  0  0  0  0  0  0  0  0
   -1.0418    2.0795    1.9508 O   0  0  0  0  0  0  0  0  0  0  0  0
   -1.4546   -0.1629    1.1394 C   0  0  1  0  0  0  0  0  0  0  0  0
   -2.4360   -0.4857    2.1068 O   0  0  0  0  0  0  0  0  0  0  0  0
   -1.7950    1.9236    3.1488 C   0  0  1  0  0  0  0  0  0  0  0  0
   -0.8305    1.4886    4.2542 C   0  0  2  0  0  0  0  0  0  0  0  0
   -1.4886    0.5828    5.1198 O   0  0  0  0  0  0  0  0  0  0  0  0
   -0.4850    2.8201    4.9345 C   0  0  2  0  0  0  0  0  0  0  0  0
    0.0033    2.6510    6.2656 O   0  0  0  0  0  0  0  0  0  0  0  0
   -1.8400    3.5310    4.8308 C   0  0  2  0  0  0  0  0  0  0  0  0
   -2.3301    3.1804    3.5442 O   0  0  0  0  0  0  0  0  0  0  0  0
   -1.7629    5.0586    4.9350 C   0  0  0  0  0  0  0  0  0  0  0  0
   -1.0510    5.6185    3.8520 O   0  0  0  0  0  0  0  0  0  0  0  0
    0.1901    3.8658    6.9890 C   0  0  2  0  0  0  0  0  0  0  0  0
    1.5042    3.8598    7.7847 C   0  0  2  0  0  0  0  0  0  0  0  0
    2.6510    3.5793    6.9048 N   0  0  0  0  0  0  0  0  0  0  0  0
    1.4385    2.8683    8.9561 C   0  0  1  0  0  0  0  0  0  0  0  0
    2.6372    2.9684    9.7003 O   0  0  0  0  0  0  0  0  0  0  0  0
    0.2338    3.2371    9.8384 C   0  0  2  0  0  0  0  0  0  0  0  0
    0.1015    2.3249   10.9131 O   0  0  0  0  0  0  0  0  0  0  0  0
   -1.0656    3.2841    9.0083 C   0  0  1  0  0  0  0  0  0  0  0  0
   -0.9181    4.1113    7.8519 O   0  0  0  0  0  0  0  0  0  0  0  0
   -1.6116    1.8933    8.6529 C   0  0  0  0  0  0  0  0  0  0  0  0
   -0.6775    0.8308    9.0590 N   0  0  0  0  0  0  0  0  0  0  0  0
  1  3  1  0  0  0  0
  1  2  1  6  0  0  0
  3  4  1  6  0  0  0
  5  6  1  1  0  0  0
  5  3  1  0  0  0  0
  7  9  1  0  0  0  0
  7  5  1  0  0  0  0
  7  8  1  6  0  0  0
  9 10  1  0  0  0  0
  9 11  1  1  0  0  0
 10  1  1  0  0  0  0
 11 12  1  0  0  0  0
 13 14  1  1  0  0  0
 13 21  1  0  0  0  0
 15 13  1  0  0  0  0
 16 15  1  0  0  0  0
 16 18  1  0  0  0  0
 16 17  1  6  0  0  0
 18  2  1  6  0  0  0
 18 19  1  0  0  0  0
 19 21  1  0  0  0  0
 19 20  1  1  0  0  0
 21 22  1  1  0  0  0
 23 20  1  6  0  0  0
 23 29  1  0  0  0  0
 23 24  1  0  0  0  0
 24 26  1  0  0  0  0
 24 25  1  1  0  0  0
 26 27  1  1  0  0  0
 28 26  1  0  0  0  0
 28 30  1  6  0  0  0
 29 28  1  0  0  0  0
 30 31  1  0  0  0  0
 32 27  1  1  0  0  0
 32 40  1  0  0  0  0
 32 33  1  0  0  0  0
 33 35  1  0  0  0  0
 33 34  1  6  0  0  0
 35 37  1  0  0  0  0
 35 36  1  1  0  0  0
 37 38  1  1  0  0  0
 39 37  1  0  0  0  0
 39 41  1  6  0  0  0
 40 39  1  0  0  0  0
 42 41  1  0  0  0  0
M  END
>  <CHROM.1>
-162.84229704,-159.98460105,-58.42952126,-59.36665809,179.63205366,60.39794207
-169.86572211,70.41268895,63.61387404,-176.28050684,122.74477169,72.51440523
63.33087789,-173.09050978,-137.38144081,64.69785958,174.18517874,57.66194774
62.99755644,172.34834848,-6.56095617,50.82534284,-0.05250239,2.80762354,3.04037635
-1.44660241,1.07341547,1.49498081

>  <Name>
lig.pdb

>  <RI>
224

>  <Rbt.Current_Directory>
/home/itssahil/PROJECTS/Mol_Feturizer/New_Systems/rnas/2mxs

>  <Rbt.Executable>
rbdock ($Id: //depot/dev/client3/rdock/2013.1/src/exe/rbdock.cxx#4 $)

>  <Rbt.Library>
libRbt.so (2013.1, Build901 2013/11/27)

>  <Rbt.Parameter_File>
/export/apps/rDock/src/rDock_2013.1_src/data/scripts/dock_solv.prm

>  <Rbt.Receptor>
prm/pocket_docking_2.prm

>  <SCORE>
-41.6419

>  <SCORE.INTER>
-45.136

>  <SCORE.INTER.CONST>
1

>  <SCORE.INTER.POLAR>
-6.75105

>  <SCORE.INTER.ROT>
9

>  <SCORE.INTER.SOLV>
18.5418

>  <SCORE.INTER.VDW>
-23.3678

>  <SCORE.INTER.norm>
-1.07467

>  <SCORE.INTRA>
2.84414

>  <SCORE.INTRA.DIHEDRAL>
-5.93955

>  <SCORE.INTRA.DIHEDRAL.0>
30.1357

>  <SCORE.INTRA.POLAR>
0.0711493

>  <SCORE.INTRA.POLAR.0>
-0.631696

>  <SCORE.INTRA.REPUL>
0.00726002

>  <SCORE.INTRA.REPUL.0>
0

>  <SCORE.INTRA.SOLV>
0.764637

>  <SCORE.INTRA.SOLV.lig_0>
-55.904

>  <SCORE.INTRA.VDW>
5.15339

>  <SCORE.INTRA.VDW.0>
-8.21197

>  <SCORE.INTRA.norm>
0.0677176

>  <SCORE.RESTR>
0.649911

>  <SCORE.RESTR.CAVITY>
0.649911

>  <SCORE.RESTR.norm>
0.0154741

>  <SCORE.SYSTEM>
0

>  <SCORE.SYSTEM.CONST>
0

>  <SCORE.SYSTEM.DIHEDRAL>
0

>  <SCORE.SYSTEM.SOLV>
0

>  <SCORE.SYSTEM.norm>
0

>  <SCORE.heavy>
42

>  <SCORE.norm>
-0.991475

>  <RMSD>
1.819

$$$$
lig.pdb
 OpenBabel11021811453D
libRbt.so/2013.1/901 2013/11/27
 42 45  0  0  0  0  0  0  0  0999 V2000
    0.7405    4.0128    0.2656 C   0  0  2  0  0  0  0  0  0  0  0  0
   -0.1841    3.3025   -0.5602 O   0  0  0  0  0  0  0  0  0  0  0  0
    0.2679    5.4554    0.5006 C   0  0  2  0  0  0  0  0  0  0  0  0
   -1.0999    5.4810    1.0510 N   0  0  0  0  0  0  0  0  0  0  0  0
    0.3581    6.2807   -0.7894 C   0  0  1  0  0  0  0  0  0  0  0  0
    0.0630    7.6343   -0.5027 O   0  0  0  0  0  0  0  0  0  0  0  0
    1.7704    6.1831   -1.3859 C   0  0  2  0  0  0  0  0  0  0  0  0
    1.7896    6.8168   -2.6506 O   0  0  0  0  0  0  0  0  0  0  0  0
    2.2233    4.7160   -1.5301 C   0  0  2  0  0  0  0  0  0  0  0  0
    2.0448    3.9985   -0.3093 O   0  0  0  0  0  0  0  0  0  0  0  0
    3.7127    4.7110   -1.9236 C   0  0  0  0  0  0  0  0  0  0  0  0
    3.9379    5.3193   -3.2234 O   0  0  0  0  0  0  0  0  0  0  0  0
   -1.9789   -0.5741   -0.0294 C   0  0  2  0  0  0  0  0  0  0  0  0
   -1.9353   -1.9957    0.3674 N   0  0  0  0  0  0  0  0  0  0  0  0
   -0.9790   -0.3056   -1.1569 C   0  0  0  0  0  0  0  0  0  0  0  0
   -0.9162    1.1835   -1.4756 C   0  0  2  0  0  0  0  0  0  0  0  0
   -0.0298    1.4196   -2.6220 N   0  0  0  0  0  0  0  0  0  0  0  0
   -0.4403    1.9346   -0.2104 C   0  0  2  0  0  0  0  0  0  0  0  0
   -1.4951    1.8057    0.8415 C   0  0  2  0  0  0  0  0  0  0  0  0
   -1.0589    2.5341    1.9746 O   0  0  0  0  0  0  0  0  0  0  0  0
   -1.7036    0.3414    1.1783 C   0  0  1  0  0  0  0  0  0  0  0  0
   -2.7523    0.1544    2.1101 O   0  0  0  0  0  0  0  0  0  0  0  0
   -1.5751    2.1543    3.2458 C   0  0  1  0  0  0  0  0  0  0  0  0
   -0.3868    1.8684    4.1665 C   0  0  2  0  0  0  0  0  0  0  0  0
   -0.7118    0.7960    5.0309 O   0  0  0  0  0  0  0  0  0  0  0  0
   -0.2146    3.2011    4.9076 C   0  0  2  0  0  0  0  0  0  0  0  0
    0.4940    3.0617    6.1394 O   0  0  0  0  0  0  0  0  0  0  0  0
   -1.6838    3.6162    5.0529 C   0  0  2  0  0  0  0  0  0  0  0  0
   -2.2838    3.2455    3.8196 O   0  0  0  0  0  0  0  0  0  0  0  0
   -1.8981    5.1173    5.2796 C   0  0  0  0  0  0  0  0  0  0  0  0
   -2.2465    5.7794    4.0824 O   0  0  0  0  0  0  0  0  0  0  0  0
    0.6529    4.2737    6.8742 C   0  0  2  0  0  0  0  0  0  0  0  0
    1.9158    4.2495    7.7486 C   0  0  2  0  0  0  0  0  0  0  0  0
    3.1102    3.9535    6.9399 N   0  0  0  0  0  0  0  0  0  0  0  0
    1.7652    3.2586    8.9126 C   0  0  1  0  0  0  0  0  0  0  0  0
    2.9176    3.3422    9.7287 O   0  0  0  0  0  0  0  0  0  0  0  0
    0.5142    3.6438    9.7203 C   0  0  2  0  0  0  0  0  0  0  0  0
    0.3041    2.7332   10.7839 O   0  0  0  0  0  0  0  0  0  0  0  0
   -0.7314    3.7088    8.8126 C   0  0  1  0  0  0  0  0  0  0  0  0
   -0.5024    4.5341    7.6682 O   0  0  0  0  0  0  0  0  0  0  0  0
   -1.2737    2.3256    8.4231 C   0  0  0  0  0  0  0  0  0  0  0  0
   -0.1924    1.4315    7.9785 N   0  0  0  0  0  0  0  0  0  0  0  0
  1  3  1  0  0  0  0
  1  2  1  6  0  0  0
  3  4  1  6  0  0  0
  5  6  1  1  0  0  0
  5  3  1  0  0  0  0
  7  9  1  0  0  0  0
  7  5  1  0  0  0  0
  7  8  1  6  0  0  0
  9 10  1  0  0  0  0
  9 11  1  1  0  0  0
 10  1  1  0  0  0  0
 11 12  1  0  0  0  0
 13 14  1  1  0  0  0
 13 21  1  0  0  0  0
 15 13  1  0  0  0  0
 16 15  1  0  0  0  0
 16 18  1  0  0  0  0
 16 17  1  6  0  0  0
 18  2  1  6  0  0  0
 18 19  1  0  0  0  0
 19 21  1  0  0  0  0
 19 20  1  1  0  0  0
 21 22  1  1  0  0  0
 23 20  1  6  0  0  0
 23 29  1  0  0  0  0
 23 24  1  0  0  0  0
 24 26  1  0  0  0  0
 24 25  1  1  0  0  0
 26 27  1  1  0  0  0
 28 26  1  0  0  0  0
 28 30  1  6  0  0  0
 29 28  1  0  0  0  0
 30 31  1  0  0  0  0
 32 27  1  1  0  0  0
 32 40  1  0  0  0  0
 32 33  1  0  0  0  0
 33 35  1  0  0  0  0
 33 34  1  6  0  0  0
 35 37  1  0  0  0  0
 35 36  1  1  0  0  0
 37 38  1  1  0  0  0
 39 37  1  0  0  0  0
 39 41  1  6  0  0  0
 40 39  1  0  0  0  0
 42 41  1  0  0  0  0
M  END
>  <CHROM.1>
-155.45222782,-140.37077168,150.81559715,-69.78356467,-66.16463667,54.82264541
-63.96119163,-59.78675900,65.38598333,-155.30481982,124.91909196,-57.56675366
-63.71232844,-178.80401745,-152.07175932,98.89837538,170.48952589,-68.94760590
60.32102929,-61.20334350,-46.78453602,-177.38090166,0.01488741,3.26223529
2.98358916,-1.50723873,1.00675697,1.57408017

>  <Name>
lig.pdb

>  <RI>
0

>  <Rbt.Current_Directory>
/home/itssahil/PROJECTS/Mol_Feturizer/New_Systems/rnas/2mxs

>  <Rbt.Executable>
rbdock ($Id: //depot/dev/client3/rdock/2013.1/src/exe/rbdock.cxx#4 $)

>  <Rbt.Library>
libRbt.so (2013.1, Build901 2013/11/27)

>  <Rbt.Parameter_File>
/export/apps/rDock/src/rDock_2013.1_src/data/scripts/dock_solv.prm

>  <Rbt.Receptor>
prm/pocket_docking_3.prm

>  <SCORE>
-43.7177

>  <SCORE.INTER>
-46.1551

>  <SCORE.INTER.CONST>
1

>  <SCORE.INTER.POLAR>
-6.29516

>  <SCORE.INTER.ROT>
9

>  <SCORE.INTER.SOLV>
15.4975

>  <SCORE.INTER.VDW>
-24.552

>  <SCORE.INTER.norm>
-1.09893

>  <SCORE.INTRA>
2.42722

>  <SCORE.INTRA.DIHEDRAL>
-0.933237

>  <SCORE.INTRA.DIHEDRAL.0>
30.1357

>  <SCORE.INTRA.POLAR>
-1.53041

>  <SCORE.INTRA.POLAR.0>
-0.631696

>  <SCORE.INTRA.REPUL>
0.0361304

>  <SCORE.INTRA.REPUL.0>
0

>  <SCORE.INTRA.SOLV>
2.50923

>  <SCORE.INTRA.SOLV.lig_0>
-55.904

>  <SCORE.INTRA.VDW>
6.66197

>  <SCORE.INTRA.VDW.0>
-8.21197

>  <SCORE.INTRA.norm>
0.0577909

>  <SCORE.RESTR>
0.0102162

>  <SCORE.RESTR.CAVITY>
0.0102162

>  <SCORE.RESTR.norm>
0.000243243

>  <SCORE.SYSTEM>
0

>  <SCORE.SYSTEM.CONST>
0

>  <SCORE.SYSTEM.DIHEDRAL>
0

>  <SCORE.SYSTEM.SOLV>
0

>  <SCORE.SYSTEM.norm>
0

>  <SCORE.heavy>
42

>  <SCORE.norm>
-1.0409

>  <RMSD>
1.824

$$$$
lig.pdb
 OpenBabel11021811453D
libRbt.so/2013.1/901 2013/11/27
 42 45  0  0  0  0  0  0  0  0999 V2000
    0.5603    3.8510    1.4967 C   0  0  2  0  0  0  0  0  0  0  0  0
   -0.5135    3.0872    0.9443 O   0  0  0  0  0  0  0  0  0  0  0  0
    0.1750    5.3336    1.6109 C   0  0  2  0  0  0  0  0  0  0  0  0
   -1.0739    5.4982    2.3773 N   0  0  0  0  0  0  0  0  0  0  0  0
    0.0598    5.9802    0.2244 C   0  0  1  0  0  0  0  0  0  0  0  0
   -0.1442    7.3725    0.3710 O   0  0  0  0  0  0  0  0  0  0  0  0
    1.3425    5.7362   -0.5848 C   0  0  2  0  0  0  0  0  0  0  0  0
    1.1566    6.1998   -1.9084 O   0  0  0  0  0  0  0  0  0  0  0  0
    1.7236    4.2419   -0.6037 C   0  0  2  0  0  0  0  0  0  0  0  0
    1.7428    3.6976    0.7156 O   0  0  0  0  0  0  0  0  0  0  0  0
    3.1203    4.1119   -1.2406 C   0  0  0  0  0  0  0  0  0  0  0  0
    3.1198    4.4890   -2.6435 O   0  0  0  0  0  0  0  0  0  0  0  0
   -0.9293   -1.1590    0.3721 C   0  0  2  0  0  0  0  0  0  0  0  0
   -0.3955   -2.4962    0.0446 N   0  0  0  0  0  0  0  0  0  0  0  0
   -0.7472   -0.2084   -0.8138 C   0  0  0  0  0  0  0  0  0  0  0  0
   -1.1659    1.2075   -0.4361 C   0  0  2  0  0  0  0  0  0  0  0  0
   -1.0809    2.0904   -1.6061 N   0  0  0  0  0  0  0  0  0  0  0  0
   -0.2631    1.6917    0.7224 C   0  0  2  0  0  0  0  0  0  0  0  0
   -0.5588    0.8628    1.9312 C   0  0  2  0  0  0  0  0  0  0  0  0
    0.2465    1.3490    2.9893 O   0  0  0  0  0  0  0  0  0  0  0  0
   -0.2562   -0.5943    1.6371 C   0  0  1  0  0  0  0  0  0  0  0  0
   -0.5978   -1.4374    2.7214 O   0  0  0  0  0  0  0  0  0  0  0  0
   -0.0805    0.9402    4.3132 C   0  0  1  0  0  0  0  0  0  0  0  0
    0.7438    1.7905    5.2822 C   0  0  2  0  0  0  0  0  0  0  0  0
    1.1185    1.0011    6.3953 O   0  0  0  0  0  0  0  0  0  0  0  0
   -0.2341    2.9146    5.6499 C   0  0  2  0  0  0  0  0  0  0  0  0
    0.1014    3.5600    6.8786 O   0  0  0  0  0  0  0  0  0  0  0  0
   -1.5489    2.1254    5.6747 C   0  0  2  0  0  0  0  0  0  0  0  0
   -1.4478    1.2275    4.5784 O   0  0  0  0  0  0  0  0  0  0  0  0
   -2.8064    2.9849    5.5000 C   0  0  0  0  0  0  0  0  0  0  0  0
   -2.9535    3.4265    4.1671 O   0  0  0  0  0  0  0  0  0  0  0  0
    0.1202    2.6997    8.0160 C   0  0  2  0  0  0  0  0  0  0  0  0
   -0.7965    3.2147    9.1361 C   0  0  2  0  0  0  0  0  0  0  0  0
   -2.1684    3.4180    8.6417 N   0  0  0  0  0  0  0  0  0  0  0  0
   -0.2318    4.4949    9.7700 C   0  0  1  0  0  0  0  0  0  0  0  0
   -1.0680    4.8725   10.8466 O   0  0  0  0  0  0  0  0  0  0  0  0
    1.1888    4.1991   10.2802 C   0  0  2  0  0  0  0  0  0  0  0  0
    1.7736    5.3619   10.8373 O   0  0  0  0  0  0  0  0  0  0  0  0
    2.0763    3.6380    9.1501 C   0  0  1  0  0  0  0  0  0  0  0  0
    1.4523    2.5310    8.4955 O   0  0  0  0  0  0  0  0  0  0  0  0
    2.5392    4.7087    8.1510 C   0  0  0  0  0  0  0  0  0  0  0  0
    3.1480    4.1005    6.9570 N   0  0  0  0  0  0  0  0  0  0  0  0
  1  3  1  0  0  0  0
  1  2  1  6  0  0  0
  3  4  1  6  0  0  0
  5  6  1  1  0  0  0
  5  3  1  0  0  0  0
  7  9  1  0  0  0  0
  7  5  1  0  0  0  0
  7  8  1  6  0  0  0
  9 10  1  0  0  0  0
  9 11  1  1  0  0  0
 10  1  1  0  0  0  0
 11 12  1  0  0  0  0
 13 14  1  6  0  0  0
 13 21  1  0  0  0  0
 15 13  1  0  0  0  0
 16 15  1  0  0  0  0
 16 18  1  0  0  0  0
 16 17  1  6  0  0  0
 18  2  1  1  0  0  0
 18 19  1  0  0  0  0
 19 21  1  0  0  0  0
 19 20  1  1  0  0  0
 21 22  1  1  0  0  0
 23 20  1  6  0  0  0
 23 29  1  0  0  0  0
 23 24  1  0  0  0  0
 24 26  1  0  0  0  0
 24 25  1  1  0  0  0
 26 27  1  1  0  0  0
 28 26  1  0  0  0  0
 28 30  1  6  0  0  0
 29 28  1  0  0  0  0
 30 31  1  0  0  0  0
 32 27  1  6  0  0  0
 32 40  1  0  0  0  0
 32 33  1  0  0  0  0
 33 35  1  0  0  0  0
 33 34  1  6  0  0  0
 35 37  1  0  0  0  0
 35 36  1  1  0  0  0
 37 38  1  6  0  0  0
 39 37  1  0  0  0  0
 39 41  1  6  0  0  0
 40 39  1  0  0  0  0
 42 41  1  0  0  0  0
M  END
>  <CHROM.1>
-152.69758065,177.08948625,-51.93870823,-139.80611839,-64.47946417,54.95740960
-66.07716372,36.18504484,-75.62926295,165.26721277,-169.38864570,-60.88385633
64.80365919,-59.87732759,-124.98530066,73.60634196,-177.40190623,-60.13584290
59.62926345,-50.80519837,-168.63042731,147.00395977,0.14526871,2.97904386
3.72963914,-1.54289387,1.23229254,1.45185171

>  <Name>
lig.pdb

>  <RI>
0

>  <Rbt.Current_Directory>
/home/itssahil/PROJECTS/Mol_Feturizer/New_Systems/rnas/2mxs

>  <Rbt.Executable>
rbdock ($Id: //depot/dev/client3/rdock/2013.1/src/exe/rbdock.cxx#4 $)

>  <Rbt.Library>
libRbt.so (2013.1, Build901 2013/11/27)

>  <Rbt.Parameter_File>
/export/apps/rDock/src/rDock_2013.1_src/data/scripts/dock_solv.prm

>  <Rbt.Receptor>
prm/pocket_docking_3.prm

>  <SCORE>
-41.906

>  <SCORE.INTER>
-44.5906

>  <SCORE.INTER.CONST>
1

>  <SCORE.INTER.POLAR>
-6.1983

>  <SCORE.INTER.ROT>
9

>  <SCORE.INTER.SOLV>
15.3918

>  <SCORE.INTER.VDW>
-23.7966

>  <SCORE.INTER.norm>
-1.06168

>  <SCORE.INTRA>
2.58792

>  <SCORE.INTRA.DIHEDRAL>
-6.1482

>  <SCORE.INTRA.DIHEDRAL.0>
30.1357

>  <SCORE.INTRA.POLAR>
0.267534

>  <SCORE.INTRA.POLAR.0>
-0.631696

>  <SCORE.INTRA.REPUL>
0.0531645

>  <SCORE.INTRA.REPUL.0>
0

>  <SCORE.INTRA.SOLV>
1.51201

>  <SCORE.INTRA.SOLV.lig_0>
-55.904

>  <SCORE.INTRA.VDW>
3.73058

>  <SCORE.INTRA.VDW.0>
-8.21197

>  <SCORE.INTRA.norm>
0.0616171

>  <SCORE.RESTR>
0.0966954

>  <SCORE.RESTR.CAVITY>
0.0966954

>  <SCORE.RESTR.norm>
0.00230227

>  <SCORE.SYSTEM>
0

>  <SCORE.SYSTEM.CONST>
0

>  <SCORE.SYSTEM.DIHEDRAL>
0

>  <SCORE.SYSTEM.SOLV>
0

>  <SCORE.SYSTEM.norm>
0

>  <SCORE.heavy>
42

>  <SCORE.norm>
-0.997761

>  <RMSD>
1.857

$$$$
lig.pdb
 OpenBabel11021811453D
libRbt.so/2013.1/901 2013/11/27
 42 45  0  0  0  0  0  0  0  0999 V2000
    0.4471    3.8321    0.1471 C   0  0  2  0  0  0  0  0  0  0  0  0
   -0.2897    2.9735   -0.7255 O   0  0  0  0  0  0  0  0  0  0  0  0
   -0.0958    5.2679    0.0887 C   0  0  2  0  0  0  0  0  0  0  0  0
   -1.5425    5.2985    0.3725 N   0  0  0  0  0  0  0  0  0  0  0  0
    0.2136    5.9181   -1.2659 C   0  0  1  0  0  0  0  0  0  0  0  0
   -0.1626    7.2815   -1.2293 O   0  0  0  0  0  0  0  0  0  0  0  0
    1.7143    5.8124   -1.5765 C   0  0  2  0  0  0  0  0  0  0  0  0
    1.9539    6.2728   -2.8926 O   0  0  0  0  0  0  0  0  0  0  0  0
    2.2215    4.3634   -1.4299 C   0  0  2  0  0  0  0  0  0  0  0  0
    1.8357    3.8064   -0.1737 O   0  0  0  0  0  0  0  0  0  0  0  0
    3.7578    4.3801   -1.5419 C   0  0  0  0  0  0  0  0  0  0  0  0
    4.2063    4.3902   -2.9236 O   0  0  0  0  0  0  0  0  0  0  0  0
   -1.6195   -1.0570   -0.0062 C   0  0  2  0  0  0  0  0  0  0  0  0
   -1.3909   -2.4636    0.3805 N   0  0  0  0  0  0  0  0  0  0  0  0
   -0.7824   -0.7010   -1.2373 C   0  0  0  0  0  0  0  0  0  0  0  0
   -0.9039    0.7840   -1.5580 C   0  0  2  0  0  0  0  0  0  0  0  0
   -0.1779    1.0965   -2.7954 N   0  0  0  0  0  0  0  0  0  0  0  0
   -0.3680    1.5902   -0.3520 C   0  0  2  0  0  0  0  0  0  0  0  0
   -1.2817    1.3669    0.8102 C   0  0  2  0  0  0  0  0  0  0  0  0
   -0.7974    2.1452    1.8893 O   0  0  0  0  0  0  0  0  0  0  0  0
   -1.3047   -0.1078    1.1652 C   0  0  1  0  0  0  0  0  0  0  0  0
   -2.2199   -0.3894    2.2074 O   0  0  0  0  0  0  0  0  0  0  0  0
   -1.6458    2.3107    3.0205 C   0  0  1  0  0  0  0  0  0  0  0  0
   -0.9543    1.6633    4.2222 C   0  0  2  0  0  0  0  0  0  0  0  0
   -1.9287    1.0681    5.0583 O   0  0  0  0  0  0  0  0  0  0  0  0
   -0.2510    2.8572    4.8818 C   0  0  2  0  0  0  0  0  0  0  0  0
    0.0595    2.6262    6.2562 O   0  0  0  0  0  0  0  0  0  0  0  0
   -1.2957    3.9520    4.6325 C   0  0  2  0  0  0  0  0  0  0  0  0
   -1.7775    3.6944    3.3210 O   0  0  0  0  0  0  0  0  0  0  0  0
   -0.7414    5.3803    4.6877 C   0  0  0  0  0  0  0  0  0  0  0  0
   -1.7360    6.3361    4.3874 O   0  0  0  0  0  0  0  0  0  0  0  0
    0.1203    3.8042    7.0580 C   0  0  2  0  0  0  0  0  0  0  0  0
    1.2822    3.7520    8.0616 C   0  0  2  0  0  0  0  0  0  0  0  0
    2.5608    3.5062    7.3742 N   0  0  0  0  0  0  0  0  0  0  0  0
    1.0224    2.7064    9.1566 C   0  0  1  0  0  0  0  0  0  0  0  0
    2.0790    2.7635   10.0952 O   0  0  0  0  0  0  0  0  0  0  0  0
   -0.3139    3.0408    9.8410 C   0  0  2  0  0  0  0  0  0  0  0  0
   -0.6232    2.0795   10.8333 O   0  0  0  0  0  0  0  0  0  0  0  0
   -1.4556    3.1354    8.8079 C   0  0  1  0  0  0  0  0  0  0  0  0
   -1.1174    4.0156    7.7336 O   0  0  0  0  0  0  0  0  0  0  0  0
   -1.9319    1.7666    8.2999 C   0  0  0  0  0  0  0  0  0  0  0  0
   -2.7731    1.0871    9.2985 N   0  0  0  0  0  0  0  0  0  0  0  0
  1  3  1  0  0  0  0
  1  2  1  6  0  0  0
  3  4  1  6  0  0  0
  5  6  1  1  0  0  0
  5  3  1  0  0  0  0
  7  9  1  0  0  0  0
  7  5  1  0  0  0  0
  7  8  1  6  0  0  0
  9 10  1  0  0  0  0
  9 11  1  1  0  0  0
 10  1  1  0  0  0  0
 11 12  1  0  0  0  0
 13 14  1  1  0  0  0
 13 21  1  0  0  0  0
 15 13  1  0  0  0  0
 16 15  1  0  0  0  0
 16 18  1  0  0  0  0
 16 17  1  6  0  0  0
 18  2  1  6  0  0  0
 18 19  1  0  0  0  0
 19 21  1  0  0  0  0
 19 20  1  1  0  0  0
 21 22  1  1  0  0  0
 23 20  1  6  0  0  0
 23 29  1  0  0  0  0
 23 24  1  0  0  0  0
 24 26  1  0  0  0  0
 24 25  1  1  0  0  0
 26 27  1  1  0  0  0
 28 26  1  0  0  0  0
 28 30  1  6  0  0  0
 29 28  1  0  0  0  0
 30 31  1  0  0  0  0
 32 27  1  1  0  0  0
 32 40  1  0  0  0  0
 32 33  1  0  0  0  0
 33 35  1  0  0  0  0
 33 34  1  6  0  0  0
 35 37  1  0  0  0  0
 35 36  1  1  0  0  0
 37 38  1  1  0  0  0
 39 37  1  0  0  0  0
 39 41  1  6  0  0  0
 40 39  1  0  0  0  0
 42 41  1  0  0  0  0
M  END
>  <CHROM.1>
-166.95595394,-151.20446306,61.49259493,64.26416043,-167.73620080,-85.97386273
-82.64752413,-37.53474308,-68.96051060,167.59915594,116.66846826,-63.06235540
-176.73847562,-152.33785365,-139.73774903,177.16815089,-44.54704432,45.10631103
-103.95666091,-47.56337865,76.18956078,-160.21526284,-0.18681247,2.93849906
2.97025266,-1.30339505,1.10723378,1.41162158

>  <Name>
lig.pdb

>  <RI>
224

>  <Rbt.Current_Directory>
/home/itssahil/PROJECTS/Mol_Feturizer/New_Systems/rnas/2mxs

>  <Rbt.Executable>
rbdock ($Id: //depot/dev/client3/rdock/2013.1/src/exe/rbdock.cxx#4 $)

>  <Rbt.Library>
libRbt.so (2013.1, Build901 2013/11/27)

>  <Rbt.Parameter_File>
/export/apps/rDock/src/rDock_2013.1_src/data/scripts/dock_solv.prm

>  <Rbt.Receptor>
prm/pocket_docking_2.prm

>  <SCORE>
-29.9912

>  <SCORE.INTER>
-37.2465

>  <SCORE.INTER.CONST>
1

>  <SCORE.INTER.POLAR>
-4.96993

>  <SCORE.INTER.ROT>
9

>  <SCORE.INTER.SOLV>
16.9521

>  <SCORE.INTER.VDW>
-23.5153

>  <SCORE.INTER.norm>
-0.886822

>  <SCORE.INTRA>
6.43381

>  <SCORE.INTRA.DIHEDRAL>
7.85153

>  <SCORE.INTRA.DIHEDRAL.0>
30.1357

>  <SCORE.INTRA.POLAR>
-0.61817

>  <SCORE.INTRA.POLAR.0>
-0.631696

>  <SCORE.INTRA.REPUL>
0.0306673

>  <SCORE.INTRA.REPUL.0>
0

>  <SCORE.INTRA.SOLV>
-0.0823405

>  <SCORE.INTRA.SOLV.lig_0>
-55.904

>  <SCORE.INTRA.VDW>
4.49766

>  <SCORE.INTRA.VDW.0>
-8.21197

>  <SCORE.INTRA.norm>
0.153186

>  <SCORE.RESTR>
0.821517

>  <SCORE.RESTR.CAVITY>
0.821517

>  <SCORE.RESTR.norm>
0.0195599

>  <SCORE.SYSTEM>
0

>  <SCORE.SYSTEM.CONST>
0

>  <SCORE.SYSTEM.DIHEDRAL>
0

>  <SCORE.SYSTEM.SOLV>
0

>  <SCORE.SYSTEM.norm>
0

>  <SCORE.heavy>
42

>  <SCORE.norm>
-0.714076

>  <RMSD>
1.884

$$$$
lig.pdb
 OpenBabel11021811453D
libRbt.so/2013.1/901 2013/11/27
 42 45  0  0  0  0  0  0  0  0999 V2000
    0.6414    3.7930    0.2330 C   0  0  2  0  0  0  0  0  0  0  0  0
   -0.2051    2.9978   -0.5992 O   0  0  0  0  0  0  0  0  0  0  0  0
    0.3056    5.2849    0.0884 C   0  0  2  0  0  0  0  0  0  0  0  0
   -1.1236    5.5336    0.3529 N   0  0  0  0  0  0  0  0  0  0  0  0
    0.7086    5.8076   -1.2964 C   0  0  1  0  0  0  0  0  0  0  0  0
    0.5274    7.2100   -1.3402 O   0  0  0  0  0  0  0  0  0  0  0  0
    2.1809    5.4756   -1.5828 C   0  0  2  0  0  0  0  0  0  0  0  0
    2.4880    5.8225   -2.9195 O   0  0  0  0  0  0  0  0  0  0  0  0
    2.4791    3.9806   -1.3497 C   0  0  2  0  0  0  0  0  0  0  0  0
    2.0139    3.5551   -0.0693 O   0  0  0  0  0  0  0  0  0  0  0  0
    4.0030    3.7758   -1.4441 C   0  0  0  0  0  0  0  0  0  0  0  0
    4.3880    2.3994   -1.1839 O   0  0  0  0  0  0  0  0  0  0  0  0
   -1.4417   -1.0987   -0.1299 C   0  0  2  0  0  0  0  0  0  0  0  0
   -1.1795   -2.5219    0.1636 N   0  0  0  0  0  0  0  0  0  0  0  0
   -0.6243   -0.6462   -1.3424 C   0  0  0  0  0  0  0  0  0  0  0  0
   -0.7805    0.8533   -1.5658 C   0  0  2  0  0  0  0  0  0  0  0  0
   -0.0733    1.2604   -2.7865 N   0  0  0  0  0  0  0  0  0  0  0  0
   -0.2503    1.5919   -0.3149 C   0  0  2  0  0  0  0  0  0  0  0  0
   -1.1477    1.2746    0.8381 C   0  0  2  0  0  0  0  0  0  0  0  0
   -0.6698    1.9925    1.9609 O   0  0  0  0  0  0  0  0  0  0  0  0
   -1.1359   -0.2200    1.0976 C   0  0  1  0  0  0  0  0  0  0  0  0
   -2.0348   -0.5878    2.1270 O   0  0  0  0  0  0  0  0  0  0  0  0
   -1.3553    1.8229    3.1971 C   0  0  1  0  0  0  0  0  0  0  0  0
   -0.3043    1.6200    4.2905 C   0  0  2  0  0  0  0  0  0  0  0  0
   -0.7949    0.6987    5.2462 O   0  0  0  0  0  0  0  0  0  0  0  0
   -0.1390    3.0365    4.8573 C   0  0  2  0  0  0  0  0  0  0  0  0
    0.4088    3.0445    6.1759 O   0  0  0  0  0  0  0  0  0  0  0  0
   -1.5867    3.5330    4.7581 C   0  0  2  0  0  0  0  0  0  0  0  0
   -2.0581    3.0157    3.5217 O   0  0  0  0  0  0  0  0  0  0  0  0
   -1.7331    5.0591    4.7476 C   0  0  0  0  0  0  0  0  0  0  0  0
   -3.0759    5.4514    4.5573 O   0  0  0  0  0  0  0  0  0  0  0  0
    0.2146    4.2620    6.8928 C   0  0  2  0  0  0  0  0  0  0  0  0
    1.3892    4.5621    7.8365 C   0  0  2  0  0  0  0  0  0  0  0  0
    2.6653    4.5714    7.1019 N   0  0  0  0  0  0  0  0  0  0  0  0
    1.4236    3.5725    9.0108 C   0  0  1  0  0  0  0  0  0  0  0  0
    2.4677    3.9487    9.8878 O   0  0  0  0  0  0  0  0  0  0  0  0
    0.0704    3.6351    9.7394 C   0  0  2  0  0  0  0  0  0  0  0  0
    0.0332    2.7077   10.8084 O   0  0  0  0  0  0  0  0  0  0  0  0
   -1.0956    3.3787    8.7626 C   0  0  1  0  0  0  0  0  0  0  0  0
   -1.0139    4.2280    7.6157 O   0  0  0  0  0  0  0  0  0  0  0  0
   -1.2493    1.9012    8.3725 C   0  0  0  0  0  0  0  0  0  0  0  0
   -2.2008    1.2093    9.2569 N   0  0  0  0  0  0  0  0  0  0  0  0
  1  3  1  0  0  0  0
  1  2  1  6  0  0  0
  3  4  1  6  0  0  0
  5  6  1  1  0  0  0
  5  3  1  0  0  0  0
  7  9  1  0  0  0  0
  7  5  1  0  0  0  0
  7  8  1  6  0  0  0
  9 10  1  0  0  0  0
  9 11  1  1  0  0  0
 10  1  1  0  0  0  0
 11 12  1  0  0  0  0
 13 14  1  1  0  0  0
 13 21  1  0  0  0  0
 15 13  1  0  0  0  0
 16 15  1  0  0  0  0
 16 18  1  0  0  0  0
 16 17  1  6  0  0  0
 18  2  1  6  0  0  0
 18 19  1  0  0  0  0
 19 21  1  0  0  0  0
 19 20  1  1  0  0  0
 21 22  1  1  0  0  0
 23 20  1  6  0  0  0
 23 29  1  0  0  0  0
 23 24  1  0  0  0  0
 24 26  1  0  0  0  0
 24 25  1  1  0  0  0
 26 27  1  1  0  0  0
 28 26  1  0  0  0  0
 28 30  1  6  0  0  0
 29 28  1  0  0  0  0
 30 31  1  0  0  0  0
 32 27  1  1  0  0  0
 32 40  1  0  0  0  0
 32 33  1  0  0  0  0
 33 35  1  0  0  0  0
 33 34  1  6  0  0  0
 35 37  1  0  0  0  0
 35 36  1  1  0  0  0
 37 38  1  1  0  0  0
 39 37  1  0  0  0  0
 39 41  1  6  0  0  0
 40 39  1  0  0  0  0
 42 41  1  0  0  0  0
M  END
>  <CHROM.1>
-160.22322278,-164.17900302,-30.52856184,-146.53300809,172.31379662,53.75120792
177.69473647,-55.46015634,173.07397390,-178.61271651,134.35152086,69.61997349
-179.20516693,-162.11237376,-146.87861689,175.72059294,-174.77778808,150.04090415
-175.85492185,172.43831955,92.81300667,-58.83848680,0.03097200,2.92165949
3.00620582,-1.36315568,1.06451819,1.36125838

>  <Name>
lig.pdb

>  <RI>
224

>  <Rbt.Current_Directory>
/home/itssahil/PROJECTS/Mol_Feturizer/New_Systems/rnas/2mxs

>  <Rbt.Executable>
rbdock ($Id: //depot/dev/client3/rdock/2013.1/src/exe/rbdock.cxx#4 $)

>  <Rbt.Library>
libRbt.so (2013.1, Build901 2013/11/27)

>  <Rbt.Parameter_File>
/export/apps/rDock/src/rDock_2013.1_src/data/scripts/dock_solv.prm

>  <Rbt.Receptor>
prm/pocket_docking_2.prm

>  <SCORE>
-44.2284

>  <SCORE.INTER>
-48.7925

>  <SCORE.INTER.CONST>
1

>  <SCORE.INTER.POLAR>
-6.88004

>  <SCORE.INTER.ROT>
9

>  <SCORE.INTER.SOLV>
18.1364

>  <SCORE.INTER.VDW>
-25.2403

>  <SCORE.INTER.norm>
-1.16173

>  <SCORE.INTRA>
3.44816

>  <SCORE.INTRA.DIHEDRAL>
-2.3964

>  <SCORE.INTRA.DIHEDRAL.0>
30.1357

>  <SCORE.INTRA.POLAR>
0.553041

>  <SCORE.INTRA.POLAR.0>
-0.631696

>  <SCORE.INTRA.REPUL>
0

>  <SCORE.INTRA.REPUL.0>
0

>  <SCORE.INTRA.SOLV>
-1.4748

>  <SCORE.INTRA.SOLV.lig_0>
-55.904

>  <SCORE.INTRA.VDW>
3.50342

>  <SCORE.INTRA.VDW.0>
-8.21197

>  <SCORE.INTRA.norm>
0.0820991

>  <SCORE.RESTR>
1.11595

>  <SCORE.RESTR.CAVITY>
1.11595

>  <SCORE.RESTR.norm>
0.0265703

>  <SCORE.SYSTEM>
0

>  <SCORE.SYSTEM.CONST>
0

>  <SCORE.SYSTEM.DIHEDRAL>
0

>  <SCORE.SYSTEM.SOLV>
0

>  <SCORE.SYSTEM.norm>
0

>  <SCORE.heavy>
42

>  <SCORE.norm>
-1.05306

>  <RMSD>
1.923

$$$$
lig.pdb
 OpenBabel11021811453D
libRbt.so/2013.1/901 2013/11/27
 42 45  0  0  0  0  0  0  0  0999 V2000
    0.5485    3.9902    0.4237 C   0  0  2  0  0  0  0  0  0  0  0  0
   -0.3268    3.1761   -0.3589 O   0  0  0  0  0  0  0  0  0  0  0  0
    0.1345    5.4676    0.3488 C   0  0  2  0  0  0  0  0  0  0  0  0
   -1.2778    5.6416    0.7354 N   0  0  0  0  0  0  0  0  0  0  0  0
    0.3977    6.0422   -1.0491 C   0  0  1  0  0  0  0  0  0  0  0  0
    0.1500    7.4351   -1.0386 O   0  0  0  0  0  0  0  0  0  0  0  0
    1.8549    5.7875   -1.4635 C   0  0  2  0  0  0  0  0  0  0  0  0
    2.0345    6.1810   -2.8105 O   0  0  0  0  0  0  0  0  0  0  0  0
    2.2388    4.3032   -1.2974 C   0  0  2  0  0  0  0  0  0  0  0  0
    1.9008    3.8252    0.0042 O   0  0  0  0  0  0  0  0  0  0  0  0
    3.7575    4.1734   -1.5212 C   0  0  0  0  0  0  0  0  0  0  0  0
    4.0876    3.9389   -2.9163 O   0  0  0  0  0  0  0  0  0  0  0  0
   -1.0323   -1.0700   -0.2975 C   0  0  2  0  0  0  0  0  0  0  0  0
   -0.5940   -2.4694   -0.1244 N   0  0  0  0  0  0  0  0  0  0  0  0
   -0.2564   -0.4068   -1.4381 C   0  0  0  0  0  0  0  0  0  0  0  0
   -0.6008    1.0750   -1.5313 C   0  0  2  0  0  0  0  0  0  0  0  0
    0.0720    1.6801   -2.6876 N   0  0  0  0  0  0  0  0  0  0  0  0
   -0.1955    1.7556   -0.2032 C   0  0  2  0  0  0  0  0  0  0  0  0
   -1.0670    1.2212    0.8879 C   0  0  2  0  0  0  0  0  0  0  0  0
   -0.7084    1.8866    2.0850 O   0  0  0  0  0  0  0  0  0  0  0  0
   -0.8672   -0.2774    1.0128 C   0  0  1  0  0  0  0  0  0  0  0  0
   -1.7312   -0.8503    1.9763 O   0  0  0  0  0  0  0  0  0  0  0  0
   -1.5711    1.7417    3.2082 C   0  0  1  0  0  0  0  0  0  0  0  0
   -0.7237    1.2670    4.3905 C   0  0  2  0  0  0  0  0  0  0  0  0
   -1.4835    0.3730    5.1819 O   0  0  0  0  0  0  0  0  0  0  0  0
   -0.4026    2.5807    5.1158 C   0  0  2  0  0  0  0  0  0  0  0  0
   -0.0419    2.3840    6.4832 O   0  0  0  0  0  0  0  0  0  0  0  0
   -1.7213    3.3331    4.8991 C   0  0  2  0  0  0  0  0  0  0  0  0
   -2.1030    3.0101    3.5693 O   0  0  0  0  0  0  0  0  0  0  0  0
   -1.6096    4.8567    5.0290 C   0  0  0  0  0  0  0  0  0  0  0  0
   -1.0579    5.4385    3.8670 O   0  0  0  0  0  0  0  0  0  0  0  0
   -0.1718    3.5425    7.3048 C   0  0  2  0  0  0  0  0  0  0  0  0
    1.1860    4.0109    7.8497 C   0  0  2  0  0  0  0  0  0  0  0  0
    2.1432    4.2369    6.7539 N   0  0  0  0  0  0  0  0  0  0  0  0
    1.7398    3.0201    8.8847 C   0  0  1  0  0  0  0  0  0  0  0  0
    2.9430    3.5438    9.4125 O   0  0  0  0  0  0  0  0  0  0  0  0
    0.6979    2.8530   10.0038 C   0  0  2  0  0  0  0  0  0  0  0  0
    1.1417    1.9137   10.9657 O   0  0  0  0  0  0  0  0  0  0  0  0
   -0.6690    2.4296    9.4278 C   0  0  1  0  0  0  0  0  0  0  0  0
   -1.0847    3.3001    8.3730 O   0  0  0  0  0  0  0  0  0  0  0  0
   -0.7216    0.9533    9.0076 C   0  0  0  0  0  0  0  0  0  0  0  0
   -1.8902    0.6797    8.1556 N   0  0  0  0  0  0  0  0  0  0  0  0
  1  3  1  0  0  0  0
  1  2  1  6  0  0  0
  3  4  1  6  0  0  0
  5  6  1  1  0  0  0
  5  3  1  0  0  0  0
  7  9  1  0  0  0  0
  7  5  1  0  0  0  0
  7  8  1  6  0  0  0
  9 10  1  0  0  0  0
  9 11  1  1  0  0  0
 10  1  1  0  0  0  0
 11 12  1  0  0  0  0
 13 14  1  1  0  0  0
 13 21  1  0  0  0  0
 15 13  1  0  0  0  0
 16 15  1  0  0  0  0
 16 18  1  0  0  0  0
 16 17  1  6  0  0  0
 18  2  1  6  0  0  0
 18 19  1  0  0  0  0
 19 21  1  0  0  0  0
 19 20  1  1  0  0  0
 21 22  1  1  0  0  0
 23 20  1  6  0  0  0
 23 29  1  0  0  0  0
 23 24  1  0  0  0  0
 24 26  1  0  0  0  0
 24 25  1  1  0  0  0
 26 27  1  1  0  0  0
 28 26  1  0  0  0  0
 28 30  1  6  0  0  0
 29 28  1  0  0  0  0
 30 31  1  0  0  0  0
 32 27  1  1  0  0  0
 32 40  1  0  0  0  0
 32 33  1  0  0  0  0
 33 35  1  0  0  0  0
 33 34  1  6  0  0  0
 35 37  1  0  0  0  0
 35 36  1  1  0  0  0
 37 38  1  1  0  0  0
 39 37  1  0  0  0  0
 39 41  1  6  0  0  0
 40 39  1  0  0  0  0
 42 41  1  0  0  0  0
M  END
>  <CHROM.1>
-150.70756917,-169.90675540,-42.10527561,-70.78687979,-173.97356924,-69.83685399
-89.43555036,-93.80077289,64.53805344,167.86997224,126.86740565,158.18328867
-46.76328215,-159.92483500,-115.71238191,78.44171044,-61.98641947,-68.46795549
59.64861575,65.48283399,-165.11924052,4.06908330,0.08555615,2.81751323,3.01091799
-1.38005335,1.15114898,1.48698706

>  <Name>
lig.pdb

>  <RI>
224

>  <Rbt.Current_Directory>
/home/itssahil/PROJECTS/Mol_Feturizer/New_Systems/rnas/2mxs

>  <Rbt.Executable>
rbdock ($Id: //depot/dev/client3/rdock/2013.1/src/exe/rbdock.cxx#4 $)

>  <Rbt.Library>
libRbt.so (2013.1, Build901 2013/11/27)

>  <Rbt.Parameter_File>
/export/apps/rDock/src/rDock_2013.1_src/data/scripts/dock_solv.prm

>  <Rbt.Receptor>
prm/pocket_docking_2.prm

>  <SCORE>
-42.6437

>  <SCORE.INTER>
-45.5753

>  <SCORE.INTER.CONST>
1

>  <SCORE.INTER.POLAR>
-6.17011

>  <SCORE.INTER.ROT>
9

>  <SCORE.INTER.SOLV>
17.4778

>  <SCORE.INTER.VDW>
-25.2425

>  <SCORE.INTER.norm>
-1.08513

>  <SCORE.INTRA>
1.47736

>  <SCORE.INTRA.DIHEDRAL>
6.20061

>  <SCORE.INTRA.DIHEDRAL.0>
30.1357

>  <SCORE.INTRA.POLAR>
-1.6957

>  <SCORE.INTRA.POLAR.0>
-0.631696

>  <SCORE.INTRA.REPUL>
0

>  <SCORE.INTRA.REPUL.0>
0

>  <SCORE.INTRA.SOLV>
1.15968

>  <SCORE.INTRA.SOLV.lig_0>
-55.904

>  <SCORE.INTRA.VDW>
3.5626

>  <SCORE.INTRA.VDW.0>
-8.21197

>  <SCORE.INTRA.norm>
0.0351753

>  <SCORE.RESTR>
1.45425

>  <SCORE.RESTR.CAVITY>
1.45425

>  <SCORE.RESTR.norm>
0.0346251

>  <SCORE.SYSTEM>
0

>  <SCORE.SYSTEM.CONST>
0

>  <SCORE.SYSTEM.DIHEDRAL>
0

>  <SCORE.SYSTEM.SOLV>
0

>  <SCORE.SYSTEM.norm>
0

>  <SCORE.heavy>
42

>  <SCORE.norm>
-1.01533

>  <RMSD>
1.924

$$$$
lig.pdb
 OpenBabel11021811453D
libRbt.so/2013.1/901 2013/11/27
 42 45  0  0  0  0  0  0  0  0999 V2000
    0.9235    4.2920    0.2554 C   0  0  2  0  0  0  0  0  0  0  0  0
    0.0829    3.4305   -0.5145 O   0  0  0  0  0  0  0  0  0  0  0  0
    0.4214    5.7425    0.1958 C   0  0  2  0  0  0  0  0  0  0  0  0
   -0.9910    5.8310    0.6102 N   0  0  0  0  0  0  0  0  0  0  0  0
    0.6231    6.3372   -1.2039 C   0  0  1  0  0  0  0  0  0  0  0  0
    0.2937    7.7129   -1.1817 O   0  0  0  0  0  0  0  0  0  0  0  0
    2.0845    6.1709   -1.6472 C   0  0  2  0  0  0  0  0  0  0  0  0
    2.2145    6.5796   -2.9954 O   0  0  0  0  0  0  0  0  0  0  0  0
    2.5587    4.7113   -1.4961 C   0  0  2  0  0  0  0  0  0  0  0  0
    2.2747    4.2090   -0.1906 O   0  0  0  0  0  0  0  0  0  0  0  0
    4.0778    4.6726   -1.7493 C   0  0  0  0  0  0  0  0  0  0  0  0
    4.6950    3.4790   -1.1973 O   0  0  0  0  0  0  0  0  0  0  0  0
   -0.7006   -0.7790   -0.0698 C   0  0  2  0  0  0  0  0  0  0  0  0
   -0.2783   -2.1720    0.1780 N   0  0  0  0  0  0  0  0  0  0  0  0
   -0.0020   -0.2247   -1.3140 C   0  0  0  0  0  0  0  0  0  0  0  0
   -0.3229    1.2541   -1.4959 C   0  0  2  0  0  0  0  0  0  0  0  0
    0.2704    1.7519   -2.7433 N   0  0  0  0  0  0  0  0  0  0  0  0
    0.1974    2.0230   -0.2591 C   0  0  2  0  0  0  0  0  0  0  0  0
   -0.5977    1.5959    0.9329 C   0  0  2  0  0  0  0  0  0  0  0  0
   -0.1343    2.3409    2.0441 O   0  0  0  0  0  0  0  0  0  0  0  0
   -0.4188    0.1065    1.1586 C   0  0  1  0  0  0  0  0  0  0  0  0
   -1.2170   -0.3690    2.2262 O   0  0  0  0  0  0  0  0  0  0  0  0
   -1.0797    2.6878    3.0505 C   0  0  1  0  0  0  0  0  0  0  0  0
   -0.4085    2.4882    4.4111 C   0  0  2  0  0  0  0  0  0  0  0  0
   -1.3651    2.0132    5.3396 O   0  0  0  0  0  0  0  0  0  0  0  0
    0.0944    3.8998    4.7419 C   0  0  2  0  0  0  0  0  0  0  0  0
    0.3254    4.0920    6.1378 O   0  0  0  0  0  0  0  0  0  0  0  0
   -1.0521    4.7342    4.1577 C   0  0  2  0  0  0  0  0  0  0  0  0
   -1.3988    4.0700    2.9507 O   0  0  0  0  0  0  0  0  0  0  0  0
   -0.6789    6.1863    3.8375 C   0  0  0  0  0  0  0  0  0  0  0  0
   -1.7661    6.8912    3.2768 O   0  0  0  0  0  0  0  0  0  0  0  0
    0.8915    5.3560    6.4782 C   0  0  2  0  0  0  0  0  0  0  0  0
    2.0313    5.2146    7.4985 C   0  0  2  0  0  0  0  0  0  0  0  0
    3.0607    4.2811    7.0116 N   0  0  0  0  0  0  0  0  0  0  0  0
    1.4945    4.7921    8.8743 C   0  0  1  0  0  0  0  0  0  0  0  0
    2.5724    4.7623    9.7898 O   0  0  0  0  0  0  0  0  0  0  0  0
    0.4449    5.8225    9.3242 C   0  0  2  0  0  0  0  0  0  0  0  0
   -0.1149    5.4559   10.5718 O   0  0  0  0  0  0  0  0  0  0  0  0
   -0.6629    5.9826    8.2626 C   0  0  1  0  0  0  0  0  0  0  0  0
   -0.1140    6.2403    6.9682 O   0  0  0  0  0  0  0  0  0  0  0  0
   -1.6588    4.8135    8.2410 C   0  0  0  0  0  0  0  0  0  0  0  0
   -2.7177    5.0297    7.2420 N   0  0  0  0  0  0  0  0  0  0  0  0
  1  3  1  0  0  0  0
  1  2  1  6  0  0  0
  3  4  1  6  0  0  0
  5  6  1  1  0  0  0
  5  3  1  0  0  0  0
  7  9  1  0  0  0  0
  7  5  1  0  0  0  0
  7  8  1  6  0  0  0
  9 10  1  0  0  0  0
  9 11  1  1  0  0  0
 10  1  1  0  0  0  0
 11 12  1  0  0  0  0
 13 14  1  1  0  0  0
 13 21  1  0  0  0  0
 15 13  1  0  0  0  0
 16 15  1  0  0  0  0
 16 18  1  0  0  0  0
 16 17  1  6  0  0  0
 18  2  1  6  0  0  0
 18 19  1  0  0  0  0
 19 21  1  0  0  0  0
 19 20  1  1  0  0  0
 21 22  1  1  0  0  0
 23 20  1  6  0  0  0
 23 29  1  0  0  0  0
 23 24  1  0  0  0  0
 24 26  1  0  0  0  0
 24 25  1  1  0  0  0
 26 27  1  1  0  0  0
 28 26  1  0  0  0  0
 28 30  1  6  0  0  0
 29 28  1  0  0  0  0
 30 31  1  0  0  0  0
 32 27  1  1  0  0  0
 32 40  1  0  0  0  0
 32 33  1  0  0  0  0
 33 35  1  0  0  0  0
 33 34  1  6  0  0  0
 35 37  1  0  0  0  0
 35 36  1  1  0  0  0
 37 38  1  1  0  0  0
 39 37  1  0  0  0  0
 39 41  1  6  0  0  0
 40 39  1  0  0  0  0
 42 41  1  0  0  0  0
M  END
>  <CHROM.1>
-158.04773236,-163.17087488,119.09743606,-63.71668111,-169.40510719,162.26130067
160.22023737,127.00106412,-59.08244667,146.88267505,138.44030960,70.81552350
59.95652073,175.38983141,-135.51126885,178.69567757,67.96910418,-65.49401511
-66.31106673,-179.42718504,178.30774073,174.15066400,0.33005359,3.89664159
2.81066593,-1.31048861,1.22150559,1.11387666

>  <Name>
lig.pdb

>  <RI>
0

>  <Rbt.Current_Directory>
/home/itssahil/PROJECTS/Mol_Feturizer/New_Systems/rnas/2mxs

>  <Rbt.Executable>
rbdock ($Id: //depot/dev/client3/rdock/2013.1/src/exe/rbdock.cxx#4 $)

>  <Rbt.Library>
libRbt.so (2013.1, Build901 2013/11/27)

>  <Rbt.Parameter_File>
/export/apps/rDock/src/rDock_2013.1_src/data/scripts/dock_solv.prm

>  <Rbt.Receptor>
prm/pocket_docking_3.prm

>  <SCORE>
-52.222

>  <SCORE.INTER>
-53.5133

>  <SCORE.INTER.CONST>
1

>  <SCORE.INTER.POLAR>
-7.18092

>  <SCORE.INTER.ROT>
9

>  <SCORE.INTER.SOLV>
18.6626

>  <SCORE.INTER.VDW>
-27.56

>  <SCORE.INTER.norm>
-1.27413

>  <SCORE.INTRA>
1.29127

>  <SCORE.INTRA.DIHEDRAL>
1.58306

>  <SCORE.INTRA.DIHEDRAL.0>
30.1357

>  <SCORE.INTRA.POLAR>
-0.668599

>  <SCORE.INTRA.POLAR.0>
-0.631696

>  <SCORE.INTRA.REPUL>
0

>  <SCORE.INTRA.REPUL.0>
0

>  <SCORE.INTRA.SOLV>
-0.356624

>  <SCORE.INTRA.SOLV.lig_0>
-55.904

>  <SCORE.INTRA.VDW>
2.95129

>  <SCORE.INTRA.VDW.0>
-8.21197

>  <SCORE.INTRA.norm>
0.0307446

>  <SCORE.RESTR>
0

>  <SCORE.RESTR.CAVITY>
0

>  <SCORE.RESTR.norm>
0

>  <SCORE.SYSTEM>
0

>  <SCORE.SYSTEM.CONST>
0

>  <SCORE.SYSTEM.DIHEDRAL>
0

>  <SCORE.SYSTEM.SOLV>
0

>  <SCORE.SYSTEM.norm>
0

>  <SCORE.heavy>
42

>  <SCORE.norm>
-1.24338

>  <RMSD>
1.933

$$$$
lig.pdb
 OpenBabel11021811453D
libRbt.so/2013.1/901 2013/11/27
 42 45  0  0  0  0  0  0  0  0999 V2000
    0.3517    3.7376    0.2581 C   0  0  2  0  0  0  0  0  0  0  0  0
   -0.3937    2.9158   -0.6421 O   0  0  0  0  0  0  0  0  0  0  0  0
   -0.0283    5.2166    0.0911 C   0  0  2  0  0  0  0  0  0  0  0  0
   -1.4827    5.4092    0.2397 N   0  0  0  0  0  0  0  0  0  0  0  0
    0.4649    5.7624   -1.2551 C   0  0  1  0  0  0  0  0  0  0  0  0
    0.2341    7.1572   -1.3094 O   0  0  0  0  0  0  0  0  0  0  0  0
    1.9671    5.4883   -1.4224 C   0  0  2  0  0  0  0  0  0  0  0  0
    2.3676    5.8546   -2.7288 O   0  0  0  0  0  0  0  0  0  0  0  0
    2.3027    4.0043   -1.1702 C   0  0  2  0  0  0  0  0  0  0  0  0
    1.7523    3.5538    0.0672 O   0  0  0  0  0  0  0  0  0  0  0  0
    3.8360    3.8582   -1.1416 C   0  0  0  0  0  0  0  0  0  0  0  0
    4.4205    3.9574   -2.4678 O   0  0  0  0  0  0  0  0  0  0  0  0
   -1.6349   -1.1799   -0.1778 C   0  0  2  0  0  0  0  0  0  0  0  0
   -1.3823   -2.5971    0.1510 N   0  0  0  0  0  0  0  0  0  0  0  0
   -0.7555   -0.7411   -1.3513 C   0  0  0  0  0  0  0  0  0  0  0  0
   -0.9064    0.7541   -1.6056 C   0  0  2  0  0  0  0  0  0  0  0  0
   -0.1364    1.1467   -2.7925 N   0  0  0  0  0  0  0  0  0  0  0  0
   -0.4477    1.5141   -0.3394 C   0  0  2  0  0  0  0  0  0  0  0  0
   -1.4044    1.2092    0.7684 C   0  0  2  0  0  0  0  0  0  0  0  0
   -0.9908    1.9463    1.9043 O   0  0  0  0  0  0  0  0  0  0  0  0
   -1.3997   -0.2813    1.0509 C   0  0  1  0  0  0  0  0  0  0  0  0
   -2.3509   -0.6386    2.0360 O   0  0  0  0  0  0  0  0  0  0  0  0
   -1.7833    1.8481    3.0830 C   0  0  1  0  0  0  0  0  0  0  0  0
   -0.8414    1.5789    4.2585 C   0  0  2  0  0  0  0  0  0  0  0  0
   -1.4774    0.7121    5.1789 O   0  0  0  0  0  0  0  0  0  0  0  0
   -0.6101    2.9859    4.8258 C   0  0  2  0  0  0  0  0  0  0  0  0
   -0.1695    2.9694    6.1838 O   0  0  0  0  0  0  0  0  0  0  0  0
   -2.0016    3.5926    4.6072 C   0  0  2  0  0  0  0  0  0  0  0  0
   -2.4131    3.0966    3.3412 O   0  0  0  0  0  0  0  0  0  0  0  0
   -2.0257    5.1252    4.5734 C   0  0  0  0  0  0  0  0  0  0  0  0
   -3.3462    5.6245    4.5681 O   0  0  0  0  0  0  0  0  0  0  0  0
   -0.6520    4.0510    6.9785 C   0  0  2  0  0  0  0  0  0  0  0  0
    0.4972    4.8768    7.5764 C   0  0  2  0  0  0  0  0  0  0  0  0
    1.4076    5.3526    6.5215 N   0  0  0  0  0  0  0  0  0  0  0  0
    1.2506    4.0806    8.6525 C   0  0  1  0  0  0  0  0  0  0  0  0
    2.2369    4.9171    9.2254 O   0  0  0  0  0  0  0  0  0  0  0  0
    0.2415    3.6383    9.7258 C   0  0  2  0  0  0  0  0  0  0  0  0
    0.8788    2.8612   10.7231 O   0  0  0  0  0  0  0  0  0  0  0  0
   -0.9271    2.8530    9.0956 C   0  0  1  0  0  0  0  0  0  0  0  0
   -1.5140    3.5714    8.0081 O   0  0  0  0  0  0  0  0  0  0  0  0
   -0.5522    1.4174    8.6990 C   0  0  0  0  0  0  0  0  0  0  0  0
   -1.6799    0.7283    8.0512 N   0  0  0  0  0  0  0  0  0  0  0  0
  1  3  1  0  0  0  0
  1  2  1  6  0  0  0
  3  4  1  6  0  0  0
  5  6  1  1  0  0  0
  5  3  1  0  0  0  0
  7  9  1  0  0  0  0
  7  5  1  0  0  0  0
  7  8  1  6  0  0  0
  9 10  1  0  0  0  0
  9 11  1  1  0  0  0
 10  1  1  0  0  0  0
 11 12  1  0  0  0  0
 13 14  1  1  0  0  0
 13 21  1  0  0  0  0
 15 13  1  0  0  0  0
 16 15  1  0  0  0  0
 16 18  1  0  0  0  0
 16 17  1  6  0  0  0
 18  2  1  6  0  0  0
 18 19  1  0  0  0  0
 19 21  1  0  0  0  0
 19 20  1  1  0  0  0
 21 22  1  1  0  0  0
 23 20  1  6  0  0  0
 23 29  1  0  0  0  0
 23 24  1  0  0  0  0
 24 26  1  0  0  0  0
 24 25  1  1  0  0  0
 26 27  1  1  0  0  0
 28 26  1  0  0  0  0
 28 30  1  6  0  0  0
 29 28  1  0  0  0  0
 30 31  1  0  0  0  0
 32 27  1  1  0  0  0
 32 40  1  0  0  0  0
 32 33  1  0  0  0  0
 33 35  1  0  0  0  0
 33 34  1  6  0  0  0
 35 37  1  0  0  0  0
 35 36  1  1  0  0  0
 37 38  1  1  0  0  0
 39 37  1  0  0  0  0
 39 41  1  6  0  0  0
 40 39  1  0  0  0  0
 42 41  1  0  0  0  0
M  END
>  <CHROM.1>
-163.07133240,-162.00333876,-58.27537464,-59.89801406,-173.82077115,-72.53026241
-73.86705709,46.41022048,-67.46081140,178.03416181,131.85295395,-57.36716729
-57.44979600,-145.28097913,-121.42219466,-171.30703346,177.34811402,-170.36073319
-67.84855896,-177.23721231,-177.56894131,12.61245639,-0.21368111,2.96200012
2.90470973,-1.36097748,1.06803067,1.35670779

>  <Name>
lig.pdb

>  <RI>
224

>  <Rbt.Current_Directory>
/home/itssahil/PROJECTS/Mol_Feturizer/New_Systems/rnas/2mxs

>  <Rbt.Executable>
rbdock ($Id: //depot/dev/client3/rdock/2013.1/src/exe/rbdock.cxx#4 $)

>  <Rbt.Library>
libRbt.so (2013.1, Build901 2013/11/27)

>  <Rbt.Parameter_File>
/export/apps/rDock/src/rDock_2013.1_src/data/scripts/dock_solv.prm

>  <Rbt.Receptor>
prm/pocket_docking_2.prm

>  <SCORE>
-42.8773

>  <SCORE.INTER>
-45.0183

>  <SCORE.INTER.CONST>
1

>  <SCORE.INTER.POLAR>
-6.73499

>  <SCORE.INTER.ROT>
9

>  <SCORE.INTER.SOLV>
16.3657

>  <SCORE.INTER.VDW>
-22.6175

>  <SCORE.INTER.norm>
-1.07186

>  <SCORE.INTRA>
1.71096

>  <SCORE.INTRA.DIHEDRAL>
-2.24525

>  <SCORE.INTRA.DIHEDRAL.0>
30.1357

>  <SCORE.INTRA.POLAR>
-0.646907

>  <SCORE.INTRA.POLAR.0>
-0.631696

>  <SCORE.INTRA.REPUL>
0

>  <SCORE.INTRA.REPUL.0>
0

>  <SCORE.INTRA.SOLV>
-0.339156

>  <SCORE.INTRA.SOLV.lig_0>
-55.904

>  <SCORE.INTRA.VDW>
5.20264

>  <SCORE.INTRA.VDW.0>
-8.21197

>  <SCORE.INTRA.norm>
0.0407371

>  <SCORE.RESTR>
0.430023

>  <SCORE.RESTR.CAVITY>
0.430023

>  <SCORE.RESTR.norm>
0.0102386

>  <SCORE.SYSTEM>
0

>  <SCORE.SYSTEM.CONST>
0

>  <SCORE.SYSTEM.DIHEDRAL>
0

>  <SCORE.SYSTEM.SOLV>
0

>  <SCORE.SYSTEM.norm>
0

>  <SCORE.heavy>
42

>  <SCORE.norm>
-1.02089

>  <RMSD>
1.961

$$$$
lig.pdb
 OpenBabel11021811453D
libRbt.so/2013.1/901 2013/11/27
 42 45  0  0  0  0  0  0  0  0999 V2000
    0.3582    3.8973    0.4879 C   0  0  2  0  0  0  0  0  0  0  0  0
   -0.5292    3.1114   -0.3099 O   0  0  0  0  0  0  0  0  0  0  0  0
   -0.0271    5.3833    0.4326 C   0  0  2  0  0  0  0  0  0  0  0  0
   -1.4375    5.5788    0.8161 N   0  0  0  0  0  0  0  0  0  0  0  0
    0.2530    5.9728   -0.9558 C   0  0  1  0  0  0  0  0  0  0  0  0
    0.0319    7.3698   -0.9262 O   0  0  0  0  0  0  0  0  0  0  0  0
    1.7067    5.6961   -1.3679 C   0  0  2  0  0  0  0  0  0  0  0  0
    1.8996    6.1053   -2.7084 O   0  0  0  0  0  0  0  0  0  0  0  0
    2.0615    4.2024   -1.2218 C   0  0  2  0  0  0  0  0  0  0  0  0
    1.7088    3.7124    0.0714 O   0  0  0  0  0  0  0  0  0  0  0  0
    3.5784    4.0468   -1.4413 C   0  0  0  0  0  0  0  0  0  0  0  0
    3.9683    4.3513   -2.8072 O   0  0  0  0  0  0  0  0  0  0  0  0
   -1.6494   -1.0357   -0.0314 C   0  0  2  0  0  0  0  0  0  0  0  0
   -1.3668   -2.4522    0.2748 N   0  0  0  0  0  0  0  0  0  0  0  0
   -0.7164   -0.5339   -1.1363 C   0  0  0  0  0  0  0  0  0  0  0  0
   -0.9048    0.9619   -1.3599 C   0  0  2  0  0  0  0  0  0  0  0  0
   -0.0785    1.4142   -2.4861 N   0  0  0  0  0  0  0  0  0  0  0  0
   -0.5515    1.7007   -0.0481 C   0  0  2  0  0  0  0  0  0  0  0  0
   -1.5623    1.3319    0.9900 C   0  0  2  0  0  0  0  0  0  0  0  0
   -1.2453    2.0499    2.1683 O   0  0  0  0  0  0  0  0  0  0  0  0
   -1.5216   -0.1650    1.2328 C   0  0  1  0  0  0  0  0  0  0  0  0
   -2.5177   -0.5824    2.1474 O   0  0  0  0  0  0  0  0  0  0  0  0
   -2.2354    2.1195    3.1890 C   0  0  1  0  0  0  0  0  0  0  0  0
   -1.6246    1.5525    4.4722 C   0  0  2  0  0  0  0  0  0  0  0  0
   -2.6199    0.8521    5.1946 O   0  0  0  0  0  0  0  0  0  0  0  0
   -1.1413    2.8170    5.1951 C   0  0  2  0  0  0  0  0  0  0  0  0
   -0.9730    2.6214    6.5995 O   0  0  0  0  0  0  0  0  0  0  0  0
   -2.2635    3.7887    4.8098 C   0  0  2  0  0  0  0  0  0  0  0  0
   -2.5543    3.4797    3.4540 O   0  0  0  0  0  0  0  0  0  0  0  0
   -1.8811    5.2699    4.9120 C   0  0  0  0  0  0  0  0  0  0  0  0
   -2.2840    5.9912    3.7673 O   0  0  0  0  0  0  0  0  0  0  0  0
   -0.8349    3.8233    7.3547 C   0  0  2  0  0  0  0  0  0  0  0  0
    0.5980    4.3741    7.2937 C   0  0  2  0  0  0  0  0  0  0  0  0
    1.0291    4.5661    5.8989 N   0  0  0  0  0  0  0  0  0  0  0  0
    1.5724    3.4705    8.0641 C   0  0  1  0  0  0  0  0  0  0  0  0
    2.8536    4.0697    8.0467 O   0  0  0  0  0  0  0  0  0  0  0  0
    1.0696    3.3355    9.5115 C   0  0  2  0  0  0  0  0  0  0  0  0
    1.9114    2.4749   10.2564 O   0  0  0  0  0  0  0  0  0  0  0  0
   -0.3865    2.8274    9.5456 C   0  0  1  0  0  0  0  0  0  0  0  0
   -1.2353    3.6148    8.7072 O   0  0  0  0  0  0  0  0  0  0  0  0
   -0.5149    1.3268    9.2444 C   0  0  0  0  0  0  0  0  0  0  0  0
    0.1665    0.5148   10.2655 N   0  0  0  0  0  0  0  0  0  0  0  0
  1  3  1  0  0  0  0
  1  2  1  6  0  0  0
  3  4  1  6  0  0  0
  5  6  1  1  0  0  0
  5  3  1  0  0  0  0
  7  9  1  0  0  0  0
  7  5  1  0  0  0  0
  7  8  1  6  0  0  0
  9 10  1  0  0  0  0
  9 11  1  1  0  0  0
 10  1  1  0  0  0  0
 11 12  1  0  0  0  0
 13 14  1  1  0  0  0
 13 21  1  0  0  0  0
 15 13  1  0  0  0  0
 16 15  1  0  0  0  0
 16 18  1  0  0  0  0
 16 17  1  6  0  0  0
 18  2  1  6  0  0  0
 18 19  1  0  0  0  0
 19 21  1  0  0  0  0
 19 20  1  1  0  0  0
 21 22  1  1  0  0  0
 23 20  1  6  0  0  0
 23 29  1  0  0  0  0
 23 24  1  0  0  0  0
 24 26  1  0  0  0  0
 24 25  1  1  0  0  0
 26 27  1  1  0  0  0
 28 26  1  0  0  0  0
 28 30  1  6  0  0  0
 29 28  1  0  0  0  0
 30 31  1  0  0  0  0
 32 27  1  6  0  0  0
 32 40  1  0  0  0  0
 32 33  1  0  0  0  0
 33 35  1  0  0  0  0
 33 34  1  6  0  0  0
 35 37  1  0  0  0  0
 35 36  1  1  0  0  0
 37 38  1  1  0  0  0
 39 37  1  0  0  0  0
 39 41  1  6  0  0  0
 40 39  1  0  0  0  0
 42 41  1  0  0  0  0
M  END
>  <CHROM.1>
-150.23344072,-161.92339627,-159.27788939,-164.25374484,-173.00820211,-170.07743496
-66.74293166,166.54253702,-49.05217616,165.13222674,122.85554091,-64.53386558
-173.37897301,-165.92580268,-80.92984322,133.62355835,94.47276173,-58.64578643
-72.08586037,63.61081417,63.29104463,-161.00725552,-0.21639465,2.98599592
3.03407947,-1.43224629,1.08715138,1.51587600

>  <Name>
lig.pdb

>  <RI>
224

>  <Rbt.Current_Directory>
/home/itssahil/PROJECTS/Mol_Feturizer/New_Systems/rnas/2mxs

>  <Rbt.Executable>
rbdock ($Id: //depot/dev/client3/rdock/2013.1/src/exe/rbdock.cxx#4 $)

>  <Rbt.Library>
libRbt.so (2013.1, Build901 2013/11/27)

>  <Rbt.Parameter_File>
/export/apps/rDock/src/rDock_2013.1_src/data/scripts/dock_solv.prm

>  <Rbt.Receptor>
prm/pocket_docking_2.prm

>  <SCORE>
-41.1758

>  <SCORE.INTER>
-40.9424

>  <SCORE.INTER.CONST>
1

>  <SCORE.INTER.POLAR>
-5.66482

>  <SCORE.INTER.ROT>
9

>  <SCORE.INTER.SOLV>
17.3519

>  <SCORE.INTER.VDW>
-23.7962

>  <SCORE.INTER.norm>
-0.97482

>  <SCORE.INTRA>
-0.616408

>  <SCORE.INTRA.DIHEDRAL>
1.33983

>  <SCORE.INTRA.DIHEDRAL.0>
30.1357

>  <SCORE.INTRA.POLAR>
-2.05929

>  <SCORE.INTRA.POLAR.0>
-0.631696

>  <SCORE.INTRA.REPUL>
0

>  <SCORE.INTRA.REPUL.0>
0

>  <SCORE.INTRA.SOLV>
1.0953

>  <SCORE.INTRA.SOLV.lig_0>
-55.904

>  <SCORE.INTRA.VDW>
5.16761

>  <SCORE.INTRA.VDW.0>
-8.21197

>  <SCORE.INTRA.norm>
-0.0146764

>  <SCORE.RESTR>
0.38306

>  <SCORE.RESTR.CAVITY>
0.38306

>  <SCORE.RESTR.norm>
0.00912047

>  <SCORE.SYSTEM>
0

>  <SCORE.SYSTEM.CONST>
0

>  <SCORE.SYSTEM.DIHEDRAL>
0

>  <SCORE.SYSTEM.SOLV>
0

>  <SCORE.SYSTEM.norm>
0

>  <SCORE.heavy>
42

>  <SCORE.norm>
-0.980376

>  <RMSD>
1.974

$$$$
lig.pdb
 OpenBabel11021811453D
libRbt.so/2013.1/901 2013/11/27
 42 45  0  0  0  0  0  0  0  0999 V2000
    0.3065    3.7804    0.2775 C   0  0  2  0  0  0  0  0  0  0  0  0
   -0.4613    2.9399   -0.5861 O   0  0  0  0  0  0  0  0  0  0  0  0
   -0.0384    5.2598    0.0496 C   0  0  2  0  0  0  0  0  0  0  0  0
   -1.4873    5.4935    0.1932 N   0  0  0  0  0  0  0  0  0  0  0  0
    0.4636    5.7370   -1.3193 C   0  0  1  0  0  0  0  0  0  0  0  0
    0.2662    7.1334   -1.4313 O   0  0  0  0  0  0  0  0  0  0  0  0
    1.9582    5.4199   -1.4781 C   0  0  2  0  0  0  0  0  0  0  0  0
    2.3633    5.7216   -2.7996 O   0  0  0  0  0  0  0  0  0  0  0  0
    2.2588    3.9401   -1.1649 C   0  0  2  0  0  0  0  0  0  0  0  0
    1.7016    3.5550    0.0914 O   0  0  0  0  0  0  0  0  0  0  0  0
    3.7882    3.7583   -1.1334 C   0  0  0  0  0  0  0  0  0  0  0  0
    4.1718    2.3608   -1.0320 O   0  0  0  0  0  0  0  0  0  0  0  0
   -1.7202   -1.1370   -0.0162 C   0  0  2  0  0  0  0  0  0  0  0  0
   -1.4766   -2.5438    0.3602 N   0  0  0  0  0  0  0  0  0  0  0  0
   -0.8205   -0.7364   -1.1880 C   0  0  0  0  0  0  0  0  0  0  0  0
   -0.9634    0.7505   -1.4908 C   0  0  2  0  0  0  0  0  0  0  0  0
   -0.1729    1.1047   -2.6763 N   0  0  0  0  0  0  0  0  0  0  0  0
   -0.5237    1.5484   -0.2411 C   0  0  2  0  0  0  0  0  0  0  0  0
   -1.4994    1.2797    0.8595 C   0  0  2  0  0  0  0  0  0  0  0  0
   -1.1029    2.0507    1.9788 O   0  0  0  0  0  0  0  0  0  0  0  0
   -1.5031   -0.2013    1.1879 C   0  0  1  0  0  0  0  0  0  0  0  0
   -2.4714   -0.5261    2.1676 O   0  0  0  0  0  0  0  0  0  0  0  0
   -1.9175    1.9942    3.1450 C   0  0  1  0  0  0  0  0  0  0  0  0
   -1.0926    1.3491    4.2607 C   0  0  2  0  0  0  0  0  0  0  0  0
   -1.9387    0.5505    5.0664 O   0  0  0  0  0  0  0  0  0  0  0  0
   -0.5350    2.5686    5.0070 C   0  0  2  0  0  0  0  0  0  0  0  0
   -0.1377    2.2648    6.3444 O   0  0  0  0  0  0  0  0  0  0  0  0
   -1.7314    3.5211    4.8910 C   0  0  2  0  0  0  0  0  0  0  0  0
   -2.2276    3.3134    3.5761 O   0  0  0  0  0  0  0  0  0  0  0  0
   -1.3792    5.0034    5.0619 C   0  0  0  0  0  0  0  0  0  0  0  0
   -0.1800    5.3334    4.3941 O   0  0  0  0  0  0  0  0  0  0  0  0
   -0.2039    3.3656    7.2488 C   0  0  2  0  0  0  0  0  0  0  0  0
    1.1104    3.5480    8.0230 C   0  0  2  0  0  0  0  0  0  0  0  0
    2.2504    3.6813    7.1006 N   0  0  0  0  0  0  0  0  0  0  0  0
    1.3278    2.4032    9.0238 C   0  0  1  0  0  0  0  0  0  0  0  0
    2.5031    2.6682    9.7647 O   0  0  0  0  0  0  0  0  0  0  0  0
    0.1113    2.3408    9.9630 C   0  0  2  0  0  0  0  0  0  0  0  0
    0.2414    1.2711   10.8814 O   0  0  0  0  0  0  0  0  0  0  0  0
   -1.1997    2.2064    9.1613 C   0  0  1  0  0  0  0  0  0  0  0  0
   -1.2990    3.2104    8.1486 O   0  0  0  0  0  0  0  0  0  0  0  0
   -1.4255    0.7965    8.5955 C   0  0  0  0  0  0  0  0  0  0  0  0
   -2.7400    0.6848    7.9430 N   0  0  0  0  0  0  0  0  0  0  0  0
  1  3  1  0  0  0  0
  1  2  1  6  0  0  0
  3  4  1  6  0  0  0
  5  6  1  1  0  0  0
  5  3  1  0  0  0  0
  7  9  1  0  0  0  0
  7  5  1  0  0  0  0
  7  8  1  6  0  0  0
  9 10  1  0  0  0  0
  9 11  1  1  0  0  0
 10  1  1  0  0  0  0
 11 12  1  0  0  0  0
 13 14  1  1  0  0  0
 13 21  1  0  0  0  0
 15 13  1  0  0  0  0
 16 15  1  0  0  0  0
 16 18  1  0  0  0  0
 16 17  1  6  0  0  0
 18  2  1  6  0  0  0
 18 19  1  0  0  0  0
 19 21  1  0  0  0  0
 19 20  1  1  0  0  0
 21 22  1  1  0  0  0
 23 20  1  6  0  0  0
 23 29  1  0  0  0  0
 23 24  1  0  0  0  0
 24 26  1  0  0  0  0
 24 25  1  1  0  0  0
 26 27  1  1  0  0  0
 28 26  1  0  0  0  0
 28 30  1  6  0  0  0
 29 28  1  0  0  0  0
 30 31  1  0  0  0  0
 32 27  1  6  0  0  0
 32 40  1  0  0  0  0
 32 33  1  0  0  0  0
 33 35  1  0  0  0  0
 33 34  1  6  0  0  0
 35 37  1  0  0  0  0
 35 36  1  1  0  0  0
 37 38  1  1  0  0  0
 39 37  1  0  0  0  0
 39 41  1  6  0  0  0
 40 39  1  0  0  0  0
 42 41  1  0  0  0  0
M  END
>  <CHROM.1>
-161.14924737,-163.33009718,-175.94282606,64.67079421,65.94154631,57.27360853
-171.89528081,-44.38674283,179.23087437,177.81550144,114.95670996,-55.91997509
55.06572108,-152.50669922,-128.90100576,41.53778115,65.98976980,60.86039400
177.08559337,-49.78468244,174.94924076,-17.72968210,-0.16622501,2.58770964
3.05302847,-1.39102606,1.03620722,1.51731775

>  <Name>
lig.pdb

>  <RI>
224

>  <Rbt.Current_Directory>
/home/itssahil/PROJECTS/Mol_Feturizer/New_Systems/rnas/2mxs

>  <Rbt.Executable>
rbdock ($Id: //depot/dev/client3/rdock/2013.1/src/exe/rbdock.cxx#4 $)

>  <Rbt.Library>
libRbt.so (2013.1, Build901 2013/11/27)

>  <Rbt.Parameter_File>
/export/apps/rDock/src/rDock_2013.1_src/data/scripts/dock_solv.prm

>  <Rbt.Receptor>
prm/pocket_docking_2.prm

>  <SCORE>
-39.1739

>  <SCORE.INTER>
-39.79

>  <SCORE.INTER.CONST>
1

>  <SCORE.INTER.POLAR>
-5.48644

>  <SCORE.INTER.ROT>
9

>  <SCORE.INTER.SOLV>
18.6464

>  <SCORE.INTER.VDW>
-24.054

>  <SCORE.INTER.norm>
-0.94738

>  <SCORE.INTRA>
-0.190254

>  <SCORE.INTRA.DIHEDRAL>
-3.4327

>  <SCORE.INTRA.DIHEDRAL.0>
30.1357

>  <SCORE.INTRA.POLAR>
-0.622818

>  <SCORE.INTRA.POLAR.0>
-0.631696

>  <SCORE.INTRA.REPUL>
0

>  <SCORE.INTRA.REPUL.0>
0

>  <SCORE.INTRA.SOLV>
0.414139

>  <SCORE.INTRA.SOLV.lig_0>
-55.904

>  <SCORE.INTRA.VDW>
3.43661

>  <SCORE.INTRA.VDW.0>
-8.21197

>  <SCORE.INTRA.norm>
-0.00452986

>  <SCORE.RESTR>
0.806267

>  <SCORE.RESTR.CAVITY>
0.806267

>  <SCORE.RESTR.norm>
0.0191968

>  <SCORE.SYSTEM>
0

>  <SCORE.SYSTEM.CONST>
0

>  <SCORE.SYSTEM.DIHEDRAL>
0

>  <SCORE.SYSTEM.SOLV>
0

>  <SCORE.SYSTEM.norm>
0

>  <SCORE.heavy>
42

>  <SCORE.norm>
-0.932713

>  <RMSD>
1.977

$$$$
lig.pdb
 OpenBabel11021811453D
libRbt.so/2013.1/901 2013/11/27
 42 45  0  0  0  0  0  0  0  0999 V2000
    1.5769    3.9859   -0.0647 C   0  0  2  0  0  0  0  0  0  0  0  0
    0.4364    3.6149   -0.8413 O   0  0  0  0  0  0  0  0  0  0  0  0
    1.5826    5.4969    0.2118 C   0  0  2  0  0  0  0  0  0  0  0  0
    0.3199    5.9242    0.8423 N   0  0  0  0  0  0  0  0  0  0  0  0
    1.8526    6.2901   -1.0733 C   0  0  1  0  0  0  0  0  0  0  0  0
    2.0024    7.6608   -0.7565 O   0  0  0  0  0  0  0  0  0  0  0  0
    3.1330    5.7820   -1.7531 C   0  0  2  0  0  0  0  0  0  0  0  0
    3.2782    6.4138   -3.0106 O   0  0  0  0  0  0  0  0  0  0  0  0
    3.1059    4.2512   -1.9380 C   0  0  2  0  0  0  0  0  0  0  0  0
    2.7814    3.5895   -0.7158 O   0  0  0  0  0  0  0  0  0  0  0  0
    4.4989    3.8021   -2.4189 C   0  0  0  0  0  0  0  0  0  0  0  0
    5.5686    4.4970   -1.7239 O   0  0  0  0  0  0  0  0  0  0  0  0
   -2.4008    0.4140   -0.3560 C   0  0  2  0  0  0  0  0  0  0  0  0
   -2.7791   -0.9500    0.0642 N   0  0  0  0  0  0  0  0  0  0  0  0
   -1.3095    0.3569   -1.4279 C   0  0  0  0  0  0  0  0  0  0  0  0
   -0.8143    1.7583   -1.7650 C   0  0  2  0  0  0  0  0  0  0  0  0
    0.1602    1.7015   -2.8618 N   0  0  0  0  0  0  0  0  0  0  0  0
   -0.2117    2.3848   -0.4860 C   0  0  2  0  0  0  0  0  0  0  0  0
   -1.3124    2.5889    0.5050 C   0  0  2  0  0  0  0  0  0  0  0  0
   -0.7476    3.2005    1.6502 O   0  0  0  0  0  0  0  0  0  0  0  0
   -1.9413    1.2525    0.8515 C   0  0  1  0  0  0  0  0  0  0  0  0
   -3.0465    1.3954    1.7240 O   0  0  0  0  0  0  0  0  0  0  0  0
   -1.6340    3.6272    2.6793 C   0  0  1  0  0  0  0  0  0  0  0  0
   -1.6410    2.5506    3.7665 C   0  0  2  0  0  0  0  0  0  0  0  0
   -2.9413    2.4481    4.3155 O   0  0  0  0  0  0  0  0  0  0  0  0
   -0.6104    3.0867    4.7693 C   0  0  2  0  0  0  0  0  0  0  0  0
   -0.7718    2.5355    6.0766 O   0  0  0  0  0  0  0  0  0  0  0  0
   -0.8946    4.5901    4.6644 C   0  0  2  0  0  0  0  0  0  0  0  0
   -1.1318    4.8135    3.2815 O   0  0  0  0  0  0  0  0  0  0  0  0
    0.2618    5.4864    5.1224 C   0  0  0  0  0  0  0  0  0  0  0  0
   -0.0798    6.8543    5.0488 O   0  0  0  0  0  0  0  0  0  0  0  0
    0.2313    2.9236    7.0133 C   0  0  2  0  0  0  0  0  0  0  0  0
    1.0908    1.7298    7.4563 C   0  0  2  0  0  0  0  0  0  0  0  0
    1.6806    1.0457    6.2935 N   0  0  0  0  0  0  0  0  0  0  0  0
    0.2825    0.7586    8.3298 C   0  0  1  0  0  0  0  0  0  0  0  0
    1.1440   -0.2702    8.7772 O   0  0  0  0  0  0  0  0  0  0  0  0
   -0.2812    1.5380    9.5300 C   0  0  2  0  0  0  0  0  0  0  0  0
   -1.0731    0.6959   10.3474 O   0  0  0  0  0  0  0  0  0  0  0  0
   -1.0996    2.7587    9.0614 C   0  0  1  0  0  0  0  0  0  0  0  0
   -0.3579    3.5644    8.1425 O   0  0  0  0  0  0  0  0  0  0  0  0
   -2.4846    2.3881    8.5109 C   0  0  0  0  0  0  0  0  0  0  0  0
   -3.0024    3.4337    7.6137 N   0  0  0  0  0  0  0  0  0  0  0  0
  1  3  1  0  0  0  0
  1  2  1  6  0  0  0
  3  4  1  6  0  0  0
  5  6  1  1  0  0  0
  5  3  1  0  0  0  0
  7  9  1  0  0  0  0
  7  5  1  0  0  0  0
  7  8  1  6  0  0  0
  9 10  1  0  0  0  0
  9 11  1  1  0  0  0
 10  1  1  0  0  0  0
 11 12  1  0  0  0  0
 13 14  1  1  0  0  0
 13 21  1  0  0  0  0
 15 13  1  0  0  0  0
 16 15  1  0  0  0  0
 16 18  1  0  0  0  0
 16 17  1  6  0  0  0
 18  2  1  6  0  0  0
 18 19  1  0  0  0  0
 19 21  1  0  0  0  0
 19 20  1  1  0  0  0
 21 22  1  1  0  0  0
 23 20  1  6  0  0  0
 23 29  1  0  0  0  0
 23 24  1  0  0  0  0
 24 26  1  0  0  0  0
 24 25  1  1  0  0  0
 26 27  1  1  0  0  0
 28 26  1  0  0  0  0
 28 30  1  6  0  0  0
 29 28  1  0  0  0  0
 30 31  1  0  0  0  0
 32 27  1  6  0  0  0
 32 40  1  0  0  0  0
 32 33  1  0  0  0  0
 33 35  1  0  0  0  0
 33 34  1  6  0  0  0
 35 37  1  0  0  0  0
 35 36  1  1  0  0  0
 37 38  1  6  0  0  0
 39 37  1  0  0  0  0
 39 41  1  6  0  0  0
 40 39  1  0  0  0  0
 42 41  1  0  0  0  0
M  END
>  <CHROM.1>
-148.56853955,-140.08059228,-81.19106358,179.64013525,65.86381513,49.04041403
41.19651763,-174.61214575,58.43196755,173.32687602,98.64216947,69.44813560
-57.74794679,175.16320343,-114.19838292,-177.78614941,-62.94872759,-36.26301195
-69.68757431,56.08876318,-157.44623611,72.69716421,0.06123972,3.15290679
2.75531398,-1.17143471,0.83281972,1.49513494

>  <Name>
lig.pdb

>  <RI>
0

>  <Rbt.Current_Directory>
/home/itssahil/PROJECTS/Mol_Feturizer/New_Systems/rnas/2mxs

>  <Rbt.Executable>
rbdock ($Id: //depot/dev/client3/rdock/2013.1/src/exe/rbdock.cxx#4 $)

>  <Rbt.Library>
libRbt.so (2013.1, Build901 2013/11/27)

>  <Rbt.Parameter_File>
/export/apps/rDock/src/rDock_2013.1_src/data/scripts/dock_solv.prm

>  <Rbt.Receptor>
prm/pocket_docking_3.prm

>  <SCORE>
-47.2821

>  <SCORE.INTER>
-44.4444

>  <SCORE.INTER.CONST>
1

>  <SCORE.INTER.POLAR>
-5.21758

>  <SCORE.INTER.ROT>
9

>  <SCORE.INTER.SOLV>
19.1771

>  <SCORE.INTER.VDW>
-28.23

>  <SCORE.INTER.norm>
-1.0582

>  <SCORE.INTRA>
-2.83843

>  <SCORE.INTRA.DIHEDRAL>
-0.563568

>  <SCORE.INTRA.DIHEDRAL.0>
30.1357

>  <SCORE.INTRA.POLAR>
-1.70282

>  <SCORE.INTRA.POLAR.0>
-0.631696

>  <SCORE.INTRA.REPUL>
0

>  <SCORE.INTRA.REPUL.0>
0

>  <SCORE.INTRA.SOLV>
0.794882

>  <SCORE.INTRA.SOLV.lig_0>
-55.904

>  <SCORE.INTRA.VDW>
2.83549

>  <SCORE.INTRA.VDW.0>
-8.21197

>  <SCORE.INTRA.norm>
-0.0675817

>  <SCORE.RESTR>
0.000721963

>  <SCORE.RESTR.CAVITY>
0.000721963

>  <SCORE.RESTR.norm>
1.71896e-05

>  <SCORE.SYSTEM>
0

>  <SCORE.SYSTEM.CONST>
0

>  <SCORE.SYSTEM.DIHEDRAL>
0

>  <SCORE.SYSTEM.SOLV>
0

>  <SCORE.SYSTEM.norm>
0

>  <SCORE.heavy>
42

>  <SCORE.norm>
-1.12576

>  <RMSD>
2.007

$$$$
lig.pdb
 OpenBabel11021811453D
libRbt.so/2013.1/901 2013/11/27
 42 45  0  0  0  0  0  0  0  0999 V2000
    0.5164    4.0030    0.1817 C   0  0  2  0  0  0  0  0  0  0  0  0
   -0.3599    3.2923   -0.6950 O   0  0  0  0  0  0  0  0  0  0  0  0
    0.0688    5.4643    0.3362 C   0  0  2  0  0  0  0  0  0  0  0  0
   -1.3372    5.5435    0.7739 N   0  0  0  0  0  0  0  0  0  0  0  0
    0.2853    6.2464   -0.9657 C   0  0  1  0  0  0  0  0  0  0  0  0
    0.0078    7.6156   -0.7427 O   0  0  0  0  0  0  0  0  0  0  0  0
    1.7371    6.0926   -1.4436 C   0  0  2  0  0  0  0  0  0  0  0  0
    1.8753    6.6859   -2.7204 O   0  0  0  0  0  0  0  0  0  0  0  0
    2.1571    4.6101   -1.5085 C   0  0  2  0  0  0  0  0  0  0  0  0
    1.8613    3.9360   -0.2858 O   0  0  0  0  0  0  0  0  0  0  0  0
    3.6723    4.5531   -1.7807 C   0  0  0  0  0  0  0  0  0  0  0  0
    4.0073    5.0212   -3.1145 O   0  0  0  0  0  0  0  0  0  0  0  0
   -2.2491   -0.5478   -0.2304 C   0  0  2  0  0  0  0  0  0  0  0  0
   -2.2570   -1.9623    0.1932 N   0  0  0  0  0  0  0  0  0  0  0  0
   -1.1651   -0.3145   -1.2857 C   0  0  0  0  0  0  0  0  0  0  0  0
   -1.0559    1.1674   -1.6248 C   0  0  2  0  0  0  0  0  0  0  0  0
   -0.0841    1.3696   -2.7067 N   0  0  0  0  0  0  0  0  0  0  0  0
   -0.6624    1.9349   -0.3412 C   0  0  2  0  0  0  0  0  0  0  0  0
   -1.7934    1.8406    0.6322 C   0  0  2  0  0  0  0  0  0  0  0  0
   -1.4302    2.5834    1.7815 O   0  0  0  0  0  0  0  0  0  0  0  0
   -2.0489    0.3858    0.9782 C   0  0  1  0  0  0  0  0  0  0  0  0
   -3.1659    0.2312    1.8334 O   0  0  0  0  0  0  0  0  0  0  0  0
   -2.0237    2.2171    3.0226 C   0  0  1  0  0  0  0  0  0  0  0  0
   -0.8950    1.9714    4.0261 C   0  0  2  0  0  0  0  0  0  0  0  0
   -1.2577    0.9090    4.8878 O   0  0  0  0  0  0  0  0  0  0  0  0
   -0.7973    3.3206    4.7508 C   0  0  2  0  0  0  0  0  0  0  0  0
   -0.1707    3.2177    6.0297 O   0  0  0  0  0  0  0  0  0  0  0  0
   -2.2803    3.7096    4.7893 C   0  0  2  0  0  0  0  0  0  0  0  0
   -2.7891    3.3047    3.5262 O   0  0  0  0  0  0  0  0  0  0  0  0
   -2.5366    5.2101    4.9716 C   0  0  0  0  0  0  0  0  0  0  0  0
   -2.2055    5.9392    3.8089 O   0  0  0  0  0  0  0  0  0  0  0  0
   -0.5984    4.1903    6.9811 C   0  0  2  0  0  0  0  0  0  0  0  0
    0.5910    4.8692    7.6772 C   0  0  2  0  0  0  0  0  0  0  0  0
    1.5135    5.4554    6.6906 N   0  0  0  0  0  0  0  0  0  0  0  0
    1.3166    3.8918    8.6141 C   0  0  1  0  0  0  0  0  0  0  0  0
    2.3437    4.5919    9.2893 O   0  0  0  0  0  0  0  0  0  0  0  0
    0.2973    3.3401    9.6253 C   0  0  2  0  0  0  0  0  0  0  0  0
    0.9071    2.3982   10.4886 O   0  0  0  0  0  0  0  0  0  0  0  0
   -0.9101    2.7070    8.9035 C   0  0  1  0  0  0  0  0  0  0  0  0
   -1.4728    3.6020    7.9415 O   0  0  0  0  0  0  0  0  0  0  0  0
   -0.6026    1.3306    8.2955 C   0  0  0  0  0  0  0  0  0  0  0  0
   -1.8299    0.6623    7.8334 N   0  0  0  0  0  0  0  0  0  0  0  0
  1  3  1  0  0  0  0
  1  2  1  6  0  0  0
  3  4  1  6  0  0  0
  5  6  1  1  0  0  0
  5  3  1  0  0  0  0
  7  9  1  0  0  0  0
  7  5  1  0  0  0  0
  7  8  1  6  0  0  0
  9 10  1  0  0  0  0
  9 11  1  1  0  0  0
 10  1  1  0  0  0  0
 11 12  1  0  0  0  0
 13 14  1  1  0  0  0
 13 21  1  0  0  0  0
 15 13  1  0  0  0  0
 16 15  1  0  0  0  0
 16 18  1  0  0  0  0
 16 17  1  6  0  0  0
 18  2  1  6  0  0  0
 18 19  1  0  0  0  0
 19 21  1  0  0  0  0
 19 20  1  1  0  0  0
 21 22  1  1  0  0  0
 23 20  1  6  0  0  0
 23 29  1  0  0  0  0
 23 24  1  0  0  0  0
 24 26  1  0  0  0  0
 24 25  1  1  0  0  0
 26 27  1  1  0  0  0
 28 26  1  0  0  0  0
 28 30  1  6  0  0  0
 29 28  1  0  0  0  0
 30 31  1  0  0  0  0
 32 27  1  6  0  0  0
 32 40  1  0  0  0  0
 32 33  1  0  0  0  0
 33 35  1  0  0  0  0
 33 34  1  6  0  0  0
 35 37  1  0  0  0  0
 35 36  1  1  0  0  0
 37 38  1  6  0  0  0
 39 37  1  0  0  0  0
 39 41  1  6  0  0  0
 40 39  1  0  0  0  0
 42 41  1  0  0  0  0
M  END
>  <CHROM.1>
-155.23844035,-141.53017749,-128.21206274,-65.62311296,66.22487394,61.76197500
-68.29538215,55.39921346,-54.35856965,-154.05945607,125.97737861,-54.44604552
179.65313638,-151.15272337,-131.47009422,71.50718948,170.79341042,-44.91734403
-171.12453905,-47.04840424,169.80055786,21.81821697,-0.34432780,3.26571092
2.84281590,-1.41357113,1.00279010,1.49751861

>  <Name>
lig.pdb

>  <RI>
224

>  <Rbt.Current_Directory>
/home/itssahil/PROJECTS/Mol_Feturizer/New_Systems/rnas/2mxs

>  <Rbt.Executable>
rbdock ($Id: //depot/dev/client3/rdock/2013.1/src/exe/rbdock.cxx#4 $)

>  <Rbt.Library>
libRbt.so (2013.1, Build901 2013/11/27)

>  <Rbt.Parameter_File>
/export/apps/rDock/src/rDock_2013.1_src/data/scripts/dock_solv.prm

>  <Rbt.Receptor>
prm/pocket_docking_2.prm

>  <SCORE>
-39.1648

>  <SCORE.INTER>
-46.1867

>  <SCORE.INTER.CONST>
1

>  <SCORE.INTER.POLAR>
-6.64372

>  <SCORE.INTER.ROT>
9

>  <SCORE.INTER.SOLV>
14.5552

>  <SCORE.INTER.VDW>
-23.0971

>  <SCORE.INTER.norm>
-1.09968

>  <SCORE.INTRA>
6.05342

>  <SCORE.INTRA.DIHEDRAL>
7.72043

>  <SCORE.INTRA.DIHEDRAL.0>
30.1357

>  <SCORE.INTRA.POLAR>
-1.29773

>  <SCORE.INTRA.POLAR.0>
-0.631696

>  <SCORE.INTRA.REPUL>
0

>  <SCORE.INTRA.REPUL.0>
0

>  <SCORE.INTRA.SOLV>
1.41888

>  <SCORE.INTRA.SOLV.lig_0>
-55.904

>  <SCORE.INTRA.VDW>
5.89604

>  <SCORE.INTRA.VDW.0>
-8.21197

>  <SCORE.INTRA.norm>
0.144129

>  <SCORE.RESTR>
0.968404

>  <SCORE.RESTR.CAVITY>
0.968404

>  <SCORE.RESTR.norm>
0.0230572

>  <SCORE.SYSTEM>
0

>  <SCORE.SYSTEM.CONST>
0

>  <SCORE.SYSTEM.DIHEDRAL>
0

>  <SCORE.SYSTEM.SOLV>
0

>  <SCORE.SYSTEM.norm>
0

>  <SCORE.heavy>
42

>  <SCORE.norm>
-0.932496

>  <RMSD>
2.025

$$$$
lig.pdb
 OpenBabel11021811453D
libRbt.so/2013.1/901 2013/11/27
 42 45  0  0  0  0  0  0  0  0999 V2000
    1.0592    4.1109    0.0067 C   0  0  2  0  0  0  0  0  0  0  0  0
   -0.0053    3.4797   -0.7073 O   0  0  0  0  0  0  0  0  0  0  0  0
    1.0270    5.6333   -0.1963 C   0  0  2  0  0  0  0  0  0  0  0  0
   -0.2899    6.1878    0.1677 N   0  0  0  0  0  0  0  0  0  0  0  0
    1.4018    6.0040   -1.6370 C   0  0  1  0  0  0  0  0  0  0  0  0
    1.5109    7.4103   -1.7468 O   0  0  0  0  0  0  0  0  0  0  0  0
    2.7415    5.3581   -2.0213 C   0  0  2  0  0  0  0  0  0  0  0  0
    2.9909    5.5793   -3.3962 O   0  0  0  0  0  0  0  0  0  0  0  0
    2.7445    3.8442   -1.7272 C   0  0  2  0  0  0  0  0  0  0  0  0
    2.3198    3.5774   -0.3910 O   0  0  0  0  0  0  0  0  0  0  0  0
    4.1783    3.3193   -1.9320 C   0  0  0  0  0  0  0  0  0  0  0  0
    5.0746    3.7463   -0.8716 O   0  0  0  0  0  0  0  0  0  0  0  0
   -1.8644   -0.3743   -0.2371 C   0  0  2  0  0  0  0  0  0  0  0  0
   -1.8533   -1.7947    0.1660 N   0  0  0  0  0  0  0  0  0  0  0  0
   -0.8162   -0.1215   -1.3237 C   0  0  0  0  0  0  0  0  0  0  0  0
   -0.7235    1.3655   -1.6446 C   0  0  2  0  0  0  0  0  0  0  0  0
    0.2117    1.5872   -2.7546 N   0  0  0  0  0  0  0  0  0  0  0  0
   -0.2911    2.1161   -0.3636 C   0  0  2  0  0  0  0  0  0  0  0  0
   -1.3894    2.0033    0.6447 C   0  0  2  0  0  0  0  0  0  0  0  0
   -0.9916    2.7310    1.7922 O   0  0  0  0  0  0  0  0  0  0  0  0
   -1.6282    0.5427    0.9777 C   0  0  1  0  0  0  0  0  0  0  0  0
   -2.7162    0.3712    1.8665 O   0  0  0  0  0  0  0  0  0  0  0  0
   -1.9112    2.8151    2.8757 C   0  0  1  0  0  0  0  0  0  0  0  0
   -1.4664    1.8152    3.9451 C   0  0  2  0  0  0  0  0  0  0  0  0
   -2.6081    1.2535    4.5646 O   0  0  0  0  0  0  0  0  0  0  0  0
   -0.6426    2.6933    4.8966 C   0  0  2  0  0  0  0  0  0  0  0  0
   -0.5184    2.1290    6.2023 O   0  0  0  0  0  0  0  0  0  0  0  0
   -1.4556    3.9921    4.8306 C   0  0  2  0  0  0  0  0  0  0  0  0
   -1.8369    4.1063    3.4668 O   0  0  0  0  0  0  0  0  0  0  0  0
   -0.6760    5.2482    5.2366 C   0  0  0  0  0  0  0  0  0  0  0  0
    0.3415    5.5521    4.3064 O   0  0  0  0  0  0  0  0  0  0  0  0
    0.3440    2.8487    7.0813 C   0  0  2  0  0  0  0  0  0  0  0  0
    1.5049    1.9762    7.5825 C   0  0  2  0  0  0  0  0  0  0  0  0
    2.2532    1.3972    6.4544 N   0  0  0  0  0  0  0  0  0  0  0  0
    1.0051    0.8873    8.5439 C   0  0  1  0  0  0  0  0  0  0  0  0
    2.1221    0.1739    9.0379 O   0  0  0  0  0  0  0  0  0  0  0  0
    0.2557    1.5677    9.7020 C   0  0  2  0  0  0  0  0  0  0  0  0
   -0.2646    0.6029   10.5979 O   0  0  0  0  0  0  0  0  0  0  0  0
   -0.8734    2.4755    9.1722 C   0  0  1  0  0  0  0  0  0  0  0  0
   -0.3919    3.3839    8.1790 O   0  0  0  0  0  0  0  0  0  0  0  0
   -2.1047    1.6957    8.6877 C   0  0  0  0  0  0  0  0  0  0  0  0
   -2.8771    1.1566    9.8187 N   0  0  0  0  0  0  0  0  0  0  0  0
  1  3  1  0  0  0  0
  1  2  1  6  0  0  0
  3  4  1  6  0  0  0
  5  6  1  1  0  0  0
  5  3  1  0  0  0  0
  7  9  1  0  0  0  0
  7  5  1  0  0  0  0
  7  8  1  6  0  0  0
  9 10  1  0  0  0  0
  9 11  1  1  0  0  0
 10  1  1  0  0  0  0
 11 12  1  0  0  0  0
 13 14  1  1  0  0  0
 13 21  1  0  0  0  0
 15 13  1  0  0  0  0
 16 15  1  0  0  0  0
 16 18  1  0  0  0  0
 16 17  1  6  0  0  0
 18  2  1  6  0  0  0
 18 19  1  0  0  0  0
 19 21  1  0  0  0  0
 19 20  1  1  0  0  0
 21 22  1  1  0  0  0
 23 20  1  6  0  0  0
 23 29  1  0  0  0  0
 23 24  1  0  0  0  0
 24 26  1  0  0  0  0
 24 25  1  1  0  0  0
 26 27  1  1  0  0  0
 28 26  1  0  0  0  0
 28 30  1  6  0  0  0
 29 28  1  0  0  0  0
 30 31  1  0  0  0  0
 32 27  1  6  0  0  0
 32 40  1  0  0  0  0
 32 33  1  0  0  0  0
 33 35  1  0  0  0  0
 33 34  1  6  0  0  0
 35 37  1  0  0  0  0
 35 36  1  1  0  0  0
 37 38  1  1  0  0  0
 39 37  1  0  0  0  0
 39 41  1  6  0  0  0
 40 39  1  0  0  0  0
 42 41  1  0  0  0  0
M  END
>  <CHROM.1>
-144.98500543,-165.73426190,173.59535482,-95.04122490,69.17912425,-51.23254579
72.45811845,-59.84057270,-179.52950238,177.38044479,101.63257851,-62.47827972
63.76624406,174.34151126,-120.92313874,67.53478257,172.07225625,90.36649463
179.52905201,-49.40634815,73.71738735,103.17421395,0.07549610,2.72461907
2.86443048,-1.27644524,0.88672305,1.56320983

>  <Name>
lig.pdb

>  <RI>
0

>  <Rbt.Current_Directory>
/home/itssahil/PROJECTS/Mol_Feturizer/New_Systems/rnas/2mxs

>  <Rbt.Executable>
rbdock ($Id: //depot/dev/client3/rdock/2013.1/src/exe/rbdock.cxx#4 $)

>  <Rbt.Library>
libRbt.so (2013.1, Build901 2013/11/27)

>  <Rbt.Parameter_File>
/export/apps/rDock/src/rDock_2013.1_src/data/scripts/dock_solv.prm

>  <Rbt.Receptor>
prm/pocket_docking_3.prm

>  <SCORE>
-43.8765

>  <SCORE.INTER>
-46.9614

>  <SCORE.INTER.CONST>
1

>  <SCORE.INTER.POLAR>
-5.89515

>  <SCORE.INTER.ROT>
9

>  <SCORE.INTER.SOLV>
22.5791

>  <SCORE.INTER.VDW>
-28.7835

>  <SCORE.INTER.norm>
-1.11813

>  <SCORE.INTRA>
3.0628

>  <SCORE.INTRA.DIHEDRAL>
1.53939

>  <SCORE.INTRA.DIHEDRAL.0>
30.1357

>  <SCORE.INTRA.POLAR>
-0.141801

>  <SCORE.INTRA.POLAR.0>
-0.631696

>  <SCORE.INTRA.REPUL>
0.043483

>  <SCORE.INTRA.REPUL.0>
0

>  <SCORE.INTRA.SOLV>
0.453325

>  <SCORE.INTRA.SOLV.lig_0>
-55.904

>  <SCORE.INTRA.VDW>
2.33115

>  <SCORE.INTRA.VDW.0>
-8.21197

>  <SCORE.INTRA.norm>
0.0729238

>  <SCORE.RESTR>
0.0221395

>  <SCORE.RESTR.CAVITY>
0.0221395

>  <SCORE.RESTR.norm>
0.000527132

>  <SCORE.SYSTEM>
0

>  <SCORE.SYSTEM.CONST>
0

>  <SCORE.SYSTEM.DIHEDRAL>
0

>  <SCORE.SYSTEM.SOLV>
0

>  <SCORE.SYSTEM.norm>
0

>  <SCORE.heavy>
42

>  <SCORE.norm>
-1.04468

>  <RMSD>
2.025

$$$$
lig.pdb
 OpenBabel11021811453D
libRbt.so/2013.1/901 2013/11/27
 42 45  0  0  0  0  0  0  0  0999 V2000
    0.5596    3.8885    0.3156 C   0  0  2  0  0  0  0  0  0  0  0  0
   -0.3351    3.0937   -0.4649 O   0  0  0  0  0  0  0  0  0  0  0  0
    0.2845    5.3855    0.1083 C   0  0  2  0  0  0  0  0  0  0  0  0
   -1.1277    5.7072    0.3849 N   0  0  0  0  0  0  0  0  0  0  0  0
    0.6834    5.8272   -1.3057 C   0  0  1  0  0  0  0  0  0  0  0  0
    0.5608    7.2327   -1.4108 O   0  0  0  0  0  0  0  0  0  0  0  0
    2.1347    5.4194   -1.6011 C   0  0  2  0  0  0  0  0  0  0  0  0
    2.4311    5.6920   -2.9572 O   0  0  0  0  0  0  0  0  0  0  0  0
    2.3737    3.9250   -1.3046 C   0  0  2  0  0  0  0  0  0  0  0  0
    1.9149    3.5782    0.0017 O   0  0  0  0  0  0  0  0  0  0  0  0
    3.8856    3.6507   -1.4150 C   0  0  0  0  0  0  0  0  0  0  0  0
    4.1952    2.2358   -1.3033 O   0  0  0  0  0  0  0  0  0  0  0  0
   -1.4149   -1.0580   -0.1059 C   0  0  2  0  0  0  0  0  0  0  0  0
   -1.1009   -2.4758    0.1612 N   0  0  0  0  0  0  0  0  0  0  0  0
   -0.5963   -0.5465   -1.2939 C   0  0  0  0  0  0  0  0  0  0  0  0
   -0.8085    0.9503   -1.4876 C   0  0  2  0  0  0  0  0  0  0  0  0
   -0.0980    1.4121   -2.6866 N   0  0  0  0  0  0  0  0  0  0  0  0
   -0.3289    1.6812   -0.2120 C   0  0  2  0  0  0  0  0  0  0  0  0
   -1.2319    1.3029    0.9182 C   0  0  2  0  0  0  0  0  0  0  0  0
   -0.8016    2.0139    2.0644 O   0  0  0  0  0  0  0  0  0  0  0  0
   -1.1647   -0.1954    1.1454 C   0  0  1  0  0  0  0  0  0  0  0  0
   -2.0650   -0.6214    2.1509 O   0  0  0  0  0  0  0  0  0  0  0  0
   -1.3002    1.5950    3.3304 C   0  0  1  0  0  0  0  0  0  0  0  0
   -0.1074    1.4484    4.2775 C   0  0  2  0  0  0  0  0  0  0  0  0
   -0.3335    0.3570    5.1496 O   0  0  0  0  0  0  0  0  0  0  0  0
   -0.0942    2.8000    5.0042 C   0  0  2  0  0  0  0  0  0  0  0  0
    0.5997    2.7511    6.2512 O   0  0  0  0  0  0  0  0  0  0  0  0
   -1.6021    3.0567    5.1156 C   0  0  2  0  0  0  0  0  0  0  0  0
   -2.1333    2.6102    3.8759 O   0  0  0  0  0  0  0  0  0  0  0  0
   -1.9804    4.5285    5.3182 C   0  0  0  0  0  0  0  0  0  0  0  0
   -3.3759    4.6926    5.4555 O   0  0  0  0  0  0  0  0  0  0  0  0
    0.0868    3.6286    7.2517 C   0  0  2  0  0  0  0  0  0  0  0  0
    1.0171    4.8276    7.4905 C   0  0  2  0  0  0  0  0  0  0  0  0
    1.2822    5.5466    6.2331 N   0  0  0  0  0  0  0  0  0  0  0  0
    2.3214    4.3898    8.1737 C   0  0  1  0  0  0  0  0  0  0  0  0
    3.0971    5.5410    8.4454 O   0  0  0  0  0  0  0  0  0  0  0  0
    1.9652    3.6685    9.4847 C   0  0  2  0  0  0  0  0  0  0  0  0
    3.1341    3.2048   10.1352 O   0  0  0  0  0  0  0  0  0  0  0  0
    0.9928    2.4994    9.2258 C   0  0  1  0  0  0  0  0  0  0  0  0
   -0.1436    2.9219    8.4685 O   0  0  0  0  0  0  0  0  0  0  0  0
    1.6711    1.2695    8.6045 C   0  0  0  0  0  0  0  0  0  0  0  0
    0.6862    0.3736    7.9771 N   0  0  0  0  0  0  0  0  0  0  0  0
  1  3  1  0  0  0  0
  1  2  1  6  0  0  0
  3  4  1  6  0  0  0
  5  6  1  1  0  0  0
  5  3  1  0  0  0  0
  7  9  1  0  0  0  0
  7  5  1  0  0  0  0
  7  8  1  6  0  0  0
  9 10  1  0  0  0  0
  9 11  1  1  0  0  0
 10  1  1  0  0  0  0
 11 12  1  0  0  0  0
 13 14  1  1  0  0  0
 13 21  1  0  0  0  0
 15 13  1  0  0  0  0
 16 15  1  0  0  0  0
 16 18  1  0  0  0  0
 16 17  1  6  0  0  0
 18  2  1  6  0  0  0
 18 19  1  0  0  0  0
 19 21  1  0  0  0  0
 19 20  1  1  0  0  0
 21 22  1  1  0  0  0
 23 20  1  6  0  0  0
 23 29  1  0  0  0  0
 23 24  1  0  0  0  0
 24 26  1  0  0  0  0
 24 25  1  1  0  0  0
 26 27  1  1  0  0  0
 28 26  1  0  0  0  0
 28 30  1  6  0  0  0
 29 28  1  0  0  0  0
 30 31  1  0  0  0  0
 32 27  1  6  0  0  0
 32 40  1  0  0  0  0
 32 33  1  0  0  0  0
 33 35  1  0  0  0  0
 33 34  1  6  0  0  0
 35 37  1  0  0  0  0
 35 36  1  1  0  0  0
 37 38  1  6  0  0  0
 39 37  1  0  0  0  0
 39 41  1  6  0  0  0
 40 39  1  0  0  0  0
 42 41  1  0  0  0  0
M  END
>  <CHROM.1>
-154.53145259,-170.65686722,-43.77223819,56.07191824,60.63938192,-53.07325458
-173.37981095,175.22924645,-58.17625935,-165.72407067,130.53700472,-60.75394182
65.29882867,-147.84738848,-107.11890327,-178.12544914,61.10730553,177.93258588
56.24343322,59.14828520,-161.39515101,70.56792488,0.33241990,2.86007873,2.97979376
-1.64453132,1.08211310,1.59995313

>  <Name>
lig.pdb

>  <RI>
0

>  <Rbt.Current_Directory>
/home/itssahil/PROJECTS/Mol_Feturizer/New_Systems/rnas/2mxs

>  <Rbt.Executable>
rbdock ($Id: //depot/dev/client3/rdock/2013.1/src/exe/rbdock.cxx#4 $)

>  <Rbt.Library>
libRbt.so (2013.1, Build901 2013/11/27)

>  <Rbt.Parameter_File>
/export/apps/rDock/src/rDock_2013.1_src/data/scripts/dock_solv.prm

>  <Rbt.Receptor>
prm/pocket_docking_3.prm

>  <SCORE>
-44.8636

>  <SCORE.INTER>
-43.4008

>  <SCORE.INTER.CONST>
1

>  <SCORE.INTER.POLAR>
-5.38908

>  <SCORE.INTER.ROT>
9

>  <SCORE.INTER.SOLV>
18.6492

>  <SCORE.INTER.VDW>
-26.7867

>  <SCORE.INTER.norm>
-1.03335

>  <SCORE.INTRA>
-1.4628

>  <SCORE.INTRA.DIHEDRAL>
-5.64846

>  <SCORE.INTRA.DIHEDRAL.0>
30.1357

>  <SCORE.INTRA.POLAR>
-0.904572

>  <SCORE.INTRA.POLAR.0>
-0.631696

>  <SCORE.INTRA.REPUL>
0

>  <SCORE.INTRA.REPUL.0>
0

>  <SCORE.INTRA.SOLV>
-0.565979

>  <SCORE.INTRA.SOLV.lig_0>
-55.904

>  <SCORE.INTRA.VDW>
4.71996

>  <SCORE.INTRA.VDW.0>
-8.21197

>  <SCORE.INTRA.norm>
-0.0348287

>  <SCORE.RESTR>
0

>  <SCORE.RESTR.CAVITY>
0

>  <SCORE.RESTR.norm>
0

>  <SCORE.SYSTEM>
0

>  <SCORE.SYSTEM.CONST>
0

>  <SCORE.SYSTEM.DIHEDRAL>
0

>  <SCORE.SYSTEM.SOLV>
0

>  <SCORE.SYSTEM.norm>
0

>  <SCORE.heavy>
42

>  <SCORE.norm>
-1.06818

>  <RMSD>
2.040

$$$$
lig.pdb
 OpenBabel11021811453D
libRbt.so/2013.1/901 2013/11/27
 42 45  0  0  0  0  0  0  0  0999 V2000
    0.4906    3.8750   -0.0592 C   0  0  2  0  0  0  0  0  0  0  0  0
   -0.2764    3.1087   -0.9898 O   0  0  0  0  0  0  0  0  0  0  0  0
   -0.0315    5.3174    0.0234 C   0  0  2  0  0  0  0  0  0  0  0  0
   -1.4716    5.3415    0.3395 N   0  0  0  0  0  0  0  0  0  0  0  0
    0.2608    6.0831   -1.2734 C   0  0  1  0  0  0  0  0  0  0  0  0
   -0.0938    7.4425   -1.1062 O   0  0  0  0  0  0  0  0  0  0  0  0
    1.7533    5.9859   -1.6239 C   0  0  2  0  0  0  0  0  0  0  0  0
    1.9736    6.5600   -2.8980 O   0  0  0  0  0  0  0  0  0  0  0  0
    2.2411    4.5229   -1.6191 C   0  0  2  0  0  0  0  0  0  0  0  0
    1.8720    3.8598   -0.4104 O   0  0  0  0  0  0  0  0  0  0  0  0
    3.7750    4.5291   -1.7616 C   0  0  0  0  0  0  0  0  0  0  0  0
    4.2003    4.9443   -3.0872 O   0  0  0  0  0  0  0  0  0  0  0  0
   -2.4731   -0.5339   -0.3284 C   0  0  2  0  0  0  0  0  0  0  0  0
   -2.5989   -1.9155    0.1771 N   0  0  0  0  0  0  0  0  0  0  0  0
   -1.3637   -0.4511   -1.3799 C   0  0  0  0  0  0  0  0  0  0  0  0
   -1.1323    0.9946   -1.8035 C   0  0  2  0  0  0  0  0  0  0  0  0
   -0.1371    1.0539   -2.8814 N   0  0  0  0  0  0  0  0  0  0  0  0
   -0.6906    1.8032   -0.5615 C   0  0  2  0  0  0  0  0  0  0  0  0
   -1.8348    1.8576    0.3994 C   0  0  2  0  0  0  0  0  0  0  0  0
   -1.4240    2.6361    1.5083 O   0  0  0  0  0  0  0  0  0  0  0  0
   -2.2099    0.4510    0.8262 C   0  0  1  0  0  0  0  0  0  0  0  0
   -3.3439    0.4371    1.6729 O   0  0  0  0  0  0  0  0  0  0  0  0
   -2.3688    2.8563    2.5503 C   0  0  1  0  0  0  0  0  0  0  0  0
   -2.0625    1.8663    3.6761 C   0  0  2  0  0  0  0  0  0  0  0  0
   -3.2752    1.4453    4.2720 O   0  0  0  0  0  0  0  0  0  0  0  0
   -1.1909    2.7019    4.6232 C   0  0  2  0  0  0  0  0  0  0  0  0
   -1.1691    2.1865    5.9546 O   0  0  0  0  0  0  0  0  0  0  0  0
   -1.8697    4.0689    4.4725 C   0  0  2  0  0  0  0  0  0  0  0  0
   -2.1892    4.1591    3.0912 O   0  0  0  0  0  0  0  0  0  0  0  0
   -0.9856    5.2606    4.8579 C   0  0  0  0  0  0  0  0  0  0  0  0
    0.1936    5.3055    4.0829 O   0  0  0  0  0  0  0  0  0  0  0  0
   -0.2086    2.7983    6.8132 C   0  0  2  0  0  0  0  0  0  0  0  0
    0.7814    1.7720    7.3848 C   0  0  2  0  0  0  0  0  0  0  0  0
    1.4352    1.0136    6.3052 N   0  0  0  0  0  0  0  0  0  0  0  0
    0.0924    0.8378    8.3908 C   0  0  1  0  0  0  0  0  0  0  0  0
    1.0662   -0.0251    8.9458 O   0  0  0  0  0  0  0  0  0  0  0  0
   -0.5456    1.6977    9.4950 C   0  0  2  0  0  0  0  0  0  0  0  0
   -1.2331    0.8854   10.4287 O   0  0  0  0  0  0  0  0  0  0  0  0
   -1.4980    2.7518    8.8937 C   0  0  1  0  0  0  0  0  0  0  0  0
   -0.8572    3.5097    7.8650 O   0  0  0  0  0  0  0  0  0  0  0  0
   -2.8373    2.1648    8.4240 C   0  0  0  0  0  0  0  0  0  0  0  0
   -3.6553    1.7172    9.5628 N   0  0  0  0  0  0  0  0  0  0  0  0
  1  3  1  0  0  0  0
  1  2  1  6  0  0  0
  3  4  1  6  0  0  0
  5  6  1  1  0  0  0
  5  3  1  0  0  0  0
  7  9  1  0  0  0  0
  7  5  1  0  0  0  0
  7  8  1  6  0  0  0
  9 10  1  0  0  0  0
  9 11  1  1  0  0  0
 10  1  1  0  0  0  0
 11 12  1  0  0  0  0
 13 14  1  1  0  0  0
 13 21  1  0  0  0  0
 15 13  1  0  0  0  0
 16 15  1  0  0  0  0
 16 18  1  0  0  0  0
 16 17  1  6  0  0  0
 18  2  1  6  0  0  0
 18 19  1  0  0  0  0
 19 21  1  0  0  0  0
 19 20  1  1  0  0  0
 21 22  1  1  0  0  0
 23 20  1  6  0  0  0
 23 29  1  0  0  0  0
 23 24  1  0  0  0  0
 24 26  1  0  0  0  0
 24 25  1  1  0  0  0
 26 27  1  1  0  0  0
 28 26  1  0  0  0  0
 28 30  1  6  0  0  0
 29 28  1  0  0  0  0
 30 31  1  0  0  0  0
 32 27  1  1  0  0  0
 32 40  1  0  0  0  0
 32 33  1  0  0  0  0
 33 35  1  0  0  0  0
 33 34  1  6  0  0  0
 35 37  1  0  0  0  0
 35 36  1  1  0  0  0
 37 38  1  1  0  0  0
 39 37  1  0  0  0  0
 39 41  1  6  0  0  0
 40 39  1  0  0  0  0
 42 41  1  0  0  0  0
M  END
>  <CHROM.1>
-163.89653838,-134.01317984,67.96814660,62.77256762,-169.98496592,-176.93618507
-70.17291690,78.29235084,178.47122239,178.53710295,99.30723226,72.71225773
62.19662913,170.35623165,-121.66869679,58.72863521,70.92147722,-39.79690424
-70.25653262,65.10453307,68.69603083,-167.36025161,-0.58528542,2.77766289
2.70232614,-1.20413217,0.99046693,1.49400900

>  <Name>
lig.pdb

>  <RI>
0

>  <Rbt.Current_Directory>
/home/itssahil/PROJECTS/Mol_Feturizer/New_Systems/rnas/2mxs

>  <Rbt.Executable>
rbdock ($Id: //depot/dev/client3/rdock/2013.1/src/exe/rbdock.cxx#4 $)

>  <Rbt.Library>
libRbt.so (2013.1, Build901 2013/11/27)

>  <Rbt.Parameter_File>
/export/apps/rDock/src/rDock_2013.1_src/data/scripts/dock_solv.prm

>  <Rbt.Receptor>
prm/pocket_docking_7.prm

>  <SCORE>
-50.3095

>  <SCORE.INTER>
-43.9151

>  <SCORE.INTER.CONST>
1

>  <SCORE.INTER.POLAR>
-6.10871

>  <SCORE.INTER.ROT>
9

>  <SCORE.INTER.SOLV>
18.5517

>  <SCORE.INTER.VDW>
-24.6983

>  <SCORE.INTER.norm>
-1.0456

>  <SCORE.INTRA>
-6.39443

>  <SCORE.INTRA.DIHEDRAL>
-3.76299

>  <SCORE.INTRA.DIHEDRAL.0>
30.1357

>  <SCORE.INTRA.POLAR>
-2.58932

>  <SCORE.INTRA.POLAR.0>
-0.631696

>  <SCORE.INTRA.REPUL>
0.0150147

>  <SCORE.INTRA.REPUL.0>
0

>  <SCORE.INTRA.SOLV>
1.41378

>  <SCORE.INTRA.SOLV.lig_0>
-55.904

>  <SCORE.INTRA.VDW>
3.50877

>  <SCORE.INTRA.VDW.0>
-8.21197

>  <SCORE.INTRA.norm>
-0.152248

>  <SCORE.RESTR>
0

>  <SCORE.RESTR.CAVITY>
0

>  <SCORE.RESTR.norm>
0

>  <SCORE.SYSTEM>
0

>  <SCORE.SYSTEM.CONST>
0

>  <SCORE.SYSTEM.DIHEDRAL>
0

>  <SCORE.SYSTEM.SOLV>
0

>  <SCORE.SYSTEM.norm>
0

>  <SCORE.heavy>
42

>  <SCORE.norm>
-1.19785

>  <RMSD>
2.059

$$$$
lig.pdb
 OpenBabel11021811453D
libRbt.so/2013.1/901 2013/11/27
 42 45  0  0  0  0  0  0  0  0999 V2000
    0.5425    3.8280    0.3494 C   0  0  2  0  0  0  0  0  0  0  0  0
   -0.3006    3.1893   -0.6111 O   0  0  0  0  0  0  0  0  0  0  0  0
    0.0120    5.2266    0.6989 C   0  0  2  0  0  0  0  0  0  0  0  0
   -1.3911    5.1632    1.1481 N   0  0  0  0  0  0  0  0  0  0  0  0
    0.1676    6.1862   -0.4879 C   0  0  1  0  0  0  0  0  0  0  0  0
   -0.1870    7.4948   -0.0835 O   0  0  0  0  0  0  0  0  0  0  0  0
    1.6204    6.1839   -0.9871 C   0  0  2  0  0  0  0  0  0  0  0  0
    1.7091    6.9488   -2.1739 O   0  0  0  0  0  0  0  0  0  0  0  0
    2.1256    4.7509   -1.2505 C   0  0  2  0  0  0  0  0  0  0  0  0
    1.8837    3.9039   -0.1275 O   0  0  0  0  0  0  0  0  0  0  0  0
    3.6384    4.8208   -1.5331 C   0  0  0  0  0  0  0  0  0  0  0  0
    3.9292    4.8457   -2.9561 O   0  0  0  0  0  0  0  0  0  0  0  0
   -2.2496   -0.6463   -0.4679 C   0  0  2  0  0  0  0  0  0  0  0  0
   -2.2830   -2.0890   -0.1551 N   0  0  0  0  0  0  0  0  0  0  0  0
   -1.1485   -0.3487   -1.4888 C   0  0  0  0  0  0  0  0  0  0  0  0
   -1.0139    1.1531   -1.7108 C   0  0  2  0  0  0  0  0  0  0  0  0
   -0.0252    1.4236   -2.7620 N   0  0  0  0  0  0  0  0  0  0  0  0
   -0.6268    1.8133   -0.3671 C   0  0  2  0  0  0  0  0  0  0  0  0
   -1.7718    1.6612    0.5823 C   0  0  2  0  0  0  0  0  0  0  0  0
   -1.4135    2.3076    1.7900 O   0  0  0  0  0  0  0  0  0  0  0  0
   -2.0523    0.1881    0.8116 C   0  0  1  0  0  0  0  0  0  0  0  0
   -3.1827   -0.0153    1.6386 O   0  0  0  0  0  0  0  0  0  0  0  0
   -2.0749    1.8985    2.9825 C   0  0  1  0  0  0  0  0  0  0  0  0
   -1.0200    1.7784    4.0844 C   0  0  2  0  0  0  0  0  0  0  0  0
   -1.3509    0.6953    4.9331 O   0  0  0  0  0  0  0  0  0  0  0  0
   -1.1195    3.1390    4.7871 C   0  0  2  0  0  0  0  0  0  0  0  0
   -0.6007    3.1141    6.1172 O   0  0  0  0  0  0  0  0  0  0  0  0
   -2.6312    3.3786    4.6896 C   0  0  2  0  0  0  0  0  0  0  0  0
   -2.9847    2.9102    3.3958 O   0  0  0  0  0  0  0  0  0  0  0  0
   -3.0488    4.8481    4.8185 C   0  0  0  0  0  0  0  0  0  0  0  0
   -2.5091    5.6353    3.7782 O   0  0  0  0  0  0  0  0  0  0  0  0
   -1.0117    4.2070    6.9361 C   0  0  2  0  0  0  0  0  0  0  0  0
    0.1237    5.2200    7.1480 C   0  0  2  0  0  0  0  0  0  0  0  0
    0.6579    5.6890    5.8585 N   0  0  0  0  0  0  0  0  0  0  0  0
    1.2315    4.6333    8.0357 C   0  0  1  0  0  0  0  0  0  0  0  0
    2.2033    5.6350    8.2662 O   0  0  0  0  0  0  0  0  0  0  0  0
    0.6030    4.1875    9.3669 C   0  0  2  0  0  0  0  0  0  0  0  0
    1.5769    3.5979   10.2085 O   0  0  0  0  0  0  0  0  0  0  0  0
   -0.5651    3.2091    9.1264 C   0  0  1  0  0  0  0  0  0  0  0  0
   -1.5056    3.7374    8.1885 O   0  0  0  0  0  0  0  0  0  0  0  0
   -0.1053    1.7947    8.7430 C   0  0  0  0  0  0  0  0  0  0  0  0
    0.6310    1.1533    9.8443 N   0  0  0  0  0  0  0  0  0  0  0  0
  1  3  1  0  0  0  0
  1  2  1  6  0  0  0
  3  4  1  6  0  0  0
  5  6  1  1  0  0  0
  5  3  1  0  0  0  0
  7  9  1  0  0  0  0
  7  5  1  0  0  0  0
  7  8  1  6  0  0  0
  9 10  1  0  0  0  0
  9 11  1  1  0  0  0
 10  1  1  0  0  0  0
 11 12  1  0  0  0  0
 13 14  1  1  0  0  0
 13 21  1  0  0  0  0
 15 13  1  0  0  0  0
 16 15  1  0  0  0  0
 16 18  1  0  0  0  0
 16 17  1  6  0  0  0
 18  2  1  6  0  0  0
 18 19  1  0  0  0  0
 19 21  1  0  0  0  0
 19 20  1  1  0  0  0
 21 22  1  1  0  0  0
 23 20  1  6  0  0  0
 23 29  1  0  0  0  0
 23 24  1  0  0  0  0
 24 26  1  0  0  0  0
 24 25  1  1  0  0  0
 26 27  1  1  0  0  0
 28 26  1  0  0  0  0
 28 30  1  6  0  0  0
 29 28  1  0  0  0  0
 30 31  1  0  0  0  0
 32 27  1  6  0  0  0
 32 40  1  0  0  0  0
 32 33  1  0  0  0  0
 33 35  1  0  0  0  0
 33 34  1  6  0  0  0
 35 37  1  0  0  0  0
 35 36  1  1  0  0  0
 37 38  1  1  0  0  0
 39 37  1  0  0  0  0
 39 41  1  6  0  0  0
 40 39  1  0  0  0  0
 42 41  1  0  0  0  0
M  END
>  <CHROM.1>
-157.00186028,-135.53564946,141.97541166,61.81312390,11.72164734,-172.41374322
-96.50255727,127.49889498,-176.26183812,-156.96304405,136.43366950,-59.86942728
69.80929521,-162.57790463,-105.86435307,62.19665624,-178.46663559,45.46141081
179.45931638,176.65469360,64.84746391,68.96114815,-0.35066863,3.31053605
2.89127664,-1.49899307,1.00682327,1.47573614

>  <Name>
lig.pdb

>  <RI>
224

>  <Rbt.Current_Directory>
/home/itssahil/PROJECTS/Mol_Feturizer/New_Systems/rnas/2mxs

>  <Rbt.Executable>
rbdock ($Id: //depot/dev/client3/rdock/2013.1/src/exe/rbdock.cxx#4 $)

>  <Rbt.Library>
libRbt.so (2013.1, Build901 2013/11/27)

>  <Rbt.Parameter_File>
/export/apps/rDock/src/rDock_2013.1_src/data/scripts/dock_solv.prm

>  <Rbt.Receptor>
prm/pocket_docking_2.prm

>  <SCORE>
-33.1041

>  <SCORE.INTER>
-43.1551

>  <SCORE.INTER.CONST>
1

>  <SCORE.INTER.POLAR>
-6.02863

>  <SCORE.INTER.ROT>
9

>  <SCORE.INTER.SOLV>
12.8484

>  <SCORE.INTER.VDW>
-22.5574

>  <SCORE.INTER.norm>
-1.0275

>  <SCORE.INTRA>
9.08354

>  <SCORE.INTRA.DIHEDRAL>
12.3396

>  <SCORE.INTRA.DIHEDRAL.0>
30.1357

>  <SCORE.INTRA.POLAR>
-1.32587

>  <SCORE.INTRA.POLAR.0>
-0.631696

>  <SCORE.INTRA.REPUL>
0

>  <SCORE.INTRA.REPUL.0>
0

>  <SCORE.INTRA.SOLV>
1.55889

>  <SCORE.INTRA.SOLV.lig_0>
-55.904

>  <SCORE.INTRA.VDW>
6.64227

>  <SCORE.INTRA.VDW.0>
-8.21197

>  <SCORE.INTRA.norm>
0.216275

>  <SCORE.RESTR>
0.967457

>  <SCORE.RESTR.CAVITY>
0.967457

>  <SCORE.RESTR.norm>
0.0230347

>  <SCORE.SYSTEM>
0

>  <SCORE.SYSTEM.CONST>
0

>  <SCORE.SYSTEM.DIHEDRAL>
0

>  <SCORE.SYSTEM.SOLV>
0

>  <SCORE.SYSTEM.norm>
0

>  <SCORE.heavy>
42

>  <SCORE.norm>
-0.788192

>  <RMSD>
2.083

$$$$
lig.pdb
 OpenBabel11021811453D
libRbt.so/2013.1/901 2013/11/27
 42 45  0  0  0  0  0  0  0  0999 V2000
    0.6454    3.8336    0.5962 C   0  0  2  0  0  0  0  0  0  0  0  0
   -0.1799    3.0408   -0.2593 O   0  0  0  0  0  0  0  0  0  0  0  0
    0.0578    5.2420    0.7718 C   0  0  2  0  0  0  0  0  0  0  0  0
   -1.3357    5.1780    1.2497 N   0  0  0  0  0  0  0  0  0  0  0  0
    0.1570    6.0456   -0.5312 C   0  0  1  0  0  0  0  0  0  0  0  0
   -0.2502    7.3793   -0.2926 O   0  0  0  0  0  0  0  0  0  0  0  0
    1.6025    6.0401   -1.0510 C   0  0  2  0  0  0  0  0  0  0  0  0
    1.6435    6.6480   -2.3278 O   0  0  0  0  0  0  0  0  0  0  0  0
    2.1674    4.6077   -1.1364 C   0  0  2  0  0  0  0  0  0  0  0  0
    1.9762    3.9036    0.0904 O   0  0  0  0  0  0  0  0  0  0  0  0
    3.6722    4.7043   -1.4518 C   0  0  0  0  0  0  0  0  0  0  0  0
    4.3532    3.4344   -1.2671 O   0  0  0  0  0  0  0  0  0  0  0  0
   -1.2190   -1.1246    0.0578 C   0  0  2  0  0  0  0  0  0  0  0  0
   -0.8828   -2.5476    0.2634 N   0  0  0  0  0  0  0  0  0  0  0  0
   -0.4854   -0.5766   -1.1689 C   0  0  0  0  0  0  0  0  0  0  0  0
   -0.7153    0.9238   -1.3061 C   0  0  2  0  0  0  0  0  0  0  0  0
   -0.0902    1.4219   -2.5377 N   0  0  0  0  0  0  0  0  0  0  0  0
   -0.1517    1.6219   -0.0465 C   0  0  2  0  0  0  0  0  0  0  0  0
   -0.9738    1.2083    1.1319 C   0  0  2  0  0  0  0  0  0  0  0  0
   -0.4682    1.8898    2.2652 O   0  0  0  0  0  0  0  0  0  0  0  0
   -0.8864   -0.2954    1.3125 C   0  0  1  0  0  0  0  0  0  0  0  0
   -1.7143   -0.7533    2.3650 O   0  0  0  0  0  0  0  0  0  0  0  0
   -0.9953    1.5381    3.5401 C   0  0  1  0  0  0  0  0  0  0  0  0
    0.0965    1.7885    4.5826 C   0  0  2  0  0  0  0  0  0  0  0  0
    0.0181    0.7974    5.5898 O   0  0  0  0  0  0  0  0  0  0  0  0
   -0.2534    3.1912    5.0973 C   0  0  2  0  0  0  0  0  0  0  0  0
    0.3017    3.4626    6.3846 O   0  0  0  0  0  0  0  0  0  0  0  0
   -1.7846    3.1141    5.0591 C   0  0  2  0  0  0  0  0  0  0  0  0
   -2.0771    2.4019    3.8652 O   0  0  0  0  0  0  0  0  0  0  0  0
   -2.4860    4.4765    5.0107 C   0  0  0  0  0  0  0  0  0  0  0  0
   -2.1098    5.2147    3.8676 O   0  0  0  0  0  0  0  0  0  0  0  0
   -0.2803    4.5757    7.0601 C   0  0  2  0  0  0  0  0  0  0  0  0
    0.7789    5.6065    7.4791 C   0  0  2  0  0  0  0  0  0  0  0  0
    1.5771    6.0414    6.3207 N   0  0  0  0  0  0  0  0  0  0  0  0
    1.6713    5.0589    8.6030 C   0  0  1  0  0  0  0  0  0  0  0  0
    2.5668    6.0773    9.0053 O   0  0  0  0  0  0  0  0  0  0  0  0
    0.7721    4.6475    9.7812 C   0  0  2  0  0  0  0  0  0  0  0  0
    1.5436    4.0941   10.8313 O   0  0  0  0  0  0  0  0  0  0  0  0
   -0.3131    3.6500    9.3262 C   0  0  1  0  0  0  0  0  0  0  0  0
   -1.0310    4.1395    8.1912 O   0  0  0  0  0  0  0  0  0  0  0  0
    0.2237    2.2294    9.0965 C   0  0  0  0  0  0  0  0  0  0  0  0
   -0.8601    1.2966    8.7481 N   0  0  0  0  0  0  0  0  0  0  0  0
  1  3  1  0  0  0  0
  1  2  1  6  0  0  0
  3  4  1  6  0  0  0
  5  6  1  1  0  0  0
  5  3  1  0  0  0  0
  7  9  1  0  0  0  0
  7  5  1  0  0  0  0
  7  8  1  6  0  0  0
  9 10  1  0  0  0  0
  9 11  1  1  0  0  0
 10  1  1  0  0  0  0
 11 12  1  0  0  0  0
 13 14  1  1  0  0  0
 13 21  1  0  0  0  0
 15 13  1  0  0  0  0
 16 15  1  0  0  0  0
 16 18  1  0  0  0  0
 16 17  1  6  0  0  0
 18  2  1  6  0  0  0
 18 19  1  0  0  0  0
 19 21  1  0  0  0  0
 19 20  1  1  0  0  0
 21 22  1  1  0  0  0
 23 20  1  6  0  0  0
 23 29  1  0  0  0  0
 23 24  1  0  0  0  0
 24 26  1  0  0  0  0
 24 25  1  1  0  0  0
 26 27  1  1  0  0  0
 28 26  1  0  0  0  0
 28 30  1  6  0  0  0
 29 28  1  0  0  0  0
 30 31  1  0  0  0  0
 32 27  1  1  0  0  0
 32 40  1  0  0  0  0
 32 33  1  0  0  0  0
 33 35  1  0  0  0  0
 33 34  1  6  0  0  0
 35 37  1  0  0  0  0
 35 36  1  1  0  0  0
 37 38  1  1  0  0  0
 39 37  1  0  0  0  0
 39 41  1  6  0  0  0
 40 39  1  0  0  0  0
 42 41  1  0  0  0  0
M  END
>  <CHROM.1>
-162.01094004,-151.98932960,-45.58151525,-76.50720893,31.35723237,53.89596108
167.48586420,-173.09206894,-58.68214697,-172.89304169,150.95159885,71.36185891
-174.01267650,-163.57521926,-125.20771640,59.93224959,-176.15950407,-51.72771418
-68.33459409,-176.07648955,176.36756385,-177.82410343,0.10966822,3.22773692
3.19928604,-1.51177131,1.18311287,1.39066858

>  <Name>
lig.pdb

>  <RI>
224

>  <Rbt.Current_Directory>
/home/itssahil/PROJECTS/Mol_Feturizer/New_Systems/rnas/2mxs

>  <Rbt.Executable>
rbdock ($Id: //depot/dev/client3/rdock/2013.1/src/exe/rbdock.cxx#4 $)

>  <Rbt.Library>
libRbt.so (2013.1, Build901 2013/11/27)

>  <Rbt.Parameter_File>
/export/apps/rDock/src/rDock_2013.1_src/data/scripts/dock_solv.prm

>  <Rbt.Receptor>
prm/pocket_docking_2.prm

>  <SCORE>
-34.921

>  <SCORE.INTER>
-35.7408

>  <SCORE.INTER.CONST>
1

>  <SCORE.INTER.POLAR>
-4.47569

>  <SCORE.INTER.ROT>
9

>  <SCORE.INTER.SOLV>
15.3033

>  <SCORE.INTER.VDW>
-23.6093

>  <SCORE.INTER.norm>
-0.850972

>  <SCORE.INTRA>
-0.388006

>  <SCORE.INTRA.DIHEDRAL>
-5.3907

>  <SCORE.INTRA.DIHEDRAL.0>
30.1357

>  <SCORE.INTRA.POLAR>
-0.333199

>  <SCORE.INTRA.POLAR.0>
-0.631696

>  <SCORE.INTRA.REPUL>
0

>  <SCORE.INTRA.REPUL.0>
0

>  <SCORE.INTRA.SOLV>
0.410173

>  <SCORE.INTRA.SOLV.lig_0>
-55.904

>  <SCORE.INTRA.VDW>
3.23513

>  <SCORE.INTRA.VDW.0>
-8.21197

>  <SCORE.INTRA.norm>
-0.00923823

>  <SCORE.RESTR>
1.20781

>  <SCORE.RESTR.CAVITY>
1.20781

>  <SCORE.RESTR.norm>
0.0287573

>  <SCORE.SYSTEM>
0

>  <SCORE.SYSTEM.CONST>
0

>  <SCORE.SYSTEM.DIHEDRAL>
0

>  <SCORE.SYSTEM.SOLV>
0

>  <SCORE.SYSTEM.norm>
0

>  <SCORE.heavy>
42

>  <SCORE.norm>
-0.831453

>  <RMSD>
2.096

$$$$
lig.pdb
 OpenBabel11021811453D
libRbt.so/2013.1/901 2013/11/27
 42 45  0  0  0  0  0  0  0  0999 V2000
    0.4393    3.8325    0.6172 C   0  0  2  0  0  0  0  0  0  0  0  0
   -0.3935    3.0085   -0.2008 O   0  0  0  0  0  0  0  0  0  0  0  0
    0.0539    5.3126    0.4742 C   0  0  2  0  0  0  0  0  0  0  0  0
   -1.3785    5.5163    0.7590 N   0  0  0  0  0  0  0  0  0  0  0  0
    0.4199    5.8442   -0.9176 C   0  0  1  0  0  0  0  0  0  0  0  0
    0.1933    7.2400   -0.9617 O   0  0  0  0  0  0  0  0  0  0  0  0
    1.8976    5.5584   -1.2248 C   0  0  2  0  0  0  0  0  0  0  0  0
    2.1740    5.9114   -2.5666 O   0  0  0  0  0  0  0  0  0  0  0  0
    2.2467    4.0743   -0.9928 C   0  0  2  0  0  0  0  0  0  0  0  0
    1.8141    3.6376    0.2953 O   0  0  0  0  0  0  0  0  0  0  0  0
    3.7749    3.9180   -1.1091 C   0  0  0  0  0  0  0  0  0  0  0  0
    4.1810    2.5240   -1.1545 O   0  0  0  0  0  0  0  0  0  0  0  0
   -0.8893   -1.2676   -0.2064 C   0  0  2  0  0  0  0  0  0  0  0  0
   -0.3680   -2.6479   -0.1475 N   0  0  0  0  0  0  0  0  0  0  0  0
   -0.3076   -0.5304   -1.4153 C   0  0  0  0  0  0  0  0  0  0  0  0
   -0.7288    0.9343   -1.4047 C   0  0  2  0  0  0  0  0  0  0  0  0
   -0.2487    1.6087   -2.6173 N   0  0  0  0  0  0  0  0  0  0  0  0
   -0.1773    1.5923   -0.1184 C   0  0  2  0  0  0  0  0  0  0  0  0
   -0.8663    0.9805    1.0591 C   0  0  2  0  0  0  0  0  0  0  0  0
   -0.3782    1.6251    2.2213 O   0  0  0  0  0  0  0  0  0  0  0  0
   -0.5830   -0.5093    1.0988 C   0  0  1  0  0  0  0  0  0  0  0  0
   -1.2802   -1.1552    2.1475 O   0  0  0  0  0  0  0  0  0  0  0  0
   -0.8042    1.1260    3.4848 C   0  0  1  0  0  0  0  0  0  0  0  0
    0.4013    1.1482    4.4269 C   0  0  2  0  0  0  0  0  0  0  0  0
    0.3422    0.0277    5.2892 O   0  0  0  0  0  0  0  0  0  0  0  0
    0.2185    2.4805    5.1663 C   0  0  2  0  0  0  0  0  0  0  0  0
    0.9174    2.5231    6.4107 O   0  0  0  0  0  0  0  0  0  0  0  0
   -1.3103    2.5112    5.2846 C   0  0  2  0  0  0  0  0  0  0  0  0
   -1.7753    2.0024    4.0423 O   0  0  0  0  0  0  0  0  0  0  0  0
   -1.9004    3.9094    5.5023 C   0  0  0  0  0  0  0  0  0  0  0  0
   -2.7012    3.9608    6.6639 O   0  0  0  0  0  0  0  0  0  0  0  0
    0.5853    3.6340    7.2412 C   0  0  2  0  0  0  0  0  0  0  0  0
    1.8038    4.1448    8.0252 C   0  0  2  0  0  0  0  0  0  0  0  0
    2.9158    4.4697    7.1164 N   0  0  0  0  0  0  0  0  0  0  0  0
    2.2333    3.1361    9.1012 C   0  0  1  0  0  0  0  0  0  0  0  0
    3.2992    3.6950    9.8442 O   0  0  0  0  0  0  0  0  0  0  0  0
    1.0306    2.8645   10.0208 C   0  0  2  0  0  0  0  0  0  0  0  0
    1.3611    1.9052   11.0081 O   0  0  0  0  0  0  0  0  0  0  0  0
   -0.1942    2.3997    9.2063 C   0  0  1  0  0  0  0  0  0  0  0  0
   -0.4775    3.2962    8.1296 O   0  0  0  0  0  0  0  0  0  0  0  0
   -0.0905    0.9438    8.7283 C   0  0  0  0  0  0  0  0  0  0  0  0
   -1.2389    0.5730    7.8858 N   0  0  0  0  0  0  0  0  0  0  0  0
  1  3  1  0  0  0  0
  1  2  1  6  0  0  0
  3  4  1  6  0  0  0
  5  6  1  1  0  0  0
  5  3  1  0  0  0  0
  7  9  1  0  0  0  0
  7  5  1  0  0  0  0
  7  8  1  6  0  0  0
  9 10  1  0  0  0  0
  9 11  1  1  0  0  0
 10  1  1  0  0  0  0
 11 12  1  0  0  0  0
 13 14  1  1  0  0  0
 13 21  1  0  0  0  0
 15 13  1  0  0  0  0
 16 15  1  0  0  0  0
 16 18  1  0  0  0  0
 16 17  1  6  0  0  0
 18  2  1  6  0  0  0
 18 19  1  0  0  0  0
 19 21  1  0  0  0  0
 19 20  1  1  0  0  0
 21 22  1  1  0  0  0
 23 20  1  6  0  0  0
 23 29  1  0  0  0  0
 23 24  1  0  0  0  0
 24 26  1  0  0  0  0
 24 25  1  1  0  0  0
 26 27  1  1  0  0  0
 28 26  1  0  0  0  0
 28 30  1  6  0  0  0
 29 28  1  0  0  0  0
 30 31  1  0  0  0  0
 32 27  1  1  0  0  0
 32 40  1  0  0  0  0
 32 33  1  0  0  0  0
 33 35  1  0  0  0  0
 33 34  1  6  0  0  0
 35 37  1  0  0  0  0
 35 36  1  1  0  0  0
 37 38  1  1  0  0  0
 39 37  1  0  0  0  0
 39 41  1  6  0  0  0
 40 39  1  0  0  0  0
 42 41  1  0  0  0  0
M  END
>  <CHROM.1>
-158.17951460,-177.42148550,-34.32221082,-69.41039560,-45.26903678,70.48574935
-169.25519529,34.19867006,-67.39839422,-174.49401359,139.56977979,-57.62252285
168.30848278,-169.15258220,-144.61464794,-124.33102891,65.91623556,16.15938210
-177.17775309,70.00746747,-176.38511585,-116.95298247,0.34439494,2.56482286
3.25361177,-1.55709653,1.16574806,1.59064441

>  <Name>
lig.pdb

>  <RI>
3.99633e+07

>  <Rbt.Current_Directory>
/home/itssahil/PROJECTS/Mol_Feturizer/New_Systems/rnas/2mxs

>  <Rbt.Executable>
rbdock ($Id: //depot/dev/client3/rdock/2013.1/src/exe/rbdock.cxx#4 $)

>  <Rbt.Library>
libRbt.so (2013.1, Build901 2013/11/27)

>  <Rbt.Parameter_File>
/export/apps/rDock/src/rDock_2013.1_src/data/scripts/dock_solv.prm

>  <Rbt.Receptor>
prm/pocket_docking_5.prm

>  <SCORE>
-44.9293

>  <SCORE.INTER>
-44.7177

>  <SCORE.INTER.CONST>
1

>  <SCORE.INTER.POLAR>
-6.23341

>  <SCORE.INTER.ROT>
9

>  <SCORE.INTER.SOLV>
19.3204

>  <SCORE.INTER.VDW>
-25.0739

>  <SCORE.INTER.norm>
-1.06471

>  <SCORE.INTRA>
-0.21167

>  <SCORE.INTRA.DIHEDRAL>
1.86621

>  <SCORE.INTRA.DIHEDRAL.0>
30.1357

>  <SCORE.INTRA.POLAR>
-1.44552

>  <SCORE.INTRA.POLAR.0>
-0.631696

>  <SCORE.INTRA.REPUL>
0

>  <SCORE.INTRA.REPUL.0>
0

>  <SCORE.INTRA.SOLV>
-0.00849723

>  <SCORE.INTRA.SOLV.lig_0>
-55.904

>  <SCORE.INTRA.VDW>
3.77425

>  <SCORE.INTRA.VDW.0>
-8.21197

>  <SCORE.INTRA.norm>
-0.00503975

>  <SCORE.RESTR>
0

>  <SCORE.RESTR.CAVITY>
0

>  <SCORE.RESTR.norm>
0

>  <SCORE.SYSTEM>
0

>  <SCORE.SYSTEM.CONST>
0

>  <SCORE.SYSTEM.DIHEDRAL>
0

>  <SCORE.SYSTEM.SOLV>
0

>  <SCORE.SYSTEM.norm>
0

>  <SCORE.heavy>
42

>  <SCORE.norm>
-1.06975

>  <RMSD>
2.109

$$$$
lig.pdb
 OpenBabel11021811453D
libRbt.so/2013.1/901 2013/11/27
 42 45  0  0  0  0  0  0  0  0999 V2000
    0.0183    3.6895    0.4620 C   0  0  2  0  0  0  0  0  0  0  0  0
   -0.7537    2.8861   -0.4324 O   0  0  0  0  0  0  0  0  0  0  0  0
   -0.3347    5.1763    0.3053 C   0  0  2  0  0  0  0  0  0  0  0  0
   -1.7832    5.3966    0.4722 N   0  0  0  0  0  0  0  0  0  0  0  0
    0.1529    5.7179   -1.0447 C   0  0  1  0  0  0  0  0  0  0  0  0
   -0.0512    7.1171   -1.0907 O   0  0  0  0  0  0  0  0  0  0  0  0
    1.6474    5.4152   -1.2310 C   0  0  2  0  0  0  0  0  0  0  0  0
    2.0393    5.7791   -2.5408 O   0  0  0  0  0  0  0  0  0  0  0  0
    1.9568    3.9240   -0.9887 C   0  0  2  0  0  0  0  0  0  0  0  0
    1.4126    3.4792    0.2535 O   0  0  0  0  0  0  0  0  0  0  0  0
    3.4872    3.7479   -0.9791 C   0  0  0  0  0  0  0  0  0  0  0  0
    4.1222    4.4132   -2.1036 O   0  0  0  0  0  0  0  0  0  0  0  0
   -1.8066   -1.2849   -0.2742 C   0  0  2  0  0  0  0  0  0  0  0  0
   -1.5251   -2.6965    0.0554 N   0  0  0  0  0  0  0  0  0  0  0  0
   -0.7804   -0.7589   -1.2808 C   0  0  0  0  0  0  0  0  0  0  0  0
   -0.9779    0.7335   -1.5188 C   0  0  2  0  0  0  0  0  0  0  0  0
   -0.0547    1.2079   -2.5572 N   0  0  0  0  0  0  0  0  0  0  0  0
   -0.7713    1.4741   -0.1770 C   0  0  2  0  0  0  0  0  0  0  0  0
   -1.8713    1.0796    0.7557 C   0  0  2  0  0  0  0  0  0  0  0  0
   -1.6873    1.7993    1.9610 O   0  0  0  0  0  0  0  0  0  0  0  0
   -1.8225   -0.4171    0.9982 C   0  0  1  0  0  0  0  0  0  0  0  0
   -2.8946   -0.8593    1.8094 O   0  0  0  0  0  0  0  0  0  0  0  0
   -2.6797    1.6632    2.9727 C   0  0  1  0  0  0  0  0  0  0  0  0
   -1.9648    1.3601    4.2912 C   0  0  2  0  0  0  0  0  0  0  0  0
   -2.7505    0.4641    5.0545 O   0  0  0  0  0  0  0  0  0  0  0  0
   -1.8513    2.7496    4.9327 C   0  0  2  0  0  0  0  0  0  0  0  0
   -1.6644    2.6924    6.3471 O   0  0  0  0  0  0  0  0  0  0  0  0
   -3.1847    3.3596    4.4831 C   0  0  2  0  0  0  0  0  0  0  0  0
   -3.3557    2.9017    3.1492 O   0  0  0  0  0  0  0  0  0  0  0  0
   -3.2142    4.8924    4.4911 C   0  0  0  0  0  0  0  0  0  0  0  0
   -2.3370    5.4345    3.5269 O   0  0  0  0  0  0  0  0  0  0  0  0
   -1.3845    3.9490    6.9609 C   0  0  2  0  0  0  0  0  0  0  0  0
    0.0272    4.4493    6.6189 C   0  0  2  0  0  0  0  0  0  0  0  0
    0.2252    4.5102    5.1612 N   0  0  0  0  0  0  0  0  0  0  0  0
    1.1010    3.5849    7.2967 C   0  0  1  0  0  0  0  0  0  0  0  0
    2.3711    4.1418    7.0179 O   0  0  0  0  0  0  0  0  0  0  0  0
    0.8418    3.5875    8.8128 C   0  0  2  0  0  0  0  0  0  0  0  0
    1.7814    2.7677    9.4834 O   0  0  0  0  0  0  0  0  0  0  0  0
   -0.5965    3.1280    9.1285 C   0  0  1  0  0  0  0  0  0  0  0  0
   -1.5594    3.8672    8.3736 O   0  0  0  0  0  0  0  0  0  0  0  0
   -0.7965    1.6120    8.9854 C   0  0  0  0  0  0  0  0  0  0  0  0
   -2.2053    1.2358    9.1859 N   0  0  0  0  0  0  0  0  0  0  0  0
  1  3  1  0  0  0  0
  1  2  1  6  0  0  0
  3  4  1  6  0  0  0
  5  6  1  1  0  0  0
  5  3  1  0  0  0  0
  7  9  1  0  0  0  0
  7  5  1  0  0  0  0
  7  8  1  6  0  0  0
  9 10  1  0  0  0  0
  9 11  1  1  0  0  0
 10  1  1  0  0  0  0
 11 12  1  0  0  0  0
 13 14  1  1  0  0  0
 13 21  1  0  0  0  0
 15 13  1  0  0  0  0
 16 15  1  0  0  0  0
 16 18  1  0  0  0  0
 16 17  1  6  0  0  0
 18  2  1  6  0  0  0
 18 19  1  0  0  0  0
 19 21  1  0  0  0  0
 19 20  1  1  0  0  0
 21 22  1  1  0  0  0
 23 20  1  6  0  0  0
 23 29  1  0  0  0  0
 23 24  1  0  0  0  0
 24 26  1  0  0  0  0
 24 25  1  1  0  0  0
 26 27  1  1  0  0  0
 28 26  1  0  0  0  0
 28 30  1  6  0  0  0
 29 28  1  0  0  0  0
 30 31  1  0  0  0  0
 32 27  1  6  0  0  0
 32 40  1  0  0  0  0
 32 33  1  0  0  0  0
 33 35  1  0  0  0  0
 33 34  1  6  0  0  0
 35 37  1  0  0  0  0
 35 36  1  1  0  0  0
 37 38  1  1  0  0  0
 39 37  1  0  0  0  0
 39 41  1  6  0  0  0
 40 39  1  0  0  0  0
 42 41  1  0  0  0  0
M  END
>  <CHROM.1>
-151.10525679,-165.33058756,61.33255973,71.19779071,-173.46117490,-175.98767218
-47.56500688,58.46919797,75.13980873,175.33693226,130.86680242,-55.63279058
68.62438781,172.40988549,-71.48123322,66.36844893,176.07969117,-70.94231632
-169.68964840,70.04119502,-175.25238964,-51.15431081,-0.58937069,2.85317494
2.78230164,-1.31370116,0.98928138,1.37014540

>  <Name>
lig.pdb

>  <RI>
0

>  <Rbt.Current_Directory>
/home/itssahil/PROJECTS/Mol_Feturizer/New_Systems/rnas/2mxs

>  <Rbt.Executable>
rbdock ($Id: //depot/dev/client3/rdock/2013.1/src/exe/rbdock.cxx#4 $)

>  <Rbt.Library>
libRbt.so (2013.1, Build901 2013/11/27)

>  <Rbt.Parameter_File>
/export/apps/rDock/src/rDock_2013.1_src/data/scripts/dock_solv.prm

>  <Rbt.Receptor>
prm/pocket_docking_3.prm

>  <SCORE>
-45.0283

>  <SCORE.INTER>
-37.104

>  <SCORE.INTER.CONST>
1

>  <SCORE.INTER.POLAR>
-5.14969

>  <SCORE.INTER.ROT>
9

>  <SCORE.INTER.SOLV>
16.933

>  <SCORE.INTER.VDW>
-22.8147

>  <SCORE.INTER.norm>
-0.883428

>  <SCORE.INTRA>
-7.92428

>  <SCORE.INTRA.DIHEDRAL>
-13.1676

>  <SCORE.INTRA.DIHEDRAL.0>
30.1357

>  <SCORE.INTRA.POLAR>
-1.74168

>  <SCORE.INTRA.POLAR.0>
-0.631696

>  <SCORE.INTRA.REPUL>
0

>  <SCORE.INTRA.REPUL.0>
0

>  <SCORE.INTRA.SOLV>
1.59305

>  <SCORE.INTRA.SOLV.lig_0>
-55.904

>  <SCORE.INTRA.VDW>
3.78472

>  <SCORE.INTRA.VDW.0>
-8.21197

>  <SCORE.INTRA.norm>
-0.188673

>  <SCORE.RESTR>
0

>  <SCORE.RESTR.CAVITY>
0

>  <SCORE.RESTR.norm>
0

>  <SCORE.SYSTEM>
0

>  <SCORE.SYSTEM.CONST>
0

>  <SCORE.SYSTEM.DIHEDRAL>
0

>  <SCORE.SYSTEM.SOLV>
0

>  <SCORE.SYSTEM.norm>
0

>  <SCORE.heavy>
42

>  <SCORE.norm>
-1.0721

>  <RMSD>
2.121

$$$$
lig.pdb
 OpenBabel11021811453D
libRbt.so/2013.1/901 2013/11/27
 42 45  0  0  0  0  0  0  0  0999 V2000
    0.1534    3.8525    1.6251 C   0  0  2  0  0  0  0  0  0  0  0  0
   -0.7787    3.0456    0.9028 O   0  0  0  0  0  0  0  0  0  0  0  0
   -0.5230    5.1236    2.1603 C   0  0  2  0  0  0  0  0  0  0  0  0
   -1.7108    4.7908    2.9682 N   0  0  0  0  0  0  0  0  0  0  0  0
   -0.8856    6.0775    1.0147 C   0  0  1  0  0  0  0  0  0  0  0  0
   -1.3638    7.2959    1.5517 O   0  0  0  0  0  0  0  0  0  0  0  0
    0.3481    6.3550    0.1426 C   0  0  2  0  0  0  0  0  0  0  0  0
   -0.0398    7.1047   -0.9927 O   0  0  0  0  0  0  0  0  0  0  0  0
    1.0308    5.0463   -0.3042 C   0  0  2  0  0  0  0  0  0  0  0  0
    1.2728    4.1848    0.8076 O   0  0  0  0  0  0  0  0  0  0  0  0
    2.3660    5.4096   -0.9813 C   0  0  0  0  0  0  0  0  0  0  0  0
    3.0727    4.2357   -1.4639 O   0  0  0  0  0  0  0  0  0  0  0  0
   -0.8026   -1.1753    0.0576 C   0  0  2  0  0  0  0  0  0  0  0  0
   -0.1309   -2.4594   -0.2259 N   0  0  0  0  0  0  0  0  0  0  0  0
   -0.4629   -0.1471   -1.0243 C   0  0  0  0  0  0  0  0  0  0  0  0
   -1.0363    1.2188   -0.6658 C   0  0  2  0  0  0  0  0  0  0  0  0
   -0.7904    2.1733   -1.7541 N   0  0  0  0  0  0  0  0  0  0  0  0
   -0.4009    1.6816    0.6659 C   0  0  2  0  0  0  0  0  0  0  0  0
   -0.8640    0.7671    1.7544 C   0  0  2  0  0  0  0  0  0  0  0  0
   -0.3054    1.2326    2.9692 O   0  0  0  0  0  0  0  0  0  0  0  0
   -0.4175   -0.6511    1.4538 C   0  0  1  0  0  0  0  0  0  0  0  0
   -0.9013   -1.5748    2.4107 O   0  0  0  0  0  0  0  0  0  0  0  0
   -0.5959    0.5014    4.1557 C   0  0  1  0  0  0  0  0  0  0  0  0
    0.3334    1.0120    5.2589 C   0  0  2  0  0  0  0  0  0  0  0  0
    0.7045   -0.0677    6.0953 O   0  0  0  0  0  0  0  0  0  0  0  0
   -0.5425    2.0483    5.9757 C   0  0  2  0  0  0  0  0  0  0  0  0
   -0.1022    2.3192    7.3067 O   0  0  0  0  0  0  0  0  0  0  0  0
   -1.9076    1.3563    5.8770 C   0  0  2  0  0  0  0  0  0  0  0  0
   -1.9245    0.7826    4.5775 O   0  0  0  0  0  0  0  0  0  0  0  0
   -3.1074    2.3000    6.0204 C   0  0  0  0  0  0  0  0  0  0  0  0
   -4.3251    1.6370    5.7542 O   0  0  0  0  0  0  0  0  0  0  0  0
    1.3085    2.4765    7.4456 C   0  0  2  0  0  0  0  0  0  0  0  0
    1.8223    1.8783    8.7641 C   0  0  2  0  0  0  0  0  0  0  0  0
    1.4264    0.4657    8.8906 N   0  0  0  0  0  0  0  0  0  0  0  0
    1.3494    2.7049    9.9694 C   0  0  1  0  0  0  0  0  0  0  0  0
    1.9213    2.1601   11.1428 O   0  0  0  0  0  0  0  0  0  0  0  0
    1.8171    4.1575    9.7764 C   0  0  2  0  0  0  0  0  0  0  0  0
    1.3690    4.9742   10.8425 O   0  0  0  0  0  0  0  0  0  0  0  0
    1.3302    4.7200    8.4251 C   0  0  1  0  0  0  0  0  0  0  0  0
    1.6726    3.8513    7.3428 O   0  0  0  0  0  0  0  0  0  0  0  0
   -0.1620    5.0834    8.4191 C   0  0  0  0  0  0  0  0  0  0  0  0
   -0.4542    6.1652    9.3733 N   0  0  0  0  0  0  0  0  0  0  0  0
  1  3  1  0  0  0  0
  1  2  1  6  0  0  0
  3  4  1  6  0  0  0
  5  6  1  1  0  0  0
  5  3  1  0  0  0  0
  7  9  1  0  0  0  0
  7  5  1  0  0  0  0
  7  8  1  6  0  0  0
  9 10  1  0  0  0  0
  9 11  1  1  0  0  0
 10  1  1  0  0  0  0
 11 12  1  0  0  0  0
 13 14  1  6  0  0  0
 13 21  1  0  0  0  0
 15 13  1  0  0  0  0
 16 15  1  0  0  0  0
 16 18  1  0  0  0  0
 16 17  1  6  0  0  0
 18  2  1  1  0  0  0
 18 19  1  0  0  0  0
 19 21  1  0  0  0  0
 19 20  1  1  0  0  0
 21 22  1  1  0  0  0
 23 20  1  6  0  0  0
 23 29  1  0  0  0  0
 23 24  1  0  0  0  0
 24 26  1  0  0  0  0
 24 25  1  1  0  0  0
 26 27  1  1  0  0  0
 28 26  1  0  0  0  0
 28 30  1  6  0  0  0
 29 28  1  0  0  0  0
 30 31  1  0  0  0  0
 32 27  1  1  0  0  0
 32 40  1  0  0  0  0
 32 33  1  0  0  0  0
 33 35  1  0  0  0  0
 33 34  1  1  0  0  0
 35 37  1  0  0  0  0
 35 36  1  1  0  0  0
 37 38  1  1  0  0  0
 39 37  1  0  0  0  0
 39 41  1  1  0  0  0
 40 39  1  0  0  0  0
 42 41  1  0  0  0  0
M  END
>  <CHROM.1>
-149.43686744,-163.36565678,-175.37245257,-169.39049686,41.08696987,-173.58362349
-178.78838927,131.37129380,164.14765099,-179.19607838,168.48922534,-59.34670459
-56.06016194,43.67393596,-143.04360248,172.58073908,-54.56020599,43.48755015
-172.51321366,162.40020400,63.49203618,79.60529901,-0.04061379,2.72725253
3.93613535,-2.02616477,1.38630973,1.98887928

>  <Name>
lig.pdb

>  <RI>
0

>  <Rbt.Current_Directory>
/home/itssahil/PROJECTS/Mol_Feturizer/New_Systems/rnas/2mxs

>  <Rbt.Executable>
rbdock ($Id: //depot/dev/client3/rdock/2013.1/src/exe/rbdock.cxx#4 $)

>  <Rbt.Library>
libRbt.so (2013.1, Build901 2013/11/27)

>  <Rbt.Parameter_File>
/export/apps/rDock/src/rDock_2013.1_src/data/scripts/dock_solv.prm

>  <Rbt.Receptor>
prm/pocket_docking_3.prm

>  <SCORE>
-34.9492

>  <SCORE.INTER>
-33.9989

>  <SCORE.INTER.CONST>
1

>  <SCORE.INTER.POLAR>
-4.61087

>  <SCORE.INTER.ROT>
9

>  <SCORE.INTER.SOLV>
14.4861

>  <SCORE.INTER.VDW>
-21.7251

>  <SCORE.INTER.norm>
-0.809497

>  <SCORE.INTRA>
-1.05946

>  <SCORE.INTRA.DIHEDRAL>
-7.71744

>  <SCORE.INTRA.DIHEDRAL.0>
30.1357

>  <SCORE.INTRA.POLAR>
-0.636432

>  <SCORE.INTRA.POLAR.0>
-0.631696

>  <SCORE.INTRA.REPUL>
0

>  <SCORE.INTRA.REPUL.0>
0

>  <SCORE.INTRA.SOLV>
-0.387664

>  <SCORE.INTRA.SOLV.lig_0>
-55.904

>  <SCORE.INTRA.VDW>
5.15696

>  <SCORE.INTRA.VDW.0>
-8.21197

>  <SCORE.INTRA.norm>
-0.0252252

>  <SCORE.RESTR>
0.109097

>  <SCORE.RESTR.CAVITY>
0.109097

>  <SCORE.RESTR.norm>
0.00259756

>  <SCORE.SYSTEM>
0

>  <SCORE.SYSTEM.CONST>
0

>  <SCORE.SYSTEM.DIHEDRAL>
0

>  <SCORE.SYSTEM.SOLV>
0

>  <SCORE.SYSTEM.norm>
0

>  <SCORE.heavy>
42

>  <SCORE.norm>
-0.832125

>  <RMSD>
2.134

$$$$
lig.pdb
 OpenBabel11021811453D
libRbt.so/2013.1/901 2013/11/27
 42 45  0  0  0  0  0  0  0  0999 V2000
    0.1692    3.7020    0.4439 C   0  0  2  0  0  0  0  0  0  0  0  0
   -0.5921    2.8777   -0.4407 O   0  0  0  0  0  0  0  0  0  0  0  0
   -0.2052    5.1818    0.2710 C   0  0  2  0  0  0  0  0  0  0  0  0
   -1.6565    5.3832    0.4370 N   0  0  0  0  0  0  0  0  0  0  0  0
    0.2734    5.7153   -1.0854 C   0  0  1  0  0  0  0  0  0  0  0  0
    0.0492    7.1108   -1.1468 O   0  0  0  0  0  0  0  0  0  0  0  0
    1.7719    5.4319   -1.2700 C   0  0  2  0  0  0  0  0  0  0  0  0
    2.1573    5.7867   -2.5841 O   0  0  0  0  0  0  0  0  0  0  0  0
    2.1029    3.9480   -1.0114 C   0  0  2  0  0  0  0  0  0  0  0  0
    1.5662    3.5094    0.2362 O   0  0  0  0  0  0  0  0  0  0  0  0
    3.6357    3.7939   -1.0015 C   0  0  0  0  0  0  0  0  0  0  0  0
    4.2237    4.0839   -2.2978 O   0  0  0  0  0  0  0  0  0  0  0  0
   -1.5324   -1.3160   -0.1973 C   0  0  2  0  0  0  0  0  0  0  0  0
   -1.1841   -2.7236    0.0813 N   0  0  0  0  0  0  0  0  0  0  0  0
   -0.6477   -0.7605   -1.3162 C   0  0  0  0  0  0  0  0  0  0  0  0
   -0.9032    0.7290   -1.5132 C   0  0  2  0  0  0  0  0  0  0  0  0
   -0.1234    1.2309   -2.6516 N   0  0  0  0  0  0  0  0  0  0  0  0
   -0.5496    1.4638   -0.1993 C   0  0  2  0  0  0  0  0  0  0  0  0
   -1.5192    1.0389    0.8565 C   0  0  2  0  0  0  0  0  0  0  0  0
   -1.2042    1.7533    2.0376 O   0  0  0  0  0  0  0  0  0  0  0  0
   -1.4107   -0.4582    1.0762 C   0  0  1  0  0  0  0  0  0  0  0  0
   -2.3665   -0.9294    2.0075 O   0  0  0  0  0  0  0  0  0  0  0  0
   -2.0132    1.5246    3.1865 C   0  0  1  0  0  0  0  0  0  0  0  0
   -1.1060    1.5873    4.4171 C   0  0  2  0  0  0  0  0  0  0  0  0
   -1.5494    0.6437    5.3741 O   0  0  0  0  0  0  0  0  0  0  0  0
   -1.2822    3.0385    4.8841 C   0  0  2  0  0  0  0  0  0  0  0  0
   -0.9346    3.2242    6.2565 O   0  0  0  0  0  0  0  0  0  0  0  0
   -2.7677    3.2428    4.5624 C   0  0  2  0  0  0  0  0  0  0  0  0
   -2.9597    2.5772    3.3220 O   0  0  0  0  0  0  0  0  0  0  0  0
   -3.1865    4.7098    4.4103 C   0  0  0  0  0  0  0  0  0  0  0  0
   -2.4074    5.3750    3.4389 O   0  0  0  0  0  0  0  0  0  0  0  0
   -1.1092    4.5548    6.7392 C   0  0  2  0  0  0  0  0  0  0  0  0
    0.0490    5.4716    6.3169 C   0  0  2  0  0  0  0  0  0  0  0  0
    0.2299    5.4518    4.8558 N   0  0  0  0  0  0  0  0  0  0  0  0
    1.3467    5.0985    7.0493 C   0  0  1  0  0  0  0  0  0  0  0  0
    2.3517    6.0258    6.6879 O   0  0  0  0  0  0  0  0  0  0  0  0
    1.0858    5.1623    8.5638 C   0  0  2  0  0  0  0  0  0  0  0  0
    2.2421    4.7842    9.2880 O   0  0  0  0  0  0  0  0  0  0  0  0
   -0.1111    4.2720    8.9566 C   0  0  1  0  0  0  0  0  0  0  0  0
   -1.2608    4.5584    8.1569 O   0  0  0  0  0  0  0  0  0  0  0  0
    0.2224    2.7728    8.9656 C   0  0  0  0  0  0  0  0  0  0  0  0
   -0.9484    1.9609    8.5963 N   0  0  0  0  0  0  0  0  0  0  0  0
  1  3  1  0  0  0  0
  1  2  1  6  0  0  0
  3  4  1  6  0  0  0
  5  6  1  1  0  0  0
  5  3  1  0  0  0  0
  7  9  1  0  0  0  0
  7  5  1  0  0  0  0
  7  8  1  6  0  0  0
  9 10  1  0  0  0  0
  9 11  1  1  0  0  0
 10  1  1  0  0  0  0
 11 12  1  0  0  0  0
 13 14  1  1  0  0  0
 13 21  1  0  0  0  0
 15 13  1  0  0  0  0
 16 15  1  0  0  0  0
 16 18  1  0  0  0  0
 16 17  1  6  0  0  0
 18  2  1  6  0  0  0
 18 19  1  0  0  0  0
 19 21  1  0  0  0  0
 19 20  1  1  0  0  0
 21 22  1  1  0  0  0
 23 20  1  6  0  0  0
 23 29  1  0  0  0  0
 23 24  1  0  0  0  0
 24 26  1  0  0  0  0
 24 25  1  1  0  0  0
 26 27  1  1  0  0  0
 28 26  1  0  0  0  0
 28 30  1  6  0  0  0
 29 28  1  0  0  0  0
 30 31  1  0  0  0  0
 32 27  1  1  0  0  0
 32 40  1  0  0  0  0
 32 33  1  0  0  0  0
 33 35  1  0  0  0  0
 33 34  1  6  0  0  0
 35 37  1  0  0  0  0
 35 36  1  1  0  0  0
 37 38  1  1  0  0  0
 39 37  1  0  0  0  0
 39 41  1  6  0  0  0
 40 39  1  0  0  0  0
 42 41  1  0  0  0  0
M  END
>  <CHROM.1>
-156.87419131,-167.55342577,-175.00038146,69.09077638,68.22360879,-65.36950200
-65.00052129,-177.56787705,-172.24815533,179.18155887,143.94367979,-47.40506534
-53.39397778,-178.81408750,-79.21671016,55.50852350,177.67702600,37.84502679
-66.24853674,-44.56734903,-148.28375115,-54.30152857,-0.27562212,3.17105132
2.71966701,-1.43326689,1.04571513,1.28014450

>  <Name>
lig.pdb

>  <RI>
224

>  <Rbt.Current_Directory>
/home/itssahil/PROJECTS/Mol_Feturizer/New_Systems/rnas/2mxs

>  <Rbt.Executable>
rbdock ($Id: //depot/dev/client3/rdock/2013.1/src/exe/rbdock.cxx#4 $)

>  <Rbt.Library>
libRbt.so (2013.1, Build901 2013/11/27)

>  <Rbt.Parameter_File>
/export/apps/rDock/src/rDock_2013.1_src/data/scripts/dock_solv.prm

>  <Rbt.Receptor>
prm/pocket_docking_2.prm

>  <SCORE>
-45.3408

>  <SCORE.INTER>
-36.9737

>  <SCORE.INTER.CONST>
1

>  <SCORE.INTER.POLAR>
-5.02427

>  <SCORE.INTER.ROT>
9

>  <SCORE.INTER.SOLV>
15.5644

>  <SCORE.INTER.VDW>
-22.6897

>  <SCORE.INTER.norm>
-0.880326

>  <SCORE.INTRA>
-9.43611

>  <SCORE.INTRA.DIHEDRAL>
-12.539

>  <SCORE.INTRA.DIHEDRAL.0>
30.1357

>  <SCORE.INTRA.POLAR>
-2.08274

>  <SCORE.INTRA.POLAR.0>
-0.631696

>  <SCORE.INTRA.REPUL>
0

>  <SCORE.INTRA.REPUL.0>
0

>  <SCORE.INTRA.SOLV>
1.83164

>  <SCORE.INTRA.SOLV.lig_0>
-55.904

>  <SCORE.INTRA.VDW>
2.99886

>  <SCORE.INTRA.VDW.0>
-8.21197

>  <SCORE.INTRA.norm>
-0.224669

>  <SCORE.RESTR>
1.06895

>  <SCORE.RESTR.CAVITY>
1.06895

>  <SCORE.RESTR.norm>
0.0254513

>  <SCORE.SYSTEM>
0

>  <SCORE.SYSTEM.CONST>
0

>  <SCORE.SYSTEM.DIHEDRAL>
0

>  <SCORE.SYSTEM.SOLV>
0

>  <SCORE.SYSTEM.norm>
0

>  <SCORE.heavy>
42

>  <SCORE.norm>
-1.07954

>  <RMSD>
2.142

$$$$
lig.pdb
 OpenBabel11021811453D
libRbt.so/2013.1/901 2013/11/27
 42 45  0  0  0  0  0  0  0  0999 V2000
   -0.7156    3.4241    1.0258 C   0  0  2  0  0  0  0  0  0  0  0  0
   -1.6142    2.9958    0.0009 O   0  0  0  0  0  0  0  0  0  0  0  0
   -0.5612    4.9524    1.0144 C   0  0  2  0  0  0  0  0  0  0  0  0
   -1.8734    5.6176    1.1142 N   0  0  0  0  0  0  0  0  0  0  0  0
    0.1994    5.4190   -0.2335 C   0  0  1  0  0  0  0  0  0  0  0  0
    0.4560    6.8069   -0.1356 O   0  0  0  0  0  0  0  0  0  0  0  0
    1.5308    4.6629   -0.3589 C   0  0  2  0  0  0  0  0  0  0  0  0
    2.1407    4.9898   -1.5928 O   0  0  0  0  0  0  0  0  0  0  0  0
    1.3256    3.1373   -0.2658 C   0  0  2  0  0  0  0  0  0  0  0  0
    0.5527    2.7896    0.8825 O   0  0  0  0  0  0  0  0  0  0  0  0
    2.7125    2.4719   -0.1805 C   0  0  0  0  0  0  0  0  0  0  0  0
    2.6232    1.0597    0.1479 O   0  0  0  0  0  0  0  0  0  0  0  0
   -4.9811    0.3534    0.4622 C   0  0  2  0  0  0  0  0  0  0  0  0
   -5.5899   -0.9456    0.8118 N   0  0  0  0  0  0  0  0  0  0  0  0
   -3.9838    0.1817   -0.6863 C   0  0  0  0  0  0  0  0  0  0  0  0
   -3.2486    1.4886   -0.9589 C   0  0  2  0  0  0  0  0  0  0  0  0
   -2.3672    1.3409   -2.1238 N   0  0  0  0  0  0  0  0  0  0  0  0
   -2.4652    1.8837    0.3145 C   0  0  2  0  0  0  0  0  0  0  0  0
   -3.4481    2.2078    1.3936 C   0  0  2  0  0  0  0  0  0  0  0  0
   -2.7121    2.6065    2.5354 O   0  0  0  0  0  0  0  0  0  0  0  0
   -4.3012    0.9888    1.6896 C   0  0  1  0  0  0  0  0  0  0  0  0
   -5.3069    1.2636    2.6467 O   0  0  0  0  0  0  0  0  0  0  0  0
   -3.4394    2.9023    3.7230 C   0  0  1  0  0  0  0  0  0  0  0  0
   -2.8405    2.0686    4.8579 C   0  0  2  0  0  0  0  0  0  0  0  0
   -3.8735    1.6626    5.7359 O   0  0  0  0  0  0  0  0  0  0  0  0
   -1.8576    3.0521    5.5073 C   0  0  2  0  0  0  0  0  0  0  0  0
   -1.5291    2.6996    6.8514 O   0  0  0  0  0  0  0  0  0  0  0  0
   -2.6498    4.3568    5.3586 C   0  0  2  0  0  0  0  0  0  0  0  0
   -3.2485    4.2672    4.0734 O   0  0  0  0  0  0  0  0  0  0  0  0
   -1.7943    5.6275    5.4219 C   0  0  0  0  0  0  0  0  0  0  0  0
   -1.7886    6.3126    4.1875 O   0  0  0  0  0  0  0  0  0  0  0  0
   -0.7242    1.5291    6.9792 C   0  0  2  0  0  0  0  0  0  0  0  0
   -0.5393    1.1214    8.4488 C   0  0  2  0  0  0  0  0  0  0  0  0
   -1.8410    0.9510    9.1155 N   0  0  0  0  0  0  0  0  0  0  0  0
    0.3476    2.1287    9.1961 C   0  0  1  0  0  0  0  0  0  0  0  0
    0.5530    1.6585   10.5142 O   0  0  0  0  0  0  0  0  0  0  0  0
    1.6916    2.2361    8.4558 C   0  0  2  0  0  0  0  0  0  0  0  0
    2.5337    3.1872    9.0810 O   0  0  0  0  0  0  0  0  0  0  0  0
    1.4778    2.5987    6.9718 C   0  0  1  0  0  0  0  0  0  0  0  0
    0.5402    1.7184    6.3479 O   0  0  0  0  0  0  0  0  0  0  0  0
    1.1131    4.0744    6.7521 C   0  0  0  0  0  0  0  0  0  0  0  0
    2.2940    4.9434    6.8810 N   0  0  0  0  0  0  0  0  0  0  0  0
  1  3  1  0  0  0  0
  1  2  1  6  0  0  0
  3  4  1  6  0  0  0
  5  6  1  1  0  0  0
  5  3  1  0  0  0  0
  7  9  1  0  0  0  0
  7  5  1  0  0  0  0
  7  8  1  6  0  0  0
  9 10  1  0  0  0  0
  9 11  1  1  0  0  0
 10  1  1  0  0  0  0
 11 12  1  0  0  0  0
 13 14  1  1  0  0  0
 13 21  1  0  0  0  0
 15 13  1  0  0  0  0
 16 15  1  0  0  0  0
 16 18  1  0  0  0  0
 16 17  1  6  0  0  0
 18  2  1  6  0  0  0
 18 19  1  0  0  0  0
 19 21  1  0  0  0  0
 19 20  1  1  0  0  0
 21 22  1  1  0  0  0
 23 20  1  6  0  0  0
 23 29  1  0  0  0  0
 23 24  1  0  0  0  0
 24 26  1  0  0  0  0
 24 25  1  1  0  0  0
 26 27  1  1  0  0  0
 28 26  1  0  0  0  0
 28 30  1  6  0  0  0
 29 28  1  0  0  0  0
 30 31  1  0  0  0  0
 32 27  1  1  0  0  0
 32 40  1  0  0  0  0
 32 33  1  0  0  0  0
 33 35  1  0  0  0  0
 33 34  1  1  0  0  0
 35 37  1  0  0  0  0
 35 36  1  1  0  0  0
 37 38  1  1  0  0  0
 39 37  1  0  0  0  0
 39 41  1  1  0  0  0
 40 39  1  0  0  0  0
 42 41  1  0  0  0  0
M  END
>  <CHROM.1>
-174.31430429,-143.63350475,-145.09936094,57.91558908,-66.84499473,-61.53574953
169.78339970,178.49494882,-42.18640842,-176.88596032,126.89630965,-64.74341280
63.76827225,69.89735628,-173.70932415,113.92761168,72.14892093,78.15780067
177.09305079,-45.25429537,76.39566662,-159.56400875,-1.11467963,2.84606298
3.39522267,-1.79766373,0.51137634,1.69707295

>  <Name>
lig.pdb

>  <RI>
3.99633e+07

>  <Rbt.Current_Directory>
/home/itssahil/PROJECTS/Mol_Feturizer/New_Systems/rnas/2mxs

>  <Rbt.Executable>
rbdock ($Id: //depot/dev/client3/rdock/2013.1/src/exe/rbdock.cxx#4 $)

>  <Rbt.Library>
libRbt.so (2013.1, Build901 2013/11/27)

>  <Rbt.Parameter_File>
/export/apps/rDock/src/rDock_2013.1_src/data/scripts/dock_solv.prm

>  <Rbt.Receptor>
prm/pocket_docking_5.prm

>  <SCORE>
-38.9372

>  <SCORE.INTER>
-39.6373

>  <SCORE.INTER.CONST>
1

>  <SCORE.INTER.POLAR>
-5.92318

>  <SCORE.INTER.ROT>
9

>  <SCORE.INTER.SOLV>
16.2403

>  <SCORE.INTER.VDW>
-21.6943

>  <SCORE.INTER.norm>
-0.943745

>  <SCORE.INTRA>
0.700068

>  <SCORE.INTRA.DIHEDRAL>
-3.70359

>  <SCORE.INTRA.DIHEDRAL.0>
30.1357

>  <SCORE.INTRA.POLAR>
-0.659348

>  <SCORE.INTRA.POLAR.0>
-0.631696

>  <SCORE.INTRA.REPUL>
0

>  <SCORE.INTRA.REPUL.0>
0

>  <SCORE.INTRA.SOLV>
0.273437

>  <SCORE.INTRA.SOLV.lig_0>
-55.904

>  <SCORE.INTRA.VDW>
4.65693

>  <SCORE.INTRA.VDW.0>
-8.21197

>  <SCORE.INTRA.norm>
0.0166683

>  <SCORE.RESTR>
0

>  <SCORE.RESTR.CAVITY>
0

>  <SCORE.RESTR.norm>
0

>  <SCORE.SYSTEM>
0

>  <SCORE.SYSTEM.CONST>
0

>  <SCORE.SYSTEM.DIHEDRAL>
0

>  <SCORE.SYSTEM.SOLV>
0

>  <SCORE.SYSTEM.norm>
0

>  <SCORE.heavy>
42

>  <SCORE.norm>
-0.927076

>  <RMSD>
2.153

$$$$
lig.pdb
 OpenBabel11021811453D
libRbt.so/2013.1/901 2013/11/27
 42 45  0  0  0  0  0  0  0  0999 V2000
    0.2212    3.6861    0.3781 C   0  0  2  0  0  0  0  0  0  0  0  0
   -0.5279    2.8637   -0.5186 O   0  0  0  0  0  0  0  0  0  0  0  0
   -0.1666    5.1639    0.2185 C   0  0  2  0  0  0  0  0  0  0  0  0
   -1.6206    5.3496    0.3795 N   0  0  0  0  0  0  0  0  0  0  0  0
    0.3132    5.7158   -1.1301 C   0  0  1  0  0  0  0  0  0  0  0  0
    0.0759    7.1097   -1.1783 O   0  0  0  0  0  0  0  0  0  0  0  0
    1.8152    5.4488   -1.3103 C   0  0  2  0  0  0  0  0  0  0  0  0
    2.2035    5.8207   -2.6189 O   0  0  0  0  0  0  0  0  0  0  0  0
    2.1593    3.9656   -1.0653 C   0  0  2  0  0  0  0  0  0  0  0  0
    1.6210    3.5091    0.1752 O   0  0  0  0  0  0  0  0  0  0  0  0
    3.6934    3.8261   -1.0495 C   0  0  0  0  0  0  0  0  0  0  0  0
    4.2910    4.2056   -2.3181 O   0  0  0  0  0  0  0  0  0  0  0  0
   -1.6827   -1.2642   -0.1214 C   0  0  2  0  0  0  0  0  0  0  0  0
   -1.4036   -2.6788    0.1968 N   0  0  0  0  0  0  0  0  0  0  0  0
   -0.7923   -0.7924   -1.2736 C   0  0  0  0  0  0  0  0  0  0  0  0
   -0.9729    0.7017   -1.5146 C   0  0  2  0  0  0  0  0  0  0  0  0
   -0.1904    1.1250   -2.6826 N   0  0  0  0  0  0  0  0  0  0  0  0
   -0.5551    1.4578   -0.2319 C   0  0  2  0  0  0  0  0  0  0  0  0
   -1.5247    1.1188    0.8546 C   0  0  2  0  0  0  0  0  0  0  0  0
   -1.1492    1.8524    2.0058 O   0  0  0  0  0  0  0  0  0  0  0  0
   -1.4908   -0.3743    1.1210 C   0  0  1  0  0  0  0  0  0  0  0  0
   -2.4515   -0.7641    2.0844 O   0  0  0  0  0  0  0  0  0  0  0  0
   -1.9298    1.6824    3.1842 C   0  0  1  0  0  0  0  0  0  0  0  0
   -0.9786    1.7064    4.3825 C   0  0  2  0  0  0  0  0  0  0  0  0
   -1.4414    0.7997    5.3657 O   0  0  0  0  0  0  0  0  0  0  0  0
   -1.0562    3.1701    4.8370 C   0  0  2  0  0  0  0  0  0  0  0  0
   -0.6516    3.3503    6.1944 O   0  0  0  0  0  0  0  0  0  0  0  0
   -2.5380    3.4553    4.5631 C   0  0  2  0  0  0  0  0  0  0  0  0
   -2.8100    2.7886    3.3384 O   0  0  0  0  0  0  0  0  0  0  0  0
   -2.8782    4.9420    4.4068 C   0  0  0  0  0  0  0  0  0  0  0  0
   -4.2334    5.1998    4.7070 O   0  0  0  0  0  0  0  0  0  0  0  0
   -0.9625    4.6298    6.7425 C   0  0  2  0  0  0  0  0  0  0  0  0
    0.1350    5.6616    6.4410 C   0  0  2  0  0  0  0  0  0  0  0  0
    0.3931    5.7478    4.9939 N   0  0  0  0  0  0  0  0  0  0  0  0
    1.4195    5.3495    7.2236 C   0  0  1  0  0  0  0  0  0  0  0  0
    2.3605    6.3758    6.9746 O   0  0  0  0  0  0  0  0  0  0  0  0
    1.0755    5.2974    8.7219 C   0  0  2  0  0  0  0  0  0  0  0  0
    2.2200    4.9694    9.4879 O   0  0  0  0  0  0  0  0  0  0  0  0
   -0.0613    4.2905    8.9933 C   0  0  1  0  0  0  0  0  0  0  0  0
   -1.1877    4.5325    8.1471 O   0  0  0  0  0  0  0  0  0  0  0  0
    0.3961    2.8256    8.9345 C   0  0  0  0  0  0  0  0  0  0  0  0
   -0.7236    1.9268    8.6108 N   0  0  0  0  0  0  0  0  0  0  0  0
  1  3  1  0  0  0  0
  1  2  1  6  0  0  0
  3  4  1  6  0  0  0
  5  6  1  1  0  0  0
  5  3  1  0  0  0  0
  7  9  1  0  0  0  0
  7  5  1  0  0  0  0
  7  8  1  6  0  0  0
  9 10  1  0  0  0  0
  9 11  1  1  0  0  0
 10  1  1  0  0  0  0
 11 12  1  0  0  0  0
 13 14  1  1  0  0  0
 13 21  1  0  0  0  0
 15 13  1  0  0  0  0
 16 15  1  0  0  0  0
 16 18  1  0  0  0  0
 16 17  1  6  0  0  0
 18  2  1  6  0  0  0
 18 19  1  0  0  0  0
 19 21  1  0  0  0  0
 19 20  1  1  0  0  0
 21 22  1  1  0  0  0
 23 20  1  6  0  0  0
 23 29  1  0  0  0  0
 23 24  1  0  0  0  0
 24 26  1  0  0  0  0
 24 25  1  1  0  0  0
 26 27  1  1  0  0  0
 28 26  1  0  0  0  0
 28 30  1  6  0  0  0
 29 28  1  0  0  0  0
 30 31  1  0  0  0  0
 32 27  1  1  0  0  0
 32 40  1  0  0  0  0
 32 33  1  0  0  0  0
 33 35  1  0  0  0  0
 33 34  1  6  0  0  0
 35 37  1  0  0  0  0
 35 36  1  1  0  0  0
 37 38  1  1  0  0  0
 39 37  1  0  0  0  0
 39 41  1  6  0  0  0
 40 39  1  0  0  0  0
 42 41  1  0  0  0  0
M  END
>  <CHROM.1>
-160.92948386,-162.99617263,-56.81161596,-57.42515739,-36.19042589,63.84061142
-61.84030987,-44.21371779,62.58513220,-179.53954888,142.38951134,-55.45545919
179.58346194,-167.77862041,-86.31563079,-155.63991425,179.14576003,161.58792198
66.78202518,68.33197990,-155.18809320,-55.75487575,-0.27285903,3.25026329
2.77343990,-1.46222770,1.01266323,1.28354896

>  <Name>
lig.pdb

>  <RI>
224

>  <Rbt.Current_Directory>
/home/itssahil/PROJECTS/Mol_Feturizer/New_Systems/rnas/2mxs

>  <Rbt.Executable>
rbdock ($Id: //depot/dev/client3/rdock/2013.1/src/exe/rbdock.cxx#4 $)

>  <Rbt.Library>
libRbt.so (2013.1, Build901 2013/11/27)

>  <Rbt.Parameter_File>
/export/apps/rDock/src/rDock_2013.1_src/data/scripts/dock_solv.prm

>  <Rbt.Receptor>
prm/pocket_docking_2.prm

>  <SCORE>
-41.6951

>  <SCORE.INTER>
-41.7125

>  <SCORE.INTER.CONST>
1

>  <SCORE.INTER.POLAR>
-6.18423

>  <SCORE.INTER.ROT>
9

>  <SCORE.INTER.SOLV>
16.2731

>  <SCORE.INTER.VDW>
-22.2186

>  <SCORE.INTER.norm>
-0.993154

>  <SCORE.INTRA>
-1.89999

>  <SCORE.INTRA.DIHEDRAL>
-9.52984

>  <SCORE.INTRA.DIHEDRAL.0>
30.1357

>  <SCORE.INTRA.POLAR>
-0.377924

>  <SCORE.INTRA.POLAR.0>
-0.631696

>  <SCORE.INTRA.REPUL>
0.00363145

>  <SCORE.INTRA.REPUL.0>
0

>  <SCORE.INTRA.SOLV>
-0.376096

>  <SCORE.INTRA.SOLV.lig_0>
-55.904

>  <SCORE.INTRA.VDW>
4.31976

>  <SCORE.INTRA.VDW.0>
-8.21197

>  <SCORE.INTRA.norm>
-0.0452379

>  <SCORE.RESTR>
1.91736

>  <SCORE.RESTR.CAVITY>
1.91736

>  <SCORE.RESTR.norm>
0.0456514

>  <SCORE.SYSTEM>
0

>  <SCORE.SYSTEM.CONST>
0

>  <SCORE.SYSTEM.DIHEDRAL>
0

>  <SCORE.SYSTEM.SOLV>
0

>  <SCORE.SYSTEM.norm>
0

>  <SCORE.heavy>
42

>  <SCORE.norm>
-0.992741

>  <RMSD>
2.154

$$$$
lig.pdb
 OpenBabel11021811453D
libRbt.so/2013.1/901 2013/11/27
 42 45  0  0  0  0  0  0  0  0999 V2000
    0.2827    3.7996    1.4922 C   0  0  2  0  0  0  0  0  0  0  0  0
   -0.7364    3.0355    0.8448 O   0  0  0  0  0  0  0  0  0  0  0  0
   -0.0838    5.2911    1.5164 C   0  0  2  0  0  0  0  0  0  0  0  0
   -1.4080    5.5006    2.1303 N   0  0  0  0  0  0  0  0  0  0  0  0
   -0.0285    5.8939    0.1068 C   0  0  1  0  0  0  0  0  0  0  0  0
   -0.2204    7.2934    0.1866 O   0  0  0  0  0  0  0  0  0  0  0  0
    1.3325    5.6031   -0.5434 C   0  0  2  0  0  0  0  0  0  0  0  0
    1.3070    6.0262   -1.8931 O   0  0  0  0  0  0  0  0  0  0  0  0
    1.6839    4.1031   -0.4730 C   0  0  2  0  0  0  0  0  0  0  0  0
    1.5428    3.6018    0.8558 O   0  0  0  0  0  0  0  0  0  0  0  0
    3.1409    3.9300   -0.9425 C   0  0  0  0  0  0  0  0  0  0  0  0
    3.5712    2.5434   -0.8931 O   0  0  0  0  0  0  0  0  0  0  0  0
   -1.0939   -1.1947    0.1315 C   0  0  2  0  0  0  0  0  0  0  0  0
   -0.5260   -2.5349   -0.1164 N   0  0  0  0  0  0  0  0  0  0  0  0
   -0.6859   -0.2293   -0.9842 C   0  0  0  0  0  0  0  0  0  0  0  0
   -1.1488    1.1872   -0.6644 C   0  0  2  0  0  0  0  0  0  0  0  0
   -0.8401    2.0861   -1.7835 N   0  0  0  0  0  0  0  0  0  0  0  0
   -0.4672    1.6398    0.6478 C   0  0  2  0  0  0  0  0  0  0  0  0
   -0.9894    0.7976    1.7674 C   0  0  2  0  0  0  0  0  0  0  0  0
   -0.3852    1.2552    2.9633 O   0  0  0  0  0  0  0  0  0  0  0  0
   -0.6565   -0.6595    1.5080 C   0  0  1  0  0  0  0  0  0  0  0  0
   -1.2012   -1.5134    2.4966 O   0  0  0  0  0  0  0  0  0  0  0  0
   -1.0618    0.9968    4.1890 C   0  0  1  0  0  0  0  0  0  0  0  0
   -0.0216    1.0196    5.3110 C   0  0  2  0  0  0  0  0  0  0  0  0
   -0.3619    0.0505    6.2845 O   0  0  0  0  0  0  0  0  0  0  0  0
   -0.1329    2.4573    5.8359 C   0  0  2  0  0  0  0  0  0  0  0  0
    0.3681    2.6014    7.1652 O   0  0  0  0  0  0  0  0  0  0  0  0
   -1.6436    2.6776    5.6893 C   0  0  2  0  0  0  0  0  0  0  0  0
   -1.9789    2.0492    4.4600 O   0  0  0  0  0  0  0  0  0  0  0  0
   -2.0654    4.1502    5.6271 C   0  0  0  0  0  0  0  0  0  0  0  0
   -3.4556    4.3016    5.8211 O   0  0  0  0  0  0  0  0  0  0  0  0
    0.5614    3.9508    7.5846 C   0  0  2  0  0  0  0  0  0  0  0  0
    2.0089    4.2081    8.0303 C   0  0  2  0  0  0  0  0  0  0  0  0
    2.9601    3.8361    6.9697 N   0  0  0  0  0  0  0  0  0  0  0  0
    2.3213    3.4804    9.3465 C   0  0  1  0  0  0  0  0  0  0  0  0
    3.6330    3.8220    9.7508 O   0  0  0  0  0  0  0  0  0  0  0  0
    1.3040    3.9349   10.4068 C   0  0  2  0  0  0  0  0  0  0  0  0
    1.5213    3.2595   11.6320 O   0  0  0  0  0  0  0  0  0  0  0  0
   -0.1417    3.7115    9.9173 C   0  0  1  0  0  0  0  0  0  0  0  0
   -0.3520    4.2880    8.6263 O   0  0  0  0  0  0  0  0  0  0  0  0
   -0.5808    2.2406    9.9671 C   0  0  0  0  0  0  0  0  0  0  0  0
    0.5319    1.3372    9.6323 N   0  0  0  0  0  0  0  0  0  0  0  0
  1  3  1  0  0  0  0
  1  2  1  6  0  0  0
  3  4  1  6  0  0  0
  5  6  1  1  0  0  0
  5  3  1  0  0  0  0
  7  9  1  0  0  0  0
  7  5  1  0  0  0  0
  7  8  1  6  0  0  0
  9 10  1  0  0  0  0
  9 11  1  1  0  0  0
 10  1  1  0  0  0  0
 11 12  1  0  0  0  0
 13 14  1  6  0  0  0
 13 21  1  0  0  0  0
 15 13  1  0  0  0  0
 16 15  1  0  0  0  0
 16 18  1  0  0  0  0
 16 17  1  6  0  0  0
 18  2  1  1  0  0  0
 18 19  1  0  0  0  0
 19 21  1  0  0  0  0
 19 20  1  1  0  0  0
 21 22  1  1  0  0  0
 23 20  1  6  0  0  0
 23 29  1  0  0  0  0
 23 24  1  0  0  0  0
 24 26  1  0  0  0  0
 24 25  1  1  0  0  0
 26 27  1  1  0  0  0
 28 26  1  0  0  0  0
 28 30  1  6  0  0  0
 29 28  1  0  0  0  0
 30 31  1  0  0  0  0
 32 27  1  1  0  0  0
 32 40  1  0  0  0  0
 32 33  1  0  0  0  0
 33 35  1  0  0  0  0
 33 34  1  6  0  0  0
 35 37  1  0  0  0  0
 35 36  1  1  0  0  0
 37 38  1  1  0  0  0
 39 37  1  0  0  0  0
 39 41  1  6  0  0  0
 40 39  1  0  0  0  0
 42 41  1  0  0  0  0
M  END
>  <CHROM.1>
-147.24776118,174.68273536,74.45430779,63.11603905,-53.67129644,73.17827950
179.19816594,33.54234541,165.01961095,156.28547602,156.36707629,73.70325761
69.00897595,166.74434557,-123.25127206,-165.59167652,-52.16727590,-53.51631676
69.48011227,76.55131928,-35.98589423,177.26951103,0.15217665,2.75419468,3.82997985
-1.75102489,1.23054575,1.68342600

>  <Name>
lig.pdb

>  <RI>
0

>  <Rbt.Current_Directory>
/home/itssahil/PROJECTS/Mol_Feturizer/New_Systems/rnas/2mxs

>  <Rbt.Executable>
rbdock ($Id: //depot/dev/client3/rdock/2013.1/src/exe/rbdock.cxx#4 $)

>  <Rbt.Library>
libRbt.so (2013.1, Build901 2013/11/27)

>  <Rbt.Parameter_File>
/export/apps/rDock/src/rDock_2013.1_src/data/scripts/dock_solv.prm

>  <Rbt.Receptor>
prm/pocket_docking_3.prm

>  <SCORE>
-42.0537

>  <SCORE.INTER>
-41.3724

>  <SCORE.INTER.CONST>
1

>  <SCORE.INTER.POLAR>
-5.74966

>  <SCORE.INTER.ROT>
9

>  <SCORE.INTER.SOLV>
15.976

>  <SCORE.INTER.VDW>
-23.3414

>  <SCORE.INTER.norm>
-0.985057

>  <SCORE.INTRA>
-0.730486

>  <SCORE.INTRA.DIHEDRAL>
-3.0278

>  <SCORE.INTRA.DIHEDRAL.0>
30.1357

>  <SCORE.INTRA.POLAR>
-0.458349

>  <SCORE.INTRA.POLAR.0>
-0.631696

>  <SCORE.INTRA.REPUL>
0

>  <SCORE.INTRA.REPUL.0>
0

>  <SCORE.INTRA.SOLV>
-0.485702

>  <SCORE.INTRA.SOLV.lig_0>
-55.904

>  <SCORE.INTRA.VDW>
2.58465

>  <SCORE.INTRA.VDW.0>
-8.21197

>  <SCORE.INTRA.norm>
-0.0173925

>  <SCORE.RESTR>
0.0491601

>  <SCORE.RESTR.CAVITY>
0.0491601

>  <SCORE.RESTR.norm>
0.00117048

>  <SCORE.SYSTEM>
0

>  <SCORE.SYSTEM.CONST>
0

>  <SCORE.SYSTEM.DIHEDRAL>
0

>  <SCORE.SYSTEM.SOLV>
0

>  <SCORE.SYSTEM.norm>
0

>  <SCORE.heavy>
42

>  <SCORE.norm>
-1.00128

>  <RMSD>
2.166

$$$$
lig.pdb
 OpenBabel11021811453D
libRbt.so/2013.1/901 2013/11/27
 42 45  0  0  0  0  0  0  0  0999 V2000
    0.8459    4.0882    0.1018 C   0  0  2  0  0  0  0  0  0  0  0  0
   -0.1037    3.2724   -0.5868 O   0  0  0  0  0  0  0  0  0  0  0  0
    0.4211    5.5642    0.0743 C   0  0  2  0  0  0  0  0  0  0  0  0
   -0.9436    5.7320    0.6071 N   0  0  0  0  0  0  0  0  0  0  0  0
    0.5344    6.1426   -1.3421 C   0  0  1  0  0  0  0  0  0  0  0  0
    0.2842    7.5345   -1.3023 O   0  0  0  0  0  0  0  0  0  0  0  0
    1.9411    5.8943   -1.9073 C   0  0  2  0  0  0  0  0  0  0  0  0
    1.9772    6.2912   -3.2648 O   0  0  0  0  0  0  0  0  0  0  0  0
    2.3455    4.4111   -1.7861 C   0  0  2  0  0  0  0  0  0  0  0  0
    2.1473    3.9291   -0.4573 O   0  0  0  0  0  0  0  0  0  0  0  0
    3.8329    4.2875   -2.1679 C   0  0  0  0  0  0  0  0  0  0  0  0
    4.6669    3.9619   -1.0239 O   0  0  0  0  0  0  0  0  0  0  0  0
   -1.2983   -0.8000    0.1342 C   0  0  2  0  0  0  0  0  0  0  0  0
   -1.0147   -2.2091    0.4722 N   0  0  0  0  0  0  0  0  0  0  0  0
   -0.5580   -0.4004   -1.1447 C   0  0  0  0  0  0  0  0  0  0  0  0
   -0.7317    1.0881   -1.4227 C   0  0  2  0  0  0  0  0  0  0  0  0
   -0.1017    1.4419   -2.7009 N   0  0  0  0  0  0  0  0  0  0  0  0
   -0.1277    1.8801   -0.2398 C   0  0  2  0  0  0  0  0  0  0  0  0
   -0.9518    1.6130    0.9788 C   0  0  2  0  0  0  0  0  0  0  0  0
   -0.4078    2.3788    2.0381 O   0  0  0  0  0  0  0  0  0  0  0  0
   -0.9201    0.1310    1.3014 C   0  0  1  0  0  0  0  0  0  0  0  0
   -1.7531   -0.1919    2.3991 O   0  0  0  0  0  0  0  0  0  0  0  0
   -1.0795    2.3460    3.2929 C   0  0  1  0  0  0  0  0  0  0  0  0
   -0.0308    2.5416    4.3899 C   0  0  2  0  0  0  0  0  0  0  0  0
   -0.3803    1.7596    5.5164 O   0  0  0  0  0  0  0  0  0  0  0  0
   -0.1138    4.0497    4.6615 C   0  0  2  0  0  0  0  0  0  0  0  0
    0.3994    4.4100    5.9443 O   0  0  0  0  0  0  0  0  0  0  0  0
   -1.6216    4.2688    4.4861 C   0  0  2  0  0  0  0  0  0  0  0  0
   -1.9766    3.4456    3.3840 O   0  0  0  0  0  0  0  0  0  0  0  0
   -2.0188    5.7164    4.1747 C   0  0  0  0  0  0  0  0  0  0  0  0
   -1.1834    6.2843    3.1884 O   0  0  0  0  0  0  0  0  0  0  0  0
    0.7603    5.7835    6.0759 C   0  0  2  0  0  0  0  0  0  0  0  0
    1.8235    5.9924    7.1649 C   0  0  2  0  0  0  0  0  0  0  0  0
    3.0053    5.1504    6.9150 N   0  0  0  0  0  0  0  0  0  0  0  0
    1.2407    5.7425    8.5639 C   0  0  1  0  0  0  0  0  0  0  0  0
    2.2361    6.0325    9.5261 O   0  0  0  0  0  0  0  0  0  0  0  0
    0.0287    6.6694    8.7585 C   0  0  2  0  0  0  0  0  0  0  0  0
   -0.5742    6.4481   10.0203 O   0  0  0  0  0  0  0  0  0  0  0  0
   -1.0022    6.4762    7.6273 C   0  0  1  0  0  0  0  0  0  0  0  0
   -0.3915    6.5817    6.3392 O   0  0  0  0  0  0  0  0  0  0  0  0
   -1.8258    5.1875    7.7679 C   0  0  0  0  0  0  0  0  0  0  0  0
   -0.9682    4.0355    8.0899 N   0  0  0  0  0  0  0  0  0  0  0  0
  1  3  1  0  0  0  0
  1  2  1  6  0  0  0
  3  4  1  6  0  0  0
  5  6  1  1  0  0  0
  5  3  1  0  0  0  0
  7  9  1  0  0  0  0
  7  5  1  0  0  0  0
  7  8  1  6  0  0  0
  9 10  1  0  0  0  0
  9 11  1  1  0  0  0
 10  1  1  0  0  0  0
 11 12  1  0  0  0  0
 13 14  1  1  0  0  0
 13 21  1  0  0  0  0
 15 13  1  0  0  0  0
 16 15  1  0  0  0  0
 16 18  1  0  0  0  0
 16 17  1  6  0  0  0
 18  2  1  6  0  0  0
 18 19  1  0  0  0  0
 19 21  1  0  0  0  0
 19 20  1  1  0  0  0
 21 22  1  1  0  0  0
 23 20  1  6  0  0  0
 23 29  1  0  0  0  0
 23 24  1  0  0  0  0
 24 26  1  0  0  0  0
 24 25  1  1  0  0  0
 26 27  1  1  0  0  0
 28 26  1  0  0  0  0
 28 30  1  6  0  0  0
 29 28  1  0  0  0  0
 30 31  1  0  0  0  0
 32 27  1  1  0  0  0
 32 40  1  0  0  0  0
 32 33  1  0  0  0  0
 33 35  1  0  0  0  0
 33 34  1  6  0  0  0
 35 37  1  0  0  0  0
 35 36  1  1  0  0  0
 37 38  1  1  0  0  0
 39 37  1  0  0  0  0
 39 41  1  1  0  0  0
 40 39  1  0  0  0  0
 42 41  1  0  0  0  0
M  END
>  <CHROM.1>
-156.64903854,-157.60298338,90.70485888,-66.09724469,172.19726437,-74.94306171
110.68116824,61.06117651,177.28056198,176.46014732,149.57245853,63.02964231
-66.71497796,160.01998049,-155.03576272,45.21650171,178.98751558,43.67220818
60.71727554,174.32038174,-45.78879169,-175.81155692,0.16559004,3.93714258
2.74779478,-1.43272984,1.11126315,1.15638219

>  <Name>
lig.pdb

>  <RI>
0

>  <Rbt.Current_Directory>
/home/itssahil/PROJECTS/Mol_Feturizer/New_Systems/rnas/2mxs

>  <Rbt.Executable>
rbdock ($Id: //depot/dev/client3/rdock/2013.1/src/exe/rbdock.cxx#4 $)

>  <Rbt.Library>
libRbt.so (2013.1, Build901 2013/11/27)

>  <Rbt.Parameter_File>
/export/apps/rDock/src/rDock_2013.1_src/data/scripts/dock_solv.prm

>  <Rbt.Receptor>
prm/pocket_docking_3.prm

>  <SCORE>
-45.9223

>  <SCORE.INTER>
-42.9306

>  <SCORE.INTER.CONST>
1

>  <SCORE.INTER.POLAR>
-5.87776

>  <SCORE.INTER.ROT>
9

>  <SCORE.INTER.SOLV>
17.0489

>  <SCORE.INTER.VDW>
-24.3108

>  <SCORE.INTER.norm>
-1.02216

>  <SCORE.INTRA>
-2.99174

>  <SCORE.INTRA.DIHEDRAL>
-5.82592

>  <SCORE.INTRA.DIHEDRAL.0>
30.1357

>  <SCORE.INTRA.POLAR>
-1.41761

>  <SCORE.INTRA.POLAR.0>
-0.631696

>  <SCORE.INTRA.REPUL>
0

>  <SCORE.INTRA.REPUL.0>
0

>  <SCORE.INTRA.SOLV>
2.1421

>  <SCORE.INTRA.SOLV.lig_0>
-55.904

>  <SCORE.INTRA.VDW>
3.67005

>  <SCORE.INTRA.VDW.0>
-8.21197

>  <SCORE.INTRA.norm>
-0.0712318

>  <SCORE.RESTR>
0

>  <SCORE.RESTR.CAVITY>
0

>  <SCORE.RESTR.norm>
0

>  <SCORE.SYSTEM>
0

>  <SCORE.SYSTEM.CONST>
0

>  <SCORE.SYSTEM.DIHEDRAL>
0

>  <SCORE.SYSTEM.SOLV>
0

>  <SCORE.SYSTEM.norm>
0

>  <SCORE.heavy>
42

>  <SCORE.norm>
-1.09339

>  <RMSD>
2.178

$$$$
lig.pdb
 OpenBabel11021811453D
libRbt.so/2013.1/901 2013/11/27
 42 45  0  0  0  0  0  0  0  0999 V2000
    0.6472    4.0289    0.3857 C   0  0  2  0  0  0  0  0  0  0  0  0
   -0.1978    3.1764   -0.3894 O   0  0  0  0  0  0  0  0  0  0  0  0
    0.1973    5.4934    0.2739 C   0  0  2  0  0  0  0  0  0  0  0  0
   -1.2236    5.6398    0.6400 N   0  0  0  0  0  0  0  0  0  0  0  0
    0.4633    6.0446   -1.1329 C   0  0  1  0  0  0  0  0  0  0  0  0
    0.1806    7.4306   -1.1555 O   0  0  0  0  0  0  0  0  0  0  0  0
    1.9314    5.8181   -1.5243 C   0  0  2  0  0  0  0  0  0  0  0  0
    2.1178    6.1871   -2.8773 O   0  0  0  0  0  0  0  0  0  0  0  0
    2.3503    4.3478   -1.3217 C   0  0  2  0  0  0  0  0  0  0  0  0
    2.0082    3.8893   -0.0141 O   0  0  0  0  0  0  0  0  0  0  0  0
    3.8744    4.2518   -1.5245 C   0  0  0  0  0  0  0  0  0  0  0  0
    4.3195    2.8789   -1.6903 O   0  0  0  0  0  0  0  0  0  0  0  0
   -1.0150   -1.0262    0.0595 C   0  0  2  0  0  0  0  0  0  0  0  0
   -0.6020   -2.4243    0.2943 N   0  0  0  0  0  0  0  0  0  0  0  0
   -0.3371   -0.4752   -1.1975 C   0  0  0  0  0  0  0  0  0  0  0  0
   -0.6465    1.0073   -1.3683 C   0  0  2  0  0  0  0  0  0  0  0  0
   -0.0744    1.5029   -2.6264 N   0  0  0  0  0  0  0  0  0  0  0  0
   -0.0924    1.7670   -0.1405 C   0  0  2  0  0  0  0  0  0  0  0  0
   -0.8666    1.3444    1.0667 C   0  0  2  0  0  0  0  0  0  0  0  0
   -0.3723    2.0811    2.1701 O   0  0  0  0  0  0  0  0  0  0  0  0
   -0.6983   -0.1475    1.2843 C   0  0  1  0  0  0  0  0  0  0  0  0
   -1.4788   -0.6180    2.3671 O   0  0  0  0  0  0  0  0  0  0  0  0
   -1.0548    1.9521    3.4128 C   0  0  1  0  0  0  0  0  0  0  0  0
   -0.0397    2.1967    4.5313 C   0  0  2  0  0  0  0  0  0  0  0  0
   -0.3378    1.3520    5.6269 O   0  0  0  0  0  0  0  0  0  0  0  0
   -0.2500    3.6832    4.8495 C   0  0  2  0  0  0  0  0  0  0  0  0
    0.2155    4.0418    6.1508 O   0  0  0  0  0  0  0  0  0  0  0  0
   -1.7684    3.7837    4.6580 C   0  0  2  0  0  0  0  0  0  0  0  0
   -2.0405    2.9710    3.5250 O   0  0  0  0  0  0  0  0  0  0  0  0
   -2.2795    5.2034    4.3868 C   0  0  0  0  0  0  0  0  0  0  0  0
   -3.6902    5.2590    4.3966 O   0  0  0  0  0  0  0  0  0  0  0  0
   -0.4069    5.1982    6.7070 C   0  0  2  0  0  0  0  0  0  0  0  0
    0.6063    6.3244    6.9625 C   0  0  2  0  0  0  0  0  0  0  0  0
    1.3472    6.6545    5.7337 N   0  0  0  0  0  0  0  0  0  0  0  0
    1.5578    5.9636    8.1131 C   0  0  1  0  0  0  0  0  0  0  0  0
    2.4077    7.0671    8.3592 O   0  0  0  0  0  0  0  0  0  0  0  0
    0.7151    5.6541    9.3622 C   0  0  2  0  0  0  0  0  0  0  0  0
    1.5443    5.2725   10.4444 O   0  0  0  0  0  0  0  0  0  0  0  0
   -0.3266    4.5552    9.0678 C   0  0  1  0  0  0  0  0  0  0  0  0
   -1.1012    4.8659    7.9072 O   0  0  0  0  0  0  0  0  0  0  0  0
    0.2796    3.1461    8.9925 C   0  0  0  0  0  0  0  0  0  0  0  0
   -0.7255    2.1510    8.5851 N   0  0  0  0  0  0  0  0  0  0  0  0
  1  3  1  0  0  0  0
  1  2  1  6  0  0  0
  3  4  1  6  0  0  0
  5  6  1  1  0  0  0
  5  3  1  0  0  0  0
  7  9  1  0  0  0  0
  7  5  1  0  0  0  0
  7  8  1  6  0  0  0
  9 10  1  0  0  0  0
  9 11  1  1  0  0  0
 10  1  1  0  0  0  0
 11 12  1  0  0  0  0
 13 14  1  1  0  0  0
 13 21  1  0  0  0  0
 15 13  1  0  0  0  0
 16 15  1  0  0  0  0
 16 18  1  0  0  0  0
 16 17  1  6  0  0  0
 18  2  1  6  0  0  0
 18 19  1  0  0  0  0
 19 21  1  0  0  0  0
 19 20  1  1  0  0  0
 21 22  1  1  0  0  0
 23 20  1  6  0  0  0
 23 29  1  0  0  0  0
 23 24  1  0  0  0  0
 24 26  1  0  0  0  0
 24 25  1  1  0  0  0
 26 27  1  1  0  0  0
 28 26  1  0  0  0  0
 28 30  1  6  0  0  0
 29 28  1  0  0  0  0
 30 31  1  0  0  0  0
 32 27  1  1  0  0  0
 32 40  1  0  0  0  0
 32 33  1  0  0  0  0
 33 35  1  0  0  0  0
 33 34  1  6  0  0  0
 35 37  1  0  0  0  0
 35 36  1  1  0  0  0
 37 38  1  1  0  0  0
 39 37  1  0  0  0  0
 39 41  1  6  0  0  0
 40 39  1  0  0  0  0
 42 41  1  0  0  0  0
M  END
>  <CHROM.1>
-159.35632580,-166.09747297,75.95144053,-67.16180425,174.94992943,-54.50789196
-165.43620326,-168.01040765,63.77671590,173.47407676,151.73894411,156.69919390
72.43598841,-155.83584781,-117.97590571,-172.16703935,175.45296714,60.76582203
60.29276981,-176.47850989,-174.61119387,-137.67626795,0.12505271,3.56624685
2.94365313,-1.41911210,1.17034742,1.20289879

>  <Name>
lig.pdb

>  <RI>
0

>  <Rbt.Current_Directory>
/home/itssahil/PROJECTS/Mol_Feturizer/New_Systems/rnas/2mxs

>  <Rbt.Executable>
rbdock ($Id: //depot/dev/client3/rdock/2013.1/src/exe/rbdock.cxx#4 $)

>  <Rbt.Library>
libRbt.so (2013.1, Build901 2013/11/27)

>  <Rbt.Parameter_File>
/export/apps/rDock/src/rDock_2013.1_src/data/scripts/dock_solv.prm

>  <Rbt.Receptor>
prm/pocket_docking_3.prm

>  <SCORE>
-45.086

>  <SCORE.INTER>
-44.5953

>  <SCORE.INTER.CONST>
1

>  <SCORE.INTER.POLAR>
-5.91773

>  <SCORE.INTER.ROT>
9

>  <SCORE.INTER.SOLV>
17.9111

>  <SCORE.INTER.VDW>
-25.5748

>  <SCORE.INTER.norm>
-1.06179

>  <SCORE.INTRA>
-0.490738

>  <SCORE.INTRA.DIHEDRAL>
-4.99236

>  <SCORE.INTRA.DIHEDRAL.0>
30.1357

>  <SCORE.INTRA.POLAR>
-0.413983

>  <SCORE.INTRA.POLAR.0>
-0.631696

>  <SCORE.INTRA.REPUL>
0

>  <SCORE.INTRA.REPUL.0>
0

>  <SCORE.INTRA.SOLV>
-1.40129

>  <SCORE.INTRA.SOLV.lig_0>
-55.904

>  <SCORE.INTRA.VDW>
4.11363

>  <SCORE.INTRA.VDW.0>
-8.21197

>  <SCORE.INTRA.norm>
-0.0116842

>  <SCORE.RESTR>
0

>  <SCORE.RESTR.CAVITY>
0

>  <SCORE.RESTR.norm>
0

>  <SCORE.SYSTEM>
0

>  <SCORE.SYSTEM.CONST>
0

>  <SCORE.SYSTEM.DIHEDRAL>
0

>  <SCORE.SYSTEM.SOLV>
0

>  <SCORE.SYSTEM.norm>
0

>  <SCORE.heavy>
42

>  <SCORE.norm>
-1.07348

>  <RMSD>
2.201

$$$$
lig.pdb
 OpenBabel11021811453D
libRbt.so/2013.1/901 2013/11/27
 42 45  0  0  0  0  0  0  0  0999 V2000
    0.3229    3.6930    0.2840 C   0  0  2  0  0  0  0  0  0  0  0  0
   -0.4649    2.8689   -0.5772 O   0  0  0  0  0  0  0  0  0  0  0  0
    0.0398    5.1808    0.0269 C   0  0  2  0  0  0  0  0  0  0  0  0
   -1.4006    5.4734    0.1450 N   0  0  0  0  0  0  0  0  0  0  0  0
    0.5797    5.6148   -1.3419 C   0  0  1  0  0  0  0  0  0  0  0  0
    0.4391    7.0158   -1.4795 O   0  0  0  0  0  0  0  0  0  0  0  0
    2.0629    5.2369   -1.4731 C   0  0  2  0  0  0  0  0  0  0  0  0
    2.4984    5.5002   -2.7931 O   0  0  0  0  0  0  0  0  0  0  0  0
    2.3004    3.7519   -1.1314 C   0  0  2  0  0  0  0  0  0  0  0  0
    1.7106    3.4102    0.1225 O   0  0  0  0  0  0  0  0  0  0  0  0
    3.8209    3.5110   -1.0741 C   0  0  0  0  0  0  0  0  0  0  0  0
    4.4356    3.5750   -2.3888 O   0  0  0  0  0  0  0  0  0  0  0  0
   -1.7091   -1.2233   -0.0907 C   0  0  2  0  0  0  0  0  0  0  0  0
   -1.4643   -2.6338    0.2714 N   0  0  0  0  0  0  0  0  0  0  0  0
   -0.7874   -0.8008   -1.2374 C   0  0  0  0  0  0  0  0  0  0  0  0
   -0.9335    0.6892   -1.5226 C   0  0  2  0  0  0  0  0  0  0  0  0
   -0.1204    1.0648   -2.6860 N   0  0  0  0  0  0  0  0  0  0  0  0
   -0.5256    1.4723   -0.2530 C   0  0  2  0  0  0  0  0  0  0  0  0
   -1.5225    1.1822    0.8229 C   0  0  2  0  0  0  0  0  0  0  0  0
   -1.1548    1.9400    1.9609 O   0  0  0  0  0  0  0  0  0  0  0  0
   -1.5235   -0.3033    1.1306 C   0  0  1  0  0  0  0  0  0  0  0  0
   -2.5102   -0.6477    2.0850 O   0  0  0  0  0  0  0  0  0  0  0  0
   -1.0565    1.2591    3.2074 C   0  0  1  0  0  0  0  0  0  0  0  0
    0.2360    1.7144    3.8882 C   0  0  2  0  0  0  0  0  0  0  0  0
    0.8033    0.6253    4.5916 O   0  0  0  0  0  0  0  0  0  0  0  0
   -0.2557    2.8332    4.8166 C   0  0  2  0  0  0  0  0  0  0  0  0
    0.6448    3.0942    5.8935 O   0  0  0  0  0  0  0  0  0  0  0  0
   -1.6118    2.2531    5.2368 C   0  0  2  0  0  0  0  0  0  0  0  0
   -2.1271    1.6564    4.0549 O   0  0  0  0  0  0  0  0  0  0  0  0
   -2.6149    3.2942    5.7470 C   0  0  0  0  0  0  0  0  0  0  0  0
   -2.8162    4.3272    4.8060 O   0  0  0  0  0  0  0  0  0  0  0  0
    0.1165    3.9313    6.9203 C   0  0  2  0  0  0  0  0  0  0  0  0
    1.0530    5.1076    7.2358 C   0  0  2  0  0  0  0  0  0  0  0  0
    1.3562    5.8797    6.0193 N   0  0  0  0  0  0  0  0  0  0  0  0
    2.3355    4.6245    7.9295 C   0  0  1  0  0  0  0  0  0  0  0  0
    3.1162    5.7532    8.2719 O   0  0  0  0  0  0  0  0  0  0  0  0
    1.9400    3.8486    9.1974 C   0  0  2  0  0  0  0  0  0  0  0  0
    3.0877    3.3427    9.8540 O   0  0  0  0  0  0  0  0  0  0  0  0
    0.9622    2.7036    8.8622 C   0  0  1  0  0  0  0  0  0  0  0  0
   -0.1509    3.1729    8.0978 O   0  0  0  0  0  0  0  0  0  0  0  0
    1.6429    1.4954    8.2020 C   0  0  0  0  0  0  0  0  0  0  0  0
    0.6586    0.6125    7.5555 N   0  0  0  0  0  0  0  0  0  0  0  0
  1  3  1  0  0  0  0
  1  2  1  6  0  0  0
  3  4  1  6  0  0  0
  5  6  1  1  0  0  0
  5  3  1  0  0  0  0
  7  9  1  0  0  0  0
  7  5  1  0  0  0  0
  7  8  1  6  0  0  0
  9 10  1  0  0  0  0
  9 11  1  1  0  0  0
 10  1  1  0  0  0  0
 11 12  1  0  0  0  0
 13 14  1  1  0  0  0
 13 21  1  0  0  0  0
 15 13  1  0  0  0  0
 16 15  1  0  0  0  0
 16 18  1  0  0  0  0
 16 17  1  6  0  0  0
 18  2  1  6  0  0  0
 18 19  1  0  0  0  0
 19 21  1  0  0  0  0
 19 20  1  1  0  0  0
 21 22  1  1  0  0  0
 23 20  1  6  0  0  0
 23 29  1  0  0  0  0
 23 24  1  0  0  0  0
 24 26  1  0  0  0  0
 24 25  1  1  0  0  0
 26 27  1  1  0  0  0
 28 26  1  0  0  0  0
 28 30  1  6  0  0  0
 29 28  1  0  0  0  0
 30 31  1  0  0  0  0
 32 27  1  6  0  0  0
 32 40  1  0  0  0  0
 32 33  1  0  0  0  0
 33 35  1  0  0  0  0
 33 34  1  6  0  0  0
 35 37  1  0  0  0  0
 35 36  1  1  0  0  0
 37 38  1  6  0  0  0
 39 37  1  0  0  0  0
 39 41  1  6  0  0  0
 40 39  1  0  0  0  0
 42 41  1  0  0  0  0
M  END
>  <CHROM.1>
-158.72767234,-166.72464663,64.09051175,64.04065437,70.07171745,59.19441991
-70.42367947,-48.90902205,-54.68450122,-129.47426228,134.82403893,70.62889553
176.65229832,-168.28741853,-128.41855438,55.02599745,-55.96723351,58.92051435
-63.64718179,69.66654440,-163.60141177,74.90248911,0.29123872,2.80690018
2.83065049,-1.67894478,0.99683200,1.58481598

>  <Name>
lig.pdb

>  <RI>
0

>  <Rbt.Current_Directory>
/home/itssahil/PROJECTS/Mol_Feturizer/New_Systems/rnas/2mxs

>  <Rbt.Executable>
rbdock ($Id: //depot/dev/client3/rdock/2013.1/src/exe/rbdock.cxx#4 $)

>  <Rbt.Library>
libRbt.so (2013.1, Build901 2013/11/27)

>  <Rbt.Parameter_File>
/export/apps/rDock/src/rDock_2013.1_src/data/scripts/dock_solv.prm

>  <Rbt.Receptor>
prm/pocket_docking_4.prm

>  <SCORE>
-43.1403

>  <SCORE.INTER>
-46.6599

>  <SCORE.INTER.CONST>
1

>  <SCORE.INTER.POLAR>
-6.41848

>  <SCORE.INTER.ROT>
9

>  <SCORE.INTER.SOLV>
18.0789

>  <SCORE.INTER.VDW>
-25.338

>  <SCORE.INTER.norm>
-1.11095

>  <SCORE.INTRA>
3.51959

>  <SCORE.INTRA.DIHEDRAL>
-2.20466

>  <SCORE.INTRA.DIHEDRAL.0>
30.1357

>  <SCORE.INTRA.POLAR>
-0.177954

>  <SCORE.INTRA.POLAR.0>
-0.631696

>  <SCORE.INTRA.REPUL>
0

>  <SCORE.INTRA.REPUL.0>
0

>  <SCORE.INTRA.SOLV>
0.473785

>  <SCORE.INTRA.SOLV.lig_0>
-55.904

>  <SCORE.INTRA.VDW>
4.99007

>  <SCORE.INTRA.VDW.0>
-8.21197

>  <SCORE.INTRA.norm>
0.0837997

>  <SCORE.RESTR>
0

>  <SCORE.RESTR.CAVITY>
0

>  <SCORE.RESTR.norm>
0

>  <SCORE.SYSTEM>
0

>  <SCORE.SYSTEM.CONST>
0

>  <SCORE.SYSTEM.DIHEDRAL>
0

>  <SCORE.SYSTEM.SOLV>
0

>  <SCORE.SYSTEM.norm>
0

>  <SCORE.heavy>
42

>  <SCORE.norm>
-1.02715

>  <RMSD>
2.204

$$$$
lig.pdb
 OpenBabel11021811453D
libRbt.so/2013.1/901 2013/11/27
 42 45  0  0  0  0  0  0  0  0999 V2000
    0.5628    3.7652    0.1481 C   0  0  2  0  0  0  0  0  0  0  0  0
   -0.2148    2.9439   -0.7251 O   0  0  0  0  0  0  0  0  0  0  0  0
    0.2186    5.2496   -0.0463 C   0  0  2  0  0  0  0  0  0  0  0  0
   -1.2284    5.4828    0.1159 N   0  0  0  0  0  0  0  0  0  0  0  0
    0.7084    5.7537   -1.4099 C   0  0  1  0  0  0  0  0  0  0  0  0
    0.5127    7.1525   -1.4914 O   0  0  0  0  0  0  0  0  0  0  0  0
    2.2009    5.4373   -1.5894 C   0  0  2  0  0  0  0  0  0  0  0  0
    2.5940    5.7653   -2.9082 O   0  0  0  0  0  0  0  0  0  0  0  0
    2.5016    3.9509   -1.3093 C   0  0  2  0  0  0  0  0  0  0  0  0
    1.9557    3.5412   -0.0558 O   0  0  0  0  0  0  0  0  0  0  0  0
    4.0309    3.7659   -1.2962 C   0  0  0  0  0  0  0  0  0  0  0  0
    4.6210    3.9896   -2.6046 O   0  0  0  0  0  0  0  0  0  0  0  0
   -1.7615   -1.0138   -0.0357 C   0  0  2  0  0  0  0  0  0  0  0  0
   -1.6167   -2.4249    0.3743 N   0  0  0  0  0  0  0  0  0  0  0  0
   -0.8503   -0.7099   -1.2275 C   0  0  0  0  0  0  0  0  0  0  0  0
   -0.8878    0.7754   -1.5670 C   0  0  2  0  0  0  0  0  0  0  0  0
   -0.0890    1.0407   -2.7701 N   0  0  0  0  0  0  0  0  0  0  0  0
   -0.3745    1.5698   -0.3435 C   0  0  2  0  0  0  0  0  0  0  0  0
   -1.3527    1.4012    0.7746 C   0  0  2  0  0  0  0  0  0  0  0  0
   -0.8861    2.1687    1.8690 O   0  0  0  0  0  0  0  0  0  0  0  0
   -1.4606   -0.0668    1.1412 C   0  0  1  0  0  0  0  0  0  0  0  0
   -2.4372   -0.2949    2.1399 O   0  0  0  0  0  0  0  0  0  0  0  0
   -1.7175    2.2538    3.0216 C   0  0  1  0  0  0  0  0  0  0  0  0
   -0.8432    2.6951    4.1972 C   0  0  2  0  0  0  0  0  0  0  0  0
   -1.2864    2.0520    5.3774 O   0  0  0  0  0  0  0  0  0  0  0  0
   -1.0674    4.2130    4.2247 C   0  0  2  0  0  0  0  0  0  0  0  0
   -0.7590    4.7951    5.4915 O   0  0  0  0  0  0  0  0  0  0  0  0
   -2.5492    4.2699    3.8331 C   0  0  2  0  0  0  0  0  0  0  0  0
   -2.6934    3.2709    2.8332 O   0  0  0  0  0  0  0  0  0  0  0  0
   -3.0009    5.6178    3.2590 C   0  0  0  0  0  0  0  0  0  0  0  0
   -4.4069    5.6951    3.1580 O   0  0  0  0  0  0  0  0  0  0  0  0
   -1.8353    4.7868    6.4273 C   0  0  2  0  0  0  0  0  0  0  0  0
   -1.7969    6.0130    7.3520 C   0  0  2  0  0  0  0  0  0  0  0  0
   -1.7768    7.2609    6.5707 N   0  0  0  0  0  0  0  0  0  0  0  0
   -0.6088    5.9382    8.3228 C   0  0  1  0  0  0  0  0  0  0  0  0
   -0.6740    7.0441    9.2022 O   0  0  0  0  0  0  0  0  0  0  0  0
   -0.7101    4.6237    9.1151 C   0  0  2  0  0  0  0  0  0  0  0  0
    0.3883    4.4841    9.9972 O   0  0  0  0  0  0  0  0  0  0  0  0
   -0.7961    3.4112    8.1653 C   0  0  1  0  0  0  0  0  0  0  0  0
   -1.8273    3.5823    7.1903 O   0  0  0  0  0  0  0  0  0  0  0  0
    0.5490    3.0469    7.5198 C   0  0  0  0  0  0  0  0  0  0  0  0
    1.4309    2.3539    8.4729 N   0  0  0  0  0  0  0  0  0  0  0  0
  1  3  1  0  0  0  0
  1  2  1  6  0  0  0
  3  4  1  6  0  0  0
  5  6  1  1  0  0  0
  5  3  1  0  0  0  0
  7  9  1  0  0  0  0
  7  5  1  0  0  0  0
  7  8  1  6  0  0  0
  9 10  1  0  0  0  0
  9 11  1  1  0  0  0
 10  1  1  0  0  0  0
 11 12  1  0  0  0  0
 13 14  1  1  0  0  0
 13 21  1  0  0  0  0
 15 13  1  0  0  0  0
 16 15  1  0  0  0  0
 16 18  1  0  0  0  0
 16 17  1  6  0  0  0
 18  2  1  6  0  0  0
 18 19  1  0  0  0  0
 19 21  1  0  0  0  0
 19 20  1  1  0  0  0
 21 22  1  1  0  0  0
 23 20  1  6  0  0  0
 23 29  1  0  0  0  0
 23 24  1  0  0  0  0
 24 26  1  0  0  0  0
 24 25  1  1  0  0  0
 26 27  1  1  0  0  0
 28 26  1  0  0  0  0
 28 30  1  6  0  0  0
 29 28  1  0  0  0  0
 30 31  1  0  0  0  0
 32 27  1  6  0  0  0
 32 40  1  0  0  0  0
 32 33  1  0  0  0  0
 33 35  1  0  0  0  0
 33 34  1  6  0  0  0
 35 37  1  0  0  0  0
 35 36  1  1  0  0  0
 37 38  1  1  0  0  0
 39 37  1  0  0  0  0
 39 41  1  6  0  0  0
 40 39  1  0  0  0  0
 42 41  1  0  0  0  0
M  END
>  <CHROM.1>
-164.53086683,-157.98202590,66.68592928,-160.34882836,59.10271788,-62.47670114
-66.57092231,-171.10089893,54.47150109,174.86257998,160.90553375,67.73901435
-61.72563367,-86.90424523,-147.27483039,-168.73382106,-179.95295560,60.02736120
-173.99500701,-44.37257244,76.03322706,-51.31261740,-0.44839830,3.51322026
2.64595357,-1.14138949,1.10533316,0.97481877

>  <Name>
lig.pdb

>  <RI>
0

>  <Rbt.Current_Directory>
/home/itssahil/PROJECTS/Mol_Feturizer/New_Systems/rnas/2mxs

>  <Rbt.Executable>
rbdock ($Id: //depot/dev/client3/rdock/2013.1/src/exe/rbdock.cxx#4 $)

>  <Rbt.Library>
libRbt.so (2013.1, Build901 2013/11/27)

>  <Rbt.Parameter_File>
/export/apps/rDock/src/rDock_2013.1_src/data/scripts/dock_solv.prm

>  <Rbt.Receptor>
prm/pocket_docking_3.prm

>  <SCORE>
-40.7156

>  <SCORE.INTER>
-41.7701

>  <SCORE.INTER.CONST>
1

>  <SCORE.INTER.POLAR>
-5.85539

>  <SCORE.INTER.ROT>
9

>  <SCORE.INTER.SOLV>
16.3312

>  <SCORE.INTER.VDW>
-23.3725

>  <SCORE.INTER.norm>
-0.994527

>  <SCORE.INTRA>
0.392777

>  <SCORE.INTRA.DIHEDRAL>
-11.9615

>  <SCORE.INTRA.DIHEDRAL.0>
30.1357

>  <SCORE.INTRA.POLAR>
0.461057

>  <SCORE.INTRA.POLAR.0>
-0.631696

>  <SCORE.INTRA.REPUL>
0

>  <SCORE.INTRA.REPUL.0>
0

>  <SCORE.INTRA.SOLV>
0.618548

>  <SCORE.INTRA.SOLV.lig_0>
-55.904

>  <SCORE.INTRA.VDW>
4.49669

>  <SCORE.INTRA.VDW.0>
-8.21197

>  <SCORE.INTRA.norm>
0.00935183

>  <SCORE.RESTR>
0.661798

>  <SCORE.RESTR.CAVITY>
0.661798

>  <SCORE.RESTR.norm>
0.0157571

>  <SCORE.SYSTEM>
0

>  <SCORE.SYSTEM.CONST>
0

>  <SCORE.SYSTEM.DIHEDRAL>
0

>  <SCORE.SYSTEM.SOLV>
0

>  <SCORE.SYSTEM.norm>
0

>  <SCORE.heavy>
42

>  <SCORE.norm>
-0.969418

>  <RMSD>
2.206

$$$$
lig.pdb
 OpenBabel11021811453D
libRbt.so/2013.1/901 2013/11/27
 42 45  0  0  0  0  0  0  0  0999 V2000
    0.7541    3.5299    0.6719 C   0  0  2  0  0  0  0  0  0  0  0  0
   -0.1694    2.8830   -0.2058 O   0  0  0  0  0  0  0  0  0  0  0  0
    0.3359    4.9853    0.9299 C   0  0  2  0  0  0  0  0  0  0  0  0
   -1.0488    5.0570    1.4316 N   0  0  0  0  0  0  0  0  0  0  0  0
    0.5092    5.8393   -0.3328 C   0  0  1  0  0  0  0  0  0  0  0  0
    0.2625    7.1966   -0.0192 O   0  0  0  0  0  0  0  0  0  0  0  0
    1.9370    5.6950   -0.8809 C   0  0  2  0  0  0  0  0  0  0  0  0
    2.0302    6.3600   -2.1261 O   0  0  0  0  0  0  0  0  0  0  0  0
    2.3310    4.2135   -1.0495 C   0  0  2  0  0  0  0  0  0  0  0  0
    2.0768    3.4729    0.1438 O   0  0  0  0  0  0  0  0  0  0  0  0
    3.8323    4.1530   -1.3896 C   0  0  0  0  0  0  0  0  0  0  0  0
    4.3128    2.7870   -1.5064 O   0  0  0  0  0  0  0  0  0  0  0  0
   -2.1571   -0.9305   -0.0142 C   0  0  2  0  0  0  0  0  0  0  0  0
   -2.4382   -2.2318    0.6246 N   0  0  0  0  0  0  0  0  0  0  0  0
   -0.6721   -0.8220   -0.3694 C   0  0  0  0  0  0  0  0  0  0  0  0
   -0.3471    0.5696   -0.8992 C   0  0  2  0  0  0  0  0  0  0  0  0
    1.0555    0.6337   -1.3286 N   0  0  0  0  0  0  0  0  0  0  0  0
   -0.6617    1.6007    0.2096 C   0  0  2  0  0  0  0  0  0  0  0  0
   -2.1384    1.6084    0.4437 C   0  0  2  0  0  0  0  0  0  0  0  0
   -2.4089    2.5868    1.4306 O   0  0  0  0  0  0  0  0  0  0  0  0
   -2.5903    0.2331    0.8973 C   0  0  1  0  0  0  0  0  0  0  0  0
   -3.9951    0.1598    1.0533 O   0  0  0  0  0  0  0  0  0  0  0  0
   -3.0377    2.1587    2.6340 C   0  0  1  0  0  0  0  0  0  0  0  0
   -1.9431    1.6708    3.5855 C   0  0  2  0  0  0  0  0  0  0  0  0
   -2.4279    0.5703    4.3316 O   0  0  0  0  0  0  0  0  0  0  0  0
   -1.6814    2.9102    4.4517 C   0  0  2  0  0  0  0  0  0  0  0  0
   -1.0673    2.5925    5.7010 O   0  0  0  0  0  0  0  0  0  0  0  0
   -3.1068    3.4663    4.5575 C   0  0  2  0  0  0  0  0  0  0  0  0
   -3.6650    3.2672    3.2663 O   0  0  0  0  0  0  0  0  0  0  0  0
   -3.1803    4.9572    4.9072 C   0  0  0  0  0  0  0  0  0  0  0  0
   -2.3460    5.7294    4.0701 O   0  0  0  0  0  0  0  0  0  0  0  0
   -1.0375    3.6666    6.6389 C   0  0  2  0  0  0  0  0  0  0  0  0
    0.2307    4.5205    6.4884 C   0  0  2  0  0  0  0  0  0  0  0  0
    0.3736    5.0118    5.1078 N   0  0  0  0  0  0  0  0  0  0  0  0
    1.4775    3.7461    6.9416 C   0  0  1  0  0  0  0  0  0  0  0  0
    2.5971    4.6069    6.8629 O   0  0  0  0  0  0  0  0  0  0  0  0
    1.2631    3.2861    8.3936 C   0  0  2  0  0  0  0  0  0  0  0  0
    2.3691    2.5279    8.8478 O   0  0  0  0  0  0  0  0  0  0  0  0
   -0.0403    2.4722    8.5289 C   0  0  1  0  0  0  0  0  0  0  0  0
   -1.1547    3.1725    7.9712 O   0  0  0  0  0  0  0  0  0  0  0  0
    0.0740    1.0436    7.9768 C   0  0  0  0  0  0  0  0  0  0  0  0
    1.0221    0.2388    8.7641 N   0  0  0  0  0  0  0  0  0  0  0  0
  1  3  1  0  0  0  0
  1  2  1  6  0  0  0
  3  4  1  6  0  0  0
  5  6  1  1  0  0  0
  5  3  1  0  0  0  0
  7  9  1  0  0  0  0
  7  5  1  0  0  0  0
  7  8  1  6  0  0  0
  9 10  1  0  0  0  0
  9 11  1  1  0  0  0
 10  1  1  0  0  0  0
 11 12  1  0  0  0  0
 13 14  1  1  0  0  0
 13 21  1  0  0  0  0
 15 13  1  0  0  0  0
 16 15  1  0  0  0  0
 16 18  1  0  0  0  0
 16 17  1  1  0  0  0
 18  2  1  6  0  0  0
 18 19  1  0  0  0  0
 19 21  1  0  0  0  0
 19 20  1  1  0  0  0
 21 22  1  6  0  0  0
 23 20  1  6  0  0  0
 23 29  1  0  0  0  0
 23 24  1  0  0  0  0
 24 26  1  0  0  0  0
 24 25  1  1  0  0  0
 26 27  1  1  0  0  0
 28 26  1  0  0  0  0
 28 30  1  6  0  0  0
 29 28  1  0  0  0  0
 30 31  1  0  0  0  0
 32 27  1  6  0  0  0
 32 40  1  0  0  0  0
 32 33  1  0  0  0  0
 33 35  1  0  0  0  0
 33 34  1  6  0  0  0
 35 37  1  0  0  0  0
 35 36  1  1  0  0  0
 37 38  1  6  0  0  0
 39 37  1  0  0  0  0
 39 41  1  6  0  0  0
 40 39  1  0  0  0  0
 42 41  1  0  0  0  0
M  END
>  <CHROM.1>
-123.52846298,-130.72622102,108.83184968,61.59252389,-178.09133485,-178.47359183
177.30066957,-52.02725323,78.88335759,-120.37667319,85.51723841,-54.86350999
70.77341209,-168.60764703,-89.38354745,50.03494549,164.51264640,-51.30679933
-61.24385103,164.85421527,65.59369042,-38.88726485,-0.31890648,2.89121895
2.80642622,-1.43185059,0.84123006,1.49242270

>  <Name>
lig.pdb

>  <RI>
224

>  <Rbt.Current_Directory>
/home/itssahil/PROJECTS/Mol_Feturizer/New_Systems/rnas/2mxs

>  <Rbt.Executable>
rbdock ($Id: //depot/dev/client3/rdock/2013.1/src/exe/rbdock.cxx#4 $)

>  <Rbt.Library>
libRbt.so (2013.1, Build901 2013/11/27)

>  <Rbt.Parameter_File>
/export/apps/rDock/src/rDock_2013.1_src/data/scripts/dock_solv.prm

>  <Rbt.Receptor>
prm/pocket_docking_2.prm

>  <SCORE>
-29.7866

>  <SCORE.INTER>
-34.9576

>  <SCORE.INTER.CONST>
1

>  <SCORE.INTER.POLAR>
-4.99389

>  <SCORE.INTER.ROT>
9

>  <SCORE.INTER.SOLV>
17.0518

>  <SCORE.INTER.VDW>
-21.9427

>  <SCORE.INTER.norm>
-0.832324

>  <SCORE.INTRA>
3.56602

>  <SCORE.INTRA.DIHEDRAL>
7.17822

>  <SCORE.INTRA.DIHEDRAL.0>
30.1357

>  <SCORE.INTRA.POLAR>
-2.28333

>  <SCORE.INTRA.POLAR.0>
-0.631696

>  <SCORE.INTRA.REPUL>
0

>  <SCORE.INTRA.REPUL.0>
0

>  <SCORE.INTRA.SOLV>
2.44038

>  <SCORE.INTRA.SOLV.lig_0>
-55.904

>  <SCORE.INTRA.VDW>
6.52004

>  <SCORE.INTRA.VDW.0>
-8.21197

>  <SCORE.INTRA.norm>
0.0849052

>  <SCORE.RESTR>
1.605

>  <SCORE.RESTR.CAVITY>
1.605

>  <SCORE.RESTR.norm>
0.0382144

>  <SCORE.SYSTEM>
0

>  <SCORE.SYSTEM.CONST>
0

>  <SCORE.SYSTEM.DIHEDRAL>
0

>  <SCORE.SYSTEM.SOLV>
0

>  <SCORE.SYSTEM.norm>
0

>  <SCORE.heavy>
42

>  <SCORE.norm>
-0.709204

>  <RMSD>
2.208

$$$$
lig.pdb
 OpenBabel11021811453D
libRbt.so/2013.1/901 2013/11/27
 42 45  0  0  0  0  0  0  0  0999 V2000
    1.3485    4.0056   -0.1979 C   0  0  2  0  0  0  0  0  0  0  0  0
    0.2088    3.6980   -1.0028 O   0  0  0  0  0  0  0  0  0  0  0  0
    1.5193    5.5249   -0.0492 C   0  0  2  0  0  0  0  0  0  0  0  0
    0.2882    6.1472    0.4721 N   0  0  0  0  0  0  0  0  0  0  0  0
    1.9390    6.1639   -1.3792 C   0  0  1  0  0  0  0  0  0  0  0  0
    2.2344    7.5317   -1.1706 O   0  0  0  0  0  0  0  0  0  0  0  0
    3.1803    5.4552   -1.9418 C   0  0  2  0  0  0  0  0  0  0  0  0
    3.4559    5.9511   -3.2378 O   0  0  0  0  0  0  0  0  0  0  0  0
    2.9817    3.9269   -1.9989 C   0  0  2  0  0  0  0  0  0  0  0  0
    2.5263    3.4185   -0.7454 O   0  0  0  0  0  0  0  0  0  0  0  0
    4.3326    3.2817   -2.3622 C   0  0  0  0  0  0  0  0  0  0  0  0
    5.3606    3.5717   -1.3777 O   0  0  0  0  0  0  0  0  0  0  0  0
   -2.8532    0.6973   -0.6140 C   0  0  2  0  0  0  0  0  0  0  0  0
   -3.3660   -0.5961   -0.1196 N   0  0  0  0  0  0  0  0  0  0  0  0
   -1.6305    0.4780   -1.5084 C   0  0  0  0  0  0  0  0  0  0  0  0
   -1.0114    1.8122   -1.9079 C   0  0  2  0  0  0  0  0  0  0  0  0
    0.0993    1.5957   -2.8436 N   0  0  0  0  0  0  0  0  0  0  0  0
   -0.5538    2.5428   -0.6241 C   0  0  2  0  0  0  0  0  0  0  0  0
   -1.7661    2.9000    0.1749 C   0  0  2  0  0  0  0  0  0  0  0  0
   -1.3283    3.6035    1.3230 O   0  0  0  0  0  0  0  0  0  0  0  0
   -2.5147    1.6375    0.5582 C   0  0  1  0  0  0  0  0  0  0  0  0
   -3.7187    1.9216    1.2458 O   0  0  0  0  0  0  0  0  0  0  0  0
   -2.3038    3.9494    2.3006 C   0  0  1  0  0  0  0  0  0  0  0  0
   -2.1596    2.9737    3.4705 C   0  0  2  0  0  0  0  0  0  0  0  0
   -3.4392    2.6923    4.0056 O   0  0  0  0  0  0  0  0  0  0  0  0
   -1.2644    3.7535    4.4429 C   0  0  2  0  0  0  0  0  0  0  0  0
   -1.3679    3.2843    5.7875 O   0  0  0  0  0  0  0  0  0  0  0  0
   -1.7962    5.1735    4.2133 C   0  0  2  0  0  0  0  0  0  0  0  0
   -2.0276    5.2467    2.8135 O   0  0  0  0  0  0  0  0  0  0  0  0
   -0.8223    6.2870    4.6158 C   0  0  0  0  0  0  0  0  0  0  0  0
    0.3016    6.3284    3.7625 O   0  0  0  0  0  0  0  0  0  0  0  0
   -0.1841    2.6730    6.2965 C   0  0  2  0  0  0  0  0  0  0  0  0
   -0.2562    1.1403    6.2224 C   0  0  2  0  0  0  0  0  0  0  0  0
   -0.5413    0.6927    4.8489 N   0  0  0  0  0  0  0  0  0  0  0  0
   -1.2841    0.5847    7.2196 C   0  0  1  0  0  0  0  0  0  0  0  0
   -1.2449   -0.8283    7.1683 O   0  0  0  0  0  0  0  0  0  0  0  0
   -0.9090    1.0751    8.6284 C   0  0  2  0  0  0  0  0  0  0  0  0
   -1.8524    0.6252    9.5835 O   0  0  0  0  0  0  0  0  0  0  0  0
   -0.7953    2.6130    8.6663 C   0  0  1  0  0  0  0  0  0  0  0  0
    0.0654    3.0996    7.6340 O   0  0  0  0  0  0  0  0  0  0  0  0
   -2.1564    3.3244    8.6612 C   0  0  0  0  0  0  0  0  0  0  0  0
   -2.0725    4.6378    8.0021 N   0  0  0  0  0  0  0  0  0  0  0  0
  1  3  1  0  0  0  0
  1  2  1  6  0  0  0
  3  4  1  6  0  0  0
  5  6  1  1  0  0  0
  5  3  1  0  0  0  0
  7  9  1  0  0  0  0
  7  5  1  0  0  0  0
  7  8  1  6  0  0  0
  9 10  1  0  0  0  0
  9 11  1  1  0  0  0
 10  1  1  0  0  0  0
 11 12  1  0  0  0  0
 13 14  1  1  0  0  0
 13 21  1  0  0  0  0
 15 13  1  0  0  0  0
 16 15  1  0  0  0  0
 16 18  1  0  0  0  0
 16 17  1  6  0  0  0
 18  2  1  6  0  0  0
 18 19  1  0  0  0  0
 19 21  1  0  0  0  0
 19 20  1  1  0  0  0
 21 22  1  6  0  0  0
 23 20  1  6  0  0  0
 23 29  1  0  0  0  0
 23 24  1  0  0  0  0
 24 26  1  0  0  0  0
 24 25  1  1  0  0  0
 26 27  1  1  0  0  0
 28 26  1  0  0  0  0
 28 30  1  6  0  0  0
 29 28  1  0  0  0  0
 30 31  1  0  0  0  0
 32 27  1  1  0  0  0
 32 40  1  0  0  0  0
 32 33  1  0  0  0  0
 33 35  1  0  0  0  0
 33 34  1  6  0  0  0
 35 37  1  0  0  0  0
 35 36  1  1  0  0  0
 37 38  1  1  0  0  0
 39 37  1  0  0  0  0
 39 41  1  6  0  0  0
 40 39  1  0  0  0  0
 42 41  1  0  0  0  0
M  END
>  <CHROM.1>
-141.45077473,-143.33853250,-88.96249894,-171.23256689,64.99648756,-179.82693261
60.66080781,-170.30305845,174.94900132,-174.67932862,103.02868943,70.33565115
178.63055997,113.26960932,-98.92608763,68.49174158,-75.92076322,-66.22839404
-174.47923572,179.24733450,-149.72906125,-52.28136378,-0.36019161,3.20950084
2.36481303,-1.01923129,0.85431294,1.36291989

>  <Name>
lig.pdb

>  <RI>
0

>  <Rbt.Current_Directory>
/home/itssahil/PROJECTS/Mol_Feturizer/New_Systems/rnas/2mxs

>  <Rbt.Executable>
rbdock ($Id: //depot/dev/client3/rdock/2013.1/src/exe/rbdock.cxx#4 $)

>  <Rbt.Library>
libRbt.so (2013.1, Build901 2013/11/27)

>  <Rbt.Parameter_File>
/export/apps/rDock/src/rDock_2013.1_src/data/scripts/dock_solv.prm

>  <Rbt.Receptor>
prm/pocket_docking_3.prm

>  <SCORE>
-41.6511

>  <SCORE.INTER>
-43.287

>  <SCORE.INTER.CONST>
1

>  <SCORE.INTER.POLAR>
-5.84931

>  <SCORE.INTER.ROT>
9

>  <SCORE.INTER.SOLV>
18.691

>  <SCORE.INTER.VDW>
-25.1907

>  <SCORE.INTER.norm>
-1.03064

>  <SCORE.INTRA>
1.61677

>  <SCORE.INTRA.DIHEDRAL>
5.79429

>  <SCORE.INTRA.DIHEDRAL.0>
30.1357

>  <SCORE.INTRA.POLAR>
-1.02335

>  <SCORE.INTRA.POLAR.0>
-0.631696

>  <SCORE.INTRA.REPUL>
0

>  <SCORE.INTRA.REPUL.0>
0

>  <SCORE.INTRA.SOLV>
1.87212

>  <SCORE.INTRA.SOLV.lig_0>
-55.904

>  <SCORE.INTRA.VDW>
1.26294

>  <SCORE.INTRA.VDW.0>
-8.21197

>  <SCORE.INTRA.norm>
0.0384945

>  <SCORE.RESTR>
0.0191969

>  <SCORE.RESTR.CAVITY>
0.0191969

>  <SCORE.RESTR.norm>
0.000457069

>  <SCORE.SYSTEM>
0

>  <SCORE.SYSTEM.CONST>
0

>  <SCORE.SYSTEM.DIHEDRAL>
0

>  <SCORE.SYSTEM.SOLV>
0

>  <SCORE.SYSTEM.norm>
0

>  <SCORE.heavy>
42

>  <SCORE.norm>
-0.991692

>  <RMSD>
2.212

$$$$
lig.pdb
 OpenBabel11021811453D
libRbt.so/2013.1/901 2013/11/27
 42 45  0  0  0  0  0  0  0  0999 V2000
    0.7914    4.1456    0.3594 C   0  0  2  0  0  0  0  0  0  0  0  0
   -0.0408    3.2932   -0.4295 O   0  0  0  0  0  0  0  0  0  0  0  0
    0.3263    5.6064    0.2627 C   0  0  2  0  0  0  0  0  0  0  0  0
   -1.0978    5.7333    0.6238 N   0  0  0  0  0  0  0  0  0  0  0  0
    0.5928    6.1768   -1.1363 C   0  0  1  0  0  0  0  0  0  0  0  0
    0.2954    7.5600   -1.1440 O   0  0  0  0  0  0  0  0  0  0  0  0
    2.0649    5.9706   -1.5235 C   0  0  2  0  0  0  0  0  0  0  0  0
    2.2535    6.3574   -2.8712 O   0  0  0  0  0  0  0  0  0  0  0  0
    2.4987    4.5026   -1.3361 C   0  0  2  0  0  0  0  0  0  0  0  0
    2.1556    4.0252   -0.0356 O   0  0  0  0  0  0  0  0  0  0  0  0
    4.0246    4.4252   -1.5330 C   0  0  0  0  0  0  0  0  0  0  0  0
    4.4891    3.0568   -1.6814 O   0  0  0  0  0  0  0  0  0  0  0  0
   -0.6925   -0.9534   -0.1605 C   0  0  2  0  0  0  0  0  0  0  0  0
   -0.2259   -2.3424    0.0219 N   0  0  0  0  0  0  0  0  0  0  0  0
   -0.0256   -0.3248   -1.3866 C   0  0  0  0  0  0  0  0  0  0  0  0
   -0.3928    1.1500   -1.5005 C   0  0  2  0  0  0  0  0  0  0  0  0
    0.1706    1.7191   -2.7311 N   0  0  0  0  0  0  0  0  0  0  0  0
    0.1188    1.8802   -0.2369 C   0  0  2  0  0  0  0  0  0  0  0  0
   -0.6490    1.3779    0.9436 C   0  0  2  0  0  0  0  0  0  0  0  0
   -0.1951    2.0879    2.0813 O   0  0  0  0  0  0  0  0  0  0  0  0
   -0.4229   -0.1137    1.1023 C   0  0  1  0  0  0  0  0  0  0  0  0
   -1.1939   -0.6590    2.1565 O   0  0  0  0  0  0  0  0  0  0  0  0
   -0.8130    1.8016    3.3316 C   0  0  1  0  0  0  0  0  0  0  0  0
    0.1535    2.2272    4.4390 C   0  0  2  0  0  0  0  0  0  0  0  0
    0.0539    1.3206    5.5211 O   0  0  0  0  0  0  0  0  0  0  0  0
   -0.3468    3.6345    4.7917 C   0  0  2  0  0  0  0  0  0  0  0  0
    0.0620    4.0571    6.0928 O   0  0  0  0  0  0  0  0  0  0  0  0
   -1.8576    3.4287    4.6262 C   0  0  2  0  0  0  0  0  0  0  0  0
   -1.9819    2.5976    3.4807 O   0  0  0  0  0  0  0  0  0  0  0  0
   -2.6505    4.7200    4.3929 C   0  0  0  0  0  0  0  0  0  0  0  0
   -2.1534    5.4428    3.2868 O   0  0  0  0  0  0  0  0  0  0  0  0
   -0.5714    5.2475    6.5574 C   0  0  2  0  0  0  0  0  0  0  0  0
    0.4466    6.3629    6.8394 C   0  0  2  0  0  0  0  0  0  0  0  0
    1.2790    6.6276    5.6541 N   0  0  0  0  0  0  0  0  0  0  0  0
    1.3069    6.0307    8.0679 C   0  0  1  0  0  0  0  0  0  0  0  0
    2.1623    7.1264    8.3297 O   0  0  0  0  0  0  0  0  0  0  0  0
    0.3721    5.7895    9.2653 C   0  0  2  0  0  0  0  0  0  0  0  0
    1.1147    5.4361   10.4178 O   0  0  0  0  0  0  0  0  0  0  0  0
   -0.6711    4.7002    8.9415 C   0  0  1  0  0  0  0  0  0  0  0  0
   -1.3554    4.9784    7.7177 O   0  0  0  0  0  0  0  0  0  0  0  0
   -0.0932    3.2775    8.9650 C   0  0  0  0  0  0  0  0  0  0  0  0
    0.3301    2.8931   10.3212 N   0  0  0  0  0  0  0  0  0  0  0  0
  1  3  1  0  0  0  0
  1  2  1  6  0  0  0
  3  4  1  6  0  0  0
  5  6  1  1  0  0  0
  5  3  1  0  0  0  0
  7  9  1  0  0  0  0
  7  5  1  0  0  0  0
  7  8  1  6  0  0  0
  9 10  1  0  0  0  0
  9 11  1  1  0  0  0
 10  1  1  0  0  0  0
 11 12  1  0  0  0  0
 13 14  1  1  0  0  0
 13 21  1  0  0  0  0
 15 13  1  0  0  0  0
 16 15  1  0  0  0  0
 16 18  1  0  0  0  0
 16 17  1  6  0  0  0
 18  2  1  6  0  0  0
 18 19  1  0  0  0  0
 19 21  1  0  0  0  0
 19 20  1  1  0  0  0
 21 22  1  1  0  0  0
 23 20  1  6  0  0  0
 23 29  1  0  0  0  0
 23 24  1  0  0  0  0
 24 26  1  0  0  0  0
 24 25  1  1  0  0  0
 26 27  1  1  0  0  0
 28 26  1  0  0  0  0
 28 30  1  6  0  0  0
 29 28  1  0  0  0  0
 30 31  1  0  0  0  0
 32 27  1  1  0  0  0
 32 40  1  0  0  0  0
 32 33  1  0  0  0  0
 33 35  1  0  0  0  0
 33 34  1  6  0  0  0
 35 37  1  0  0  0  0
 35 36  1  1  0  0  0
 37 38  1  1  0  0  0
 39 37  1  0  0  0  0
 39 41  1  6  0  0  0
 40 39  1  0  0  0  0
 42 41  1  0  0  0  0
M  END
>  <CHROM.1>
-157.48746682,-168.64372380,74.99588893,-66.88299182,-60.04978970,-52.06173915
-166.78473949,5.59932077,65.64777775,178.40037760,157.99471140,65.54310146
62.48259980,-169.33626907,-119.61999428,55.21444554,-176.68860778,-178.42800399
60.34833390,159.52192825,65.98963043,-55.59735535,0.24213513,3.63770491,2.88852351
-1.33147931,1.22359421,1.12831185

>  <Name>
lig.pdb

>  <RI>
0

>  <Rbt.Current_Directory>
/home/itssahil/PROJECTS/Mol_Feturizer/New_Systems/rnas/2mxs

>  <Rbt.Executable>
rbdock ($Id: //depot/dev/client3/rdock/2013.1/src/exe/rbdock.cxx#4 $)

>  <Rbt.Library>
libRbt.so (2013.1, Build901 2013/11/27)

>  <Rbt.Parameter_File>
/export/apps/rDock/src/rDock_2013.1_src/data/scripts/dock_solv.prm

>  <Rbt.Receptor>
prm/pocket_docking_3.prm

>  <SCORE>
-48.6044

>  <SCORE.INTER>
-44.8962

>  <SCORE.INTER.CONST>
1

>  <SCORE.INTER.POLAR>
-5.67156

>  <SCORE.INTER.ROT>
9

>  <SCORE.INTER.SOLV>
17.505

>  <SCORE.INTER.VDW>
-26.4606

>  <SCORE.INTER.norm>
-1.06896

>  <SCORE.INTRA>
-3.70825

>  <SCORE.INTRA.DIHEDRAL>
-9.08066

>  <SCORE.INTRA.DIHEDRAL.0>
30.1357

>  <SCORE.INTRA.POLAR>
-0.885082

>  <SCORE.INTRA.POLAR.0>
-0.631696

>  <SCORE.INTRA.REPUL>
0

>  <SCORE.INTRA.REPUL.0>
0

>  <SCORE.INTRA.SOLV>
-0.0565182

>  <SCORE.INTRA.SOLV.lig_0>
-55.904

>  <SCORE.INTRA.VDW>
3.86961

>  <SCORE.INTRA.VDW.0>
-8.21197

>  <SCORE.INTRA.norm>
-0.0882917

>  <SCORE.RESTR>
0

>  <SCORE.RESTR.CAVITY>
0

>  <SCORE.RESTR.norm>
0

>  <SCORE.SYSTEM>
0

>  <SCORE.SYSTEM.CONST>
0

>  <SCORE.SYSTEM.DIHEDRAL>
0

>  <SCORE.SYSTEM.SOLV>
0

>  <SCORE.SYSTEM.norm>
0

>  <SCORE.heavy>
42

>  <SCORE.norm>
-1.15725

>  <RMSD>
2.272

$$$$
lig.pdb
 OpenBabel11021811453D
libRbt.so/2013.1/901 2013/11/27
 42 45  0  0  0  0  0  0  0  0999 V2000
    0.5438    3.7218    0.3947 C   0  0  2  0  0  0  0  0  0  0  0  0
   -0.4140    3.2357   -0.5475 O   0  0  0  0  0  0  0  0  0  0  0  0
    0.1072    5.0784    0.9682 C   0  0  2  0  0  0  0  0  0  0  0  0
   -1.2471    4.9975    1.5460 N   0  0  0  0  0  0  0  0  0  0  0  0
    0.1860    6.1776   -0.0991 C   0  0  1  0  0  0  0  0  0  0  0  0
   -0.0739    7.4329    0.4995 O   0  0  0  0  0  0  0  0  0  0  0  0
    1.5821    6.1985   -0.7394 C   0  0  2  0  0  0  0  0  0  0  0  0
    1.5865    7.1065   -1.8242 O   0  0  0  0  0  0  0  0  0  0  0  0
    2.0005    4.7974   -1.2296 C   0  0  2  0  0  0  0  0  0  0  0  0
    1.8342    3.8204   -0.2026 O   0  0  0  0  0  0  0  0  0  0  0  0
    3.4803    4.8603   -1.6533 C   0  0  0  0  0  0  0  0  0  0  0  0
    3.6436    5.3911   -2.9957 O   0  0  0  0  0  0  0  0  0  0  0  0
   -2.7632   -0.3712   -0.5966 C   0  0  2  0  0  0  0  0  0  0  0  0
   -2.9809   -1.7983   -0.2861 N   0  0  0  0  0  0  0  0  0  0  0  0
   -1.5390   -0.2043   -1.5003 C   0  0  0  0  0  0  0  0  0  0  0  0
   -1.2241    1.2721   -1.7104 C   0  0  2  0  0  0  0  0  0  0  0  0
   -0.1108    1.4235   -2.6556 N   0  0  0  0  0  0  0  0  0  0  0  0
   -0.9073    1.9049   -0.3354 C   0  0  2  0  0  0  0  0  0  0  0  0
   -2.1523    1.8864    0.4924 C   0  0  2  0  0  0  0  0  0  0  0  0
   -1.8517    2.5068    1.7290 O   0  0  0  0  0  0  0  0  0  0  0  0
   -2.6093    0.4541    0.6947 C   0  0  1  0  0  0  0  0  0  0  0  0
   -3.8328    0.3814    1.4024 O   0  0  0  0  0  0  0  0  0  0  0  0
   -1.4220    1.6746    2.8012 C   0  0  1  0  0  0  0  0  0  0  0  0
   -0.1327    2.2719    3.3689 C   0  0  2  0  0  0  0  0  0  0  0  0
    0.7303    1.2252    3.7718 O   0  0  0  0  0  0  0  0  0  0  0  0
   -0.6471    3.1085    4.5482 C   0  0  2  0  0  0  0  0  0  0  0  0
    0.3647    3.3764    5.5194 O   0  0  0  0  0  0  0  0  0  0  0  0
   -1.7867    2.2061    5.0371 C   0  0  2  0  0  0  0  0  0  0  0  0
   -2.3840    1.7085    3.8480 O   0  0  0  0  0  0  0  0  0  0  0  0
   -2.8549    2.9287    5.8662 C   0  0  0  0  0  0  0  0  0  0  0  0
   -3.6381    3.7903    5.0678 O   0  0  0  0  0  0  0  0  0  0  0  0
   -0.0597    4.1908    6.6107 C   0  0  2  0  0  0  0  0  0  0  0  0
    1.0975    5.0207    7.1872 C   0  0  2  0  0  0  0  0  0  0  0  0
    1.7413    5.8269    6.1367 N   0  0  0  0  0  0  0  0  0  0  0  0
    2.1142    4.1258    7.9118 C   0  0  1  0  0  0  0  0  0  0  0  0
    3.1065    4.9491    8.4934 O   0  0  0  0  0  0  0  0  0  0  0  0
    1.3744    3.3347    9.0038 C   0  0  2  0  0  0  0  0  0  0  0  0
    2.2608    2.4591    9.6762 O   0  0  0  0  0  0  0  0  0  0  0  0
    0.1881    2.5483    8.4089 C   0  0  1  0  0  0  0  0  0  0  0  0
   -0.6606    3.3929    7.6281 O   0  0  0  0  0  0  0  0  0  0  0  0
    0.6168    1.2928    7.6351 C   0  0  0  0  0  0  0  0  0  0  0  0
    1.8792    1.5139    6.9115 N   0  0  0  0  0  0  0  0  0  0  0  0
  1  3  1  0  0  0  0
  1  2  1  6  0  0  0
  3  4  1  6  0  0  0
  5  6  1  1  0  0  0
  5  3  1  0  0  0  0
  7  9  1  0  0  0  0
  7  5  1  0  0  0  0
  7  8  1  6  0  0  0
  9 10  1  0  0  0  0
  9 11  1  1  0  0  0
 10  1  1  0  0  0  0
 11 12  1  0  0  0  0
 13 14  1  1  0  0  0
 13 21  1  0  0  0  0
 15 13  1  0  0  0  0
 16 15  1  0  0  0  0
 16 18  1  0  0  0  0
 16 17  1  6  0  0  0
 18  2  1  6  0  0  0
 18 19  1  0  0  0  0
 19 21  1  0  0  0  0
 19 20  1  1  0  0  0
 21 22  1  6  0  0  0
 23 20  1  6  0  0  0
 23 29  1  0  0  0  0
 23 24  1  0  0  0  0
 24 26  1  0  0  0  0
 24 25  1  1  0  0  0
 26 27  1  1  0  0  0
 28 26  1  0  0  0  0
 28 30  1  6  0  0  0
 29 28  1  0  0  0  0
 30 31  1  0  0  0  0
 32 27  1  6  0  0  0
 32 40  1  0  0  0  0
 32 33  1  0  0  0  0
 33 35  1  0  0  0  0
 33 34  1  6  0  0  0
 35 37  1  0  0  0  0
 35 36  1  1  0  0  0
 37 38  1  6  0  0  0
 39 37  1  0  0  0  0
 39 41  1  6  0  0  0
 40 39  1  0  0  0  0
 42 41  1  0  0  0  0
M  END
>  <CHROM.1>
-148.20255860,-127.31598650,41.76063321,64.08832117,-37.93895056,-178.12039940
-81.84051143,-100.60629861,62.52258724,-92.21095068,129.12292297,73.68124826
68.30582820,177.94789673,-150.63795992,70.74664641,-167.50207727,173.19666065
-71.72582058,179.38877043,-36.07964688,169.47409425,-0.09507531,3.13959957
2.78066451,-1.71482588,0.85274961,1.65703402

>  <Name>
lig.pdb

>  <RI>
0

>  <Rbt.Current_Directory>
/home/itssahil/PROJECTS/Mol_Feturizer/New_Systems/rnas/2mxs

>  <Rbt.Executable>
rbdock ($Id: //depot/dev/client3/rdock/2013.1/src/exe/rbdock.cxx#4 $)

>  <Rbt.Library>
libRbt.so (2013.1, Build901 2013/11/27)

>  <Rbt.Parameter_File>
/export/apps/rDock/src/rDock_2013.1_src/data/scripts/dock_solv.prm

>  <Rbt.Receptor>
prm/pocket_docking_3.prm

>  <SCORE>
-39.1391

>  <SCORE.INTER>
-45.6775

>  <SCORE.INTER.CONST>
1

>  <SCORE.INTER.POLAR>
-5.92153

>  <SCORE.INTER.ROT>
9

>  <SCORE.INTER.SOLV>
15.8585

>  <SCORE.INTER.VDW>
-25.5994

>  <SCORE.INTER.norm>
-1.08756

>  <SCORE.INTRA>
6.45797

>  <SCORE.INTRA.DIHEDRAL>
8.02904

>  <SCORE.INTRA.DIHEDRAL.0>
30.1357

>  <SCORE.INTRA.POLAR>
-1.11563

>  <SCORE.INTRA.POLAR.0>
-0.631696

>  <SCORE.INTRA.REPUL>
0

>  <SCORE.INTRA.REPUL.0>
0

>  <SCORE.INTRA.SOLV>
1.78378

>  <SCORE.INTRA.SOLV.lig_0>
-55.904

>  <SCORE.INTRA.VDW>
5.3447

>  <SCORE.INTRA.VDW.0>
-8.21197

>  <SCORE.INTRA.norm>
0.153761

>  <SCORE.RESTR>
0.0804465

>  <SCORE.RESTR.CAVITY>
0.0804465

>  <SCORE.RESTR.norm>
0.00191539

>  <SCORE.SYSTEM>
0

>  <SCORE.SYSTEM.CONST>
0

>  <SCORE.SYSTEM.DIHEDRAL>
0

>  <SCORE.SYSTEM.SOLV>
0

>  <SCORE.SYSTEM.norm>
0

>  <SCORE.heavy>
42

>  <SCORE.norm>
-0.931882

>  <RMSD>
2.291

$$$$
lig.pdb
 OpenBabel11021811453D
libRbt.so/2013.1/901 2013/11/27
 42 45  0  0  0  0  0  0  0  0999 V2000
    0.1957    3.1915    1.2051 C   0  0  2  0  0  0  0  0  0  0  0  0
   -0.9726    2.5574    0.6811 O   0  0  0  0  0  0  0  0  0  0  0  0
   -0.1347    4.5947    1.7357 C   0  0  2  0  0  0  0  0  0  0  0  0
   -1.2277    4.5428    2.7241 N   0  0  0  0  0  0  0  0  0  0  0  0
   -0.4767    5.5510    0.5859 C   0  0  1  0  0  0  0  0  0  0  0  0
   -0.6246    6.8629    1.0944 O   0  0  0  0  0  0  0  0  0  0  0  0
    0.6406    5.5367   -0.4683 C   0  0  2  0  0  0  0  0  0  0  0  0
    0.2365    6.2987   -1.5896 O   0  0  0  0  0  0  0  0  0  0  0  0
    0.9832    4.0993   -0.9098 C   0  0  2  0  0  0  0  0  0  0  0  0
    1.2209    3.2562    0.2169 O   0  0  0  0  0  0  0  0  0  0  0  0
    2.2450    4.1572   -1.7918 C   0  0  0  0  0  0  0  0  0  0  0  0
    3.4635    4.0090   -1.0150 O   0  0  0  0  0  0  0  0  0  0  0  0
   -1.7332   -1.5908   -0.1817 C   0  0  2  0  0  0  0  0  0  0  0  0
   -1.5000   -3.0353    0.0167 N   0  0  0  0  0  0  0  0  0  0  0  0
   -0.4465   -0.9028   -0.6442 C   0  0  0  0  0  0  0  0  0  0  0  0
   -0.6408    0.6072   -0.7156 C   0  0  2  0  0  0  0  0  0  0  0  0
    0.5655    1.2488   -1.2532 N   0  0  0  0  0  0  0  0  0  0  0  0
   -0.9897    1.1227    0.7001 C   0  0  2  0  0  0  0  0  0  0  0  0
   -2.3265    0.5760    1.0869 C   0  0  2  0  0  0  0  0  0  0  0  0
   -2.6449    1.0926    2.3660 O   0  0  0  0  0  0  0  0  0  0  0  0
   -2.2716   -0.9399    1.1063 C   0  0  1  0  0  0  0  0  0  0  0  0
   -3.5349   -1.5140    1.3850 O   0  0  0  0  0  0  0  0  0  0  0  0
   -2.3194    0.2984    3.5018 C   0  0  1  0  0  0  0  0  0  0  0  0
   -1.0608    0.8895    4.1405 C   0  0  2  0  0  0  0  0  0  0  0  0
   -0.2588   -0.1585    4.6515 O   0  0  0  0  0  0  0  0  0  0  0  0
   -1.6397    1.7888    5.2410 C   0  0  2  0  0  0  0  0  0  0  0  0
   -0.6970    2.0752    6.2744 O   0  0  0  0  0  0  0  0  0  0  0  0
   -2.8366    0.9357    5.6791 C   0  0  2  0  0  0  0  0  0  0  0  0
   -3.3560    0.4006    4.4698 O   0  0  0  0  0  0  0  0  0  0  0  0
   -3.9444    1.7187    6.3933 C   0  0  0  0  0  0  0  0  0  0  0  0
   -4.5841    2.6268    5.5220 O   0  0  0  0  0  0  0  0  0  0  0  0
    0.5917    2.4724    5.8101 C   0  0  2  0  0  0  0  0  0  0  0  0
    1.6066    2.5721    6.9590 C   0  0  2  0  0  0  0  0  0  0  0  0
    1.6752    1.3084    7.7117 N   0  0  0  0  0  0  0  0  0  0  0  0
    1.2861    3.7587    7.8804 C   0  0  1  0  0  0  0  0  0  0  0  0
    2.2978    3.8524    8.8644 O   0  0  0  0  0  0  0  0  0  0  0  0
    1.2531    5.0398    7.0297 C   0  0  2  0  0  0  0  0  0  0  0  0
    0.9183    6.1617    7.8258 O   0  0  0  0  0  0  0  0  0  0  0  0
    0.2634    4.8979    5.8550 C   0  0  1  0  0  0  0  0  0  0  0  0
    0.5112    3.7079    5.1029 O   0  0  0  0  0  0  0  0  0  0  0  0
   -1.2077    5.0113    6.2812 C   0  0  0  0  0  0  0  0  0  0  0  0
   -1.5281    6.3706    6.7458 N   0  0  0  0  0  0  0  0  0  0  0  0
  1  3  1  0  0  0  0
  1  2  1  6  0  0  0
  3  4  1  1  0  0  0
  5  6  1  1  0  0  0
  5  3  1  0  0  0  0
  7  9  1  0  0  0  0
  7  5  1  0  0  0  0
  7  8  1  6  0  0  0
  9 10  1  0  0  0  0
  9 11  1  6  0  0  0
 10  1  1  0  0  0  0
 11 12  1  0  0  0  0
 13 14  1  1  0  0  0
 13 21  1  0  0  0  0
 15 13  1  0  0  0  0
 16 15  1  0  0  0  0
 16 18  1  0  0  0  0
 16 17  1  1  0  0  0
 18  2  1  6  0  0  0
 18 19  1  0  0  0  0
 19 21  1  0  0  0  0
 19 20  1  1  0  0  0
 21 22  1  6  0  0  0
 23 20  1  6  0  0  0
 23 29  1  0  0  0  0
 23 24  1  0  0  0  0
 24 26  1  0  0  0  0
 24 25  1  1  0  0  0
 26 27  1  1  0  0  0
 28 26  1  0  0  0  0
 28 30  1  6  0  0  0
 29 28  1  0  0  0  0
 30 31  1  0  0  0  0
 32 27  1  1  0  0  0
 32 40  1  0  0  0  0
 32 33  1  0  0  0  0
 33 35  1  0  0  0  0
 33 34  1  1  0  0  0
 35 37  1  0  0  0  0
 35 36  1  1  0  0  0
 37 38  1  1  0  0  0
 39 37  1  0  0  0  0
 39 41  1  1  0  0  0
 40 39  1  0  0  0  0
 42 41  1  0  0  0  0
M  END
>  <CHROM.1>
-100.63222534,-153.35393202,-54.84121895,-160.41160540,65.63554334,-72.65000579
90.71897495,75.92311339,143.76242064,-94.45574617,103.08800448,-60.30571495
61.65540099,46.88756411,-171.96676598,66.87588848,-60.62265379,-53.37736513
-71.08057121,61.33341580,67.29422437,-169.20810962,-0.54174025,2.57484017
3.07550121,-1.67768039,1.06729347,1.36977307

>  <Name>
lig.pdb

>  <RI>
0

>  <Rbt.Current_Directory>
/home/itssahil/PROJECTS/Mol_Feturizer/New_Systems/rnas/2mxs

>  <Rbt.Executable>
rbdock ($Id: //depot/dev/client3/rdock/2013.1/src/exe/rbdock.cxx#4 $)

>  <Rbt.Library>
libRbt.so (2013.1, Build901 2013/11/27)

>  <Rbt.Parameter_File>
/export/apps/rDock/src/rDock_2013.1_src/data/scripts/dock_solv.prm

>  <Rbt.Receptor>
prm/pocket_docking_3.prm

>  <SCORE>
-24.7363

>  <SCORE.INTER>
-24.578

>  <SCORE.INTER.CONST>
1

>  <SCORE.INTER.POLAR>
-3.12865

>  <SCORE.INTER.ROT>
9

>  <SCORE.INTER.SOLV>
13.2389

>  <SCORE.INTER.VDW>
-19.9695

>  <SCORE.INTER.norm>
-0.585191

>  <SCORE.INTRA>
-0.273117

>  <SCORE.INTRA.DIHEDRAL>
0.268789

>  <SCORE.INTRA.DIHEDRAL.0>
30.1357

>  <SCORE.INTRA.POLAR>
-1.55596

>  <SCORE.INTRA.POLAR.0>
-0.631696

>  <SCORE.INTRA.REPUL>
0

>  <SCORE.INTRA.REPUL.0>
0

>  <SCORE.INTRA.SOLV>
1.35328

>  <SCORE.INTRA.SOLV.lig_0>
-55.904

>  <SCORE.INTRA.VDW>
4.2061

>  <SCORE.INTRA.VDW.0>
-8.21197

>  <SCORE.INTRA.norm>
-0.00650279

>  <SCORE.RESTR>
0.114836

>  <SCORE.RESTR.CAVITY>
0.114836

>  <SCORE.RESTR.norm>
0.00273419

>  <SCORE.SYSTEM>
0

>  <SCORE.SYSTEM.CONST>
0

>  <SCORE.SYSTEM.DIHEDRAL>
0

>  <SCORE.SYSTEM.SOLV>
0

>  <SCORE.SYSTEM.norm>
0

>  <SCORE.heavy>
42

>  <SCORE.norm>
-0.588959

>  <RMSD>
2.295

$$$$
lig.pdb
 OpenBabel11021811453D
libRbt.so/2013.1/901 2013/11/27
 42 45  0  0  0  0  0  0  0  0999 V2000
    0.0900    3.6896    0.2717 C   0  0  2  0  0  0  0  0  0  0  0  0
   -0.6963    2.9445   -0.6600 O   0  0  0  0  0  0  0  0  0  0  0  0
   -0.1837    5.1952    0.1378 C   0  0  2  0  0  0  0  0  0  0  0  0
   -1.6234    5.4851    0.2708 N   0  0  0  0  0  0  0  0  0  0  0  0
    0.3675    5.7387   -1.1868 C   0  0  1  0  0  0  0  0  0  0  0  0
    0.2350    7.1470   -1.2080 O   0  0  0  0  0  0  0  0  0  0  0  0
    1.8495    5.3646   -1.3398 C   0  0  2  0  0  0  0  0  0  0  0  0
    2.2952    5.7345   -2.6306 O   0  0  0  0  0  0  0  0  0  0  0  0
    2.0772    3.8550   -1.1216 C   0  0  2  0  0  0  0  0  0  0  0  0
    1.4773    3.4133    0.0958 O   0  0  0  0  0  0  0  0  0  0  0  0
    3.5960    3.6015   -1.0751 C   0  0  0  0  0  0  0  0  0  0  0  0
    4.3555    4.7294   -1.5863 O   0  0  0  0  0  0  0  0  0  0  0  0
   -2.2780   -1.0522   -0.4258 C   0  0  2  0  0  0  0  0  0  0  0  0
   -2.1962   -2.4736   -0.0343 N   0  0  0  0  0  0  0  0  0  0  0  0
   -1.1413   -0.6993   -1.3884 C   0  0  0  0  0  0  0  0  0  0  0  0
   -1.1346    0.7954   -1.6863 C   0  0  2  0  0  0  0  0  0  0  0  0
   -0.1048    1.1087   -2.6848 N   0  0  0  0  0  0  0  0  0  0  0  0
   -0.9068    1.5571   -0.3599 C   0  0  2  0  0  0  0  0  0  0  0  0
   -2.0958    1.3410    0.5205 C   0  0  2  0  0  0  0  0  0  0  0  0
   -1.8858    2.0794    1.7101 O   0  0  0  0  0  0  0  0  0  0  0  0
   -2.2508   -0.1392    0.8144 C   0  0  1  0  0  0  0  0  0  0  0  0
   -3.4118   -0.4110    1.5767 O   0  0  0  0  0  0  0  0  0  0  0  0
   -1.4913    1.3621    2.8748 C   0  0  1  0  0  0  0  0  0  0  0  0
   -0.2734    2.0715    3.4706 C   0  0  2  0  0  0  0  0  0  0  0  0
    0.6088    1.1086    4.0159 O   0  0  0  0  0  0  0  0  0  0  0  0
   -0.9060    2.9737    4.5387 C   0  0  2  0  0  0  0  0  0  0  0  0
    0.0233    3.3738    5.5462 O   0  0  0  0  0  0  0  0  0  0  0  0
   -2.0323    2.0555    5.0291 C   0  0  2  0  0  0  0  0  0  0  0  0
   -2.5229    1.4308    3.8511 O   0  0  0  0  0  0  0  0  0  0  0  0
   -3.1876    2.7861    5.7233 C   0  0  0  0  0  0  0  0  0  0  0  0
   -3.8131    3.7101    4.8585 O   0  0  0  0  0  0  0  0  0  0  0  0
   -0.5229    4.2193    6.5565 C   0  0  2  0  0  0  0  0  0  0  0  0
    0.5294    5.1850    7.1227 C   0  0  2  0  0  0  0  0  0  0  0  0
    1.1544    5.9721    6.0467 N   0  0  0  0  0  0  0  0  0  0  0  0
    1.5807    4.4341    7.9536 C   0  0  1  0  0  0  0  0  0  0  0  0
    2.4692    5.3790    8.5180 O   0  0  0  0  0  0  0  0  0  0  0  0
    0.8568    3.6563    9.0657 C   0  0  2  0  0  0  0  0  0  0  0  0
    1.7795    2.9096    9.8375 O   0  0  0  0  0  0  0  0  0  0  0  0
   -0.2271    2.7301    8.4769 C   0  0  1  0  0  0  0  0  0  0  0  0
   -1.1042    3.4420    7.6009 O   0  0  0  0  0  0  0  0  0  0  0  0
    0.3448    1.4679    7.8146 C   0  0  0  0  0  0  0  0  0  0  0  0
   -0.6927    0.4395    7.6352 N   0  0  0  0  0  0  0  0  0  0  0  0
  1  3  1  0  0  0  0
  1  2  1  6  0  0  0
  3  4  1  6  0  0  0
  5  6  1  1  0  0  0
  5  3  1  0  0  0  0
  7  9  1  0  0  0  0
  7  5  1  0  0  0  0
  7  8  1  6  0  0  0
  9 10  1  0  0  0  0
  9 11  1  1  0  0  0
 10  1  1  0  0  0  0
 11 12  1  0  0  0  0
 13 14  1  1  0  0  0
 13 21  1  0  0  0  0
 15 13  1  0  0  0  0
 16 15  1  0  0  0  0
 16 18  1  0  0  0  0
 16 17  1  6  0  0  0
 18  2  1  6  0  0  0
 18 19  1  0  0  0  0
 19 21  1  0  0  0  0
 19 20  1  1  0  0  0
 21 22  1  6  0  0  0
 23 20  1  6  0  0  0
 23 29  1  0  0  0  0
 23 24  1  0  0  0  0
 24 26  1  0  0  0  0
 24 25  1  1  0  0  0
 26 27  1  1  0  0  0
 28 26  1  0  0  0  0
 28 30  1  6  0  0  0
 29 28  1  0  0  0  0
 30 31  1  0  0  0  0
 32 27  1  6  0  0  0
 32 40  1  0  0  0  0
 32 33  1  0  0  0  0
 33 35  1  0  0  0  0
 33 34  1  6  0  0  0
 35 37  1  0  0  0  0
 35 36  1  1  0  0  0
 37 38  1  6  0  0  0
 39 37  1  0  0  0  0
 39 41  1  6  0  0  0
 40 39  1  0  0  0  0
 42 41  1  0  0  0  0
M  END
>  <CHROM.1>
-152.92788343,-159.04692738,65.47936124,-59.47306545,-179.51049389,86.51733602
-15.10662130,-97.92493684,69.27225078,-103.27631163,130.27377312,176.39977729
-170.59570413,179.73041179,-149.49231765,60.68944167,62.03442902,-178.51241922
-57.24471108,-55.94929891,162.85552240,-63.92687822,-0.24559561,2.86627922
2.72849009,-1.55331470,0.91793620,1.50470834

>  <Name>
lig.pdb

>  <RI>
0

>  <Rbt.Current_Directory>
/home/itssahil/PROJECTS/Mol_Feturizer/New_Systems/rnas/2mxs

>  <Rbt.Executable>
rbdock ($Id: //depot/dev/client3/rdock/2013.1/src/exe/rbdock.cxx#4 $)

>  <Rbt.Library>
libRbt.so (2013.1, Build901 2013/11/27)

>  <Rbt.Parameter_File>
/export/apps/rDock/src/rDock_2013.1_src/data/scripts/dock_solv.prm

>  <Rbt.Receptor>
prm/pocket_docking_3.prm

>  <SCORE>
-36.6886

>  <SCORE.INTER>
-43.7266

>  <SCORE.INTER.CONST>
1

>  <SCORE.INTER.POLAR>
-6.23251

>  <SCORE.INTER.ROT>
9

>  <SCORE.INTER.SOLV>
16.064

>  <SCORE.INTER.VDW>
-23.3307

>  <SCORE.INTER.norm>
-1.04111

>  <SCORE.INTRA>
7.03792

>  <SCORE.INTRA.DIHEDRAL>
3.75963

>  <SCORE.INTRA.DIHEDRAL.0>
30.1357

>  <SCORE.INTRA.POLAR>
-0.974581

>  <SCORE.INTRA.POLAR.0>
-0.631696

>  <SCORE.INTRA.REPUL>
0

>  <SCORE.INTRA.REPUL.0>
0

>  <SCORE.INTRA.SOLV>
-0.0551555

>  <SCORE.INTRA.SOLV.lig_0>
-55.904

>  <SCORE.INTRA.VDW>
8.49926

>  <SCORE.INTRA.VDW.0>
-8.21197

>  <SCORE.INTRA.norm>
0.16757

>  <SCORE.RESTR>
0

>  <SCORE.RESTR.CAVITY>
0

>  <SCORE.RESTR.norm>
0

>  <SCORE.SYSTEM>
0

>  <SCORE.SYSTEM.CONST>
0

>  <SCORE.SYSTEM.DIHEDRAL>
0

>  <SCORE.SYSTEM.SOLV>
0

>  <SCORE.SYSTEM.norm>
0

>  <SCORE.heavy>
42

>  <SCORE.norm>
-0.873539

>  <RMSD>
2.298

$$$$
lig.pdb
 OpenBabel11021811453D
libRbt.so/2013.1/901 2013/11/27
 42 45  0  0  0  0  0  0  0  0999 V2000
    0.9319    3.6116    0.7256 C   0  0  2  0  0  0  0  0  0  0  0  0
    0.0338    2.8967   -0.1253 O   0  0  0  0  0  0  0  0  0  0  0  0
    0.2128    4.7737    1.4270 C   0  0  2  0  0  0  0  0  0  0  0  0
   -0.9785    4.2973    2.1538 N   0  0  0  0  0  0  0  0  0  0  0  0
   -0.1568    5.8760    0.4260 C   0  0  1  0  0  0  0  0  0  0  0  0
   -0.6763    6.9906    1.1255 O   0  0  0  0  0  0  0  0  0  0  0  0
    1.0829    6.3082   -0.3714 C   0  0  2  0  0  0  0  0  0  0  0  0
    0.6934    7.2065   -1.3926 O   0  0  0  0  0  0  0  0  0  0  0  0
    1.8078    5.0962   -0.9908 C   0  0  2  0  0  0  0  0  0  0  0  0
    2.0550    4.0872   -0.0121 O   0  0  0  0  0  0  0  0  0  0  0  0
    3.1436    5.5871   -1.5807 C   0  0  0  0  0  0  0  0  0  0  0  0
    2.9485    6.5352   -2.6640 O   0  0  0  0  0  0  0  0  0  0  0  0
   -0.9340   -1.2976   -0.1677 C   0  0  2  0  0  0  0  0  0  0  0  0
   -0.5679   -2.7278   -0.1391 N   0  0  0  0  0  0  0  0  0  0  0  0
   -0.3051   -0.6118   -1.3831 C   0  0  0  0  0  0  0  0  0  0  0  0
   -0.5606    0.8902   -1.3439 C   0  0  2  0  0  0  0  0  0  0  0  0
   -0.0397    1.5250   -2.5611 N   0  0  0  0  0  0  0  0  0  0  0  0
    0.0933    1.4642   -0.0654 C   0  0  2  0  0  0  0  0  0  0  0  0
   -0.6290    0.9153    1.1231 C   0  0  2  0  0  0  0  0  0  0  0  0
   -0.0427    1.4848    2.2791 O   0  0  0  0  0  0  0  0  0  0  0  0
   -0.5120   -0.5971    1.1376 C   0  0  1  0  0  0  0  0  0  0  0  0
   -1.2496   -1.1771    2.1971 O   0  0  0  0  0  0  0  0  0  0  0  0
   -0.4984    1.0269    3.5478 C   0  0  1  0  0  0  0  0  0  0  0  0
    0.6650    1.1483    4.5342 C   0  0  2  0  0  0  0  0  0  0  0  0
    0.6192    0.0680    5.4473 O   0  0  0  0  0  0  0  0  0  0  0  0
    0.3940    2.5042    5.1999 C   0  0  2  0  0  0  0  0  0  0  0  0
    1.0384    2.6371    6.4671 O   0  0  0  0  0  0  0  0  0  0  0  0
   -1.1383    2.4708    5.2566 C   0  0  2  0  0  0  0  0  0  0  0  0
   -1.5290    1.8835    4.0234 O   0  0  0  0  0  0  0  0  0  0  0  0
   -1.7971    3.8494    5.3824 C   0  0  0  0  0  0  0  0  0  0  0  0
   -3.1942    3.7442    5.5562 O   0  0  0  0  0  0  0  0  0  0  0  0
    0.7300    3.8406    7.1675 C   0  0  2  0  0  0  0  0  0  0  0  0
    1.9300    4.3522    7.9788 C   0  0  2  0  0  0  0  0  0  0  0  0
    3.1130    4.5219    7.1186 N   0  0  0  0  0  0  0  0  0  0  0  0
    2.2284    3.4287    9.1695 C   0  0  1  0  0  0  0  0  0  0  0  0
    3.2821    3.9932    9.9257 O   0  0  0  0  0  0  0  0  0  0  0  0
    0.9581    3.3184   10.0296 C   0  0  2  0  0  0  0  0  0  0  0  0
    1.1664    2.4412   11.1212 O   0  0  0  0  0  0  0  0  0  0  0  0
   -0.2435    2.8498    9.1833 C   0  0  1  0  0  0  0  0  0  0  0  0
   -0.4035    3.6532    8.0119 O   0  0  0  0  0  0  0  0  0  0  0  0
   -0.2059    1.3510    8.8502 C   0  0  0  0  0  0  0  0  0  0  0  0
   -1.5104    0.8779    8.3594 N   0  0  0  0  0  0  0  0  0  0  0  0
  1  3  1  0  0  0  0
  1  2  1  6  0  0  0
  3  4  1  6  0  0  0
  5  6  1  1  0  0  0
  5  3  1  0  0  0  0
  7  9  1  0  0  0  0
  7  5  1  0  0  0  0
  7  8  1  6  0  0  0
  9 10  1  0  0  0  0
  9 11  1  1  0  0  0
 10  1  1  0  0  0  0
 11 12  1  0  0  0  0
 13 14  1  1  0  0  0
 13 21  1  0  0  0  0
 15 13  1  0  0  0  0
 16 15  1  0  0  0  0
 16 18  1  0  0  0  0
 16 17  1  6  0  0  0
 18  2  1  6  0  0  0
 18 19  1  0  0  0  0
 19 21  1  0  0  0  0
 19 20  1  1  0  0  0
 21 22  1  1  0  0  0
 23 20  1  6  0  0  0
 23 29  1  0  0  0  0
 23 24  1  0  0  0  0
 24 26  1  0  0  0  0
 24 25  1  1  0  0  0
 26 27  1  1  0  0  0
 28 26  1  0  0  0  0
 28 30  1  6  0  0  0
 29 28  1  0  0  0  0
 30 31  1  0  0  0  0
 32 27  1  1  0  0  0
 32 40  1  0  0  0  0
 32 33  1  0  0  0  0
 33 35  1  0  0  0  0
 33 34  1  6  0  0  0
 35 37  1  0  0  0  0
 35 36  1  1  0  0  0
 37 38  1  1  0  0  0
 39 37  1  0  0  0  0
 39 41  1  6  0  0  0
 40 39  1  0  0  0  0
 42 41  1  0  0  0  0
M  END
>  <CHROM.1>
-160.96973811,-135.51789804,37.93177782,-162.25674009,60.45592550,-60.03990783
-63.42884387,37.96486615,-61.90013968,-175.09667371,150.15539169,-69.28230639
169.17495025,-175.39928582,-145.72632606,-174.44210115,75.74881372,24.49854525
-55.12438825,-56.87633527,165.17518713,-150.14424266,0.27930314,2.79772658
3.39330924,-1.61552606,1.22021259,1.65172706

>  <Name>
lig.pdb

>  <RI>
0

>  <Rbt.Current_Directory>
/home/itssahil/PROJECTS/Mol_Feturizer/New_Systems/rnas/2mxs

>  <Rbt.Executable>
rbdock ($Id: //depot/dev/client3/rdock/2013.1/src/exe/rbdock.cxx#4 $)

>  <Rbt.Library>
libRbt.so (2013.1, Build901 2013/11/27)

>  <Rbt.Parameter_File>
/export/apps/rDock/src/rDock_2013.1_src/data/scripts/dock_solv.prm

>  <Rbt.Receptor>
prm/pocket_docking_3.prm

>  <SCORE>
-42.61

>  <SCORE.INTER>
-42.7126

>  <SCORE.INTER.CONST>
1

>  <SCORE.INTER.POLAR>
-5.58496

>  <SCORE.INTER.ROT>
9

>  <SCORE.INTER.SOLV>
16.5972

>  <SCORE.INTER.VDW>
-24.9909

>  <SCORE.INTER.norm>
-1.01697

>  <SCORE.INTRA>
0.10263

>  <SCORE.INTRA.DIHEDRAL>
-2.70066

>  <SCORE.INTRA.DIHEDRAL.0>
30.1357

>  <SCORE.INTRA.POLAR>
-0.419058

>  <SCORE.INTRA.POLAR.0>
-0.631696

>  <SCORE.INTRA.REPUL>
0

>  <SCORE.INTRA.REPUL.0>
0

>  <SCORE.INTRA.SOLV>
0.196997

>  <SCORE.INTRA.SOLV.lig_0>
-55.904

>  <SCORE.INTRA.VDW>
2.77926

>  <SCORE.INTRA.VDW.0>
-8.21197

>  <SCORE.INTRA.norm>
0.00244358

>  <SCORE.RESTR>
0

>  <SCORE.RESTR.CAVITY>
0

>  <SCORE.RESTR.norm>
0

>  <SCORE.SYSTEM>
0

>  <SCORE.SYSTEM.CONST>
0

>  <SCORE.SYSTEM.DIHEDRAL>
0

>  <SCORE.SYSTEM.SOLV>
0

>  <SCORE.SYSTEM.norm>
0

>  <SCORE.heavy>
42

>  <SCORE.norm>
-1.01452

>  <RMSD>
2.324

$$$$
lig.pdb
 OpenBabel11021811453D
libRbt.so/2013.1/901 2013/11/27
 42 45  0  0  0  0  0  0  0  0999 V2000
    0.1525    3.9639    1.1186 C   0  0  2  0  0  0  0  0  0  0  0  0
   -0.7960    3.0955    0.4960 O   0  0  0  0  0  0  0  0  0  0  0  0
   -0.1630    5.4341    0.8041 C   0  0  2  0  0  0  0  0  0  0  0  0
   -1.5497    5.7691    1.1772 N   0  0  0  0  0  0  0  0  0  0  0  0
    0.1013    5.7492   -0.6738 C   0  0  1  0  0  0  0  0  0  0  0  0
   -0.0517    7.1386   -0.8925 O   0  0  0  0  0  0  0  0  0  0  0  0
    1.5266    5.3270   -1.0613 C   0  0  2  0  0  0  0  0  0  0  0  0
    1.6967    5.4783   -2.4576 O   0  0  0  0  0  0  0  0  0  0  0  0
    1.8141    3.8673   -0.6554 C   0  0  2  0  0  0  0  0  0  0  0  0
    1.4791    3.6365    0.7126 O   0  0  0  0  0  0  0  0  0  0  0  0
    3.3141    3.5952   -0.8768 C   0  0  0  0  0  0  0  0  0  0  0  0
    3.6628    2.2082   -0.6215 O   0  0  0  0  0  0  0  0  0  0  0  0
   -0.7846   -1.1898    0.0866 C   0  0  2  0  0  0  0  0  0  0  0  0
   -0.1147   -2.4804   -0.1700 N   0  0  0  0  0  0  0  0  0  0  0  0
   -0.6550   -0.2717   -1.1314 C   0  0  0  0  0  0  0  0  0  0  0  0
   -1.2195    1.1103   -0.8246 C   0  0  2  0  0  0  0  0  0  0  0  0
   -1.1807    1.9522   -2.0269 N   0  0  0  0  0  0  0  0  0  0  0  0
   -0.4061    1.7234    0.3390 C   0  0  2  0  0  0  0  0  0  0  0  0
   -0.6610    0.9163    1.5716 C   0  0  2  0  0  0  0  0  0  0  0  0
    0.0587    1.5181    2.6320 O   0  0  0  0  0  0  0  0  0  0  0  0
   -0.2108   -0.5148    1.3466 C   0  0  1  0  0  0  0  0  0  0  0  0
   -0.5059   -1.3452    2.4540 O   0  0  0  0  0  0  0  0  0  0  0  0
   -0.2909    1.1515    3.9625 C   0  0  1  0  0  0  0  0  0  0  0  0
    0.7533    1.7560    4.9037 C   0  0  2  0  0  0  0  0  0  0  0  0
    0.9872    0.8646    5.9777 O   0  0  0  0  0  0  0  0  0  0  0  0
    0.0812    3.0622    5.3479 C   0  0  2  0  0  0  0  0  0  0  0  0
    0.6153    3.5713    6.5704 O   0  0  0  0  0  0  0  0  0  0  0  0
   -1.3780    2.5968    5.4267 C   0  0  2  0  0  0  0  0  0  0  0  0
   -1.5401    1.7371    4.3073 O   0  0  0  0  0  0  0  0  0  0  0  0
   -2.4088    3.7283    5.3388 C   0  0  0  0  0  0  0  0  0  0  0  0
   -2.4443    4.3004    4.0486 O   0  0  0  0  0  0  0  0  0  0  0  0
    0.5593    4.9907    6.6980 C   0  0  2  0  0  0  0  0  0  0  0  0
    1.7057    5.5312    7.5660 C   0  0  2  0  0  0  0  0  0  0  0  0
    3.0115    5.0919    7.0464 N   0  0  0  0  0  0  0  0  0  0  0  0
    1.5228    5.1313    9.0378 C   0  0  1  0  0  0  0  0  0  0  0  0
    2.5557    5.7265    9.7992 O   0  0  0  0  0  0  0  0  0  0  0  0
    0.1518    5.6413    9.5135 C   0  0  2  0  0  0  0  0  0  0  0  0
   -0.0863    5.2607   10.8562 O   0  0  0  0  0  0  0  0  0  0  0  0
   -0.9778    5.1251    8.5986 C   0  0  1  0  0  0  0  0  0  0  0  0
   -0.7025    5.3977    7.2227 O   0  0  0  0  0  0  0  0  0  0  0  0
   -1.3232    3.6471    8.8326 C   0  0  0  0  0  0  0  0  0  0  0  0
   -1.8695    3.4313   10.1822 N   0  0  0  0  0  0  0  0  0  0  0  0
  1  3  1  0  0  0  0
  1  2  1  6  0  0  0
  3  4  1  6  0  0  0
  5  6  1  1  0  0  0
  5  3  1  0  0  0  0
  7  9  1  0  0  0  0
  7  5  1  0  0  0  0
  7  8  1  6  0  0  0
  9 10  1  0  0  0  0
  9 11  1  1  0  0  0
 10  1  1  0  0  0  0
 11 12  1  0  0  0  0
 13 14  1  6  0  0  0
 13 21  1  0  0  0  0
 15 13  1  0  0  0  0
 16 15  1  0  0  0  0
 16 18  1  0  0  0  0
 16 17  1  6  0  0  0
 18  2  1  1  0  0  0
 18 19  1  0  0  0  0
 19 21  1  0  0  0  0
 19 20  1  1  0  0  0
 21 22  1  1  0  0  0
 23 20  1  6  0  0  0
 23 29  1  0  0  0  0
 23 24  1  0  0  0  0
 24 26  1  0  0  0  0
 24 25  1  1  0  0  0
 26 27  1  1  0  0  0
 28 26  1  0  0  0  0
 28 30  1  6  0  0  0
 29 28  1  0  0  0  0
 30 31  1  0  0  0  0
 32 27  1  1  0  0  0
 32 40  1  0  0  0  0
 32 33  1  0  0  0  0
 33 35  1  0  0  0  0
 33 34  1  6  0  0  0
 35 37  1  0  0  0  0
 35 36  1  1  0  0  0
 37 38  1  1  0  0  0
 39 37  1  0  0  0  0
 39 41  1  6  0  0  0
 40 39  1  0  0  0  0
 42 41  1  0  0  0  0
M  END
>  <CHROM.1>
-156.19672837,160.80033984,-156.05269367,-170.75382766,171.52468707,76.11379471
-175.42441161,140.87012558,-64.02226084,163.95314278,171.39595517,76.80964836
-63.14172744,150.40302247,-150.35907525,69.39114237,49.31061706,49.00048743
64.41964412,64.47008904,64.55075841,-50.79617234,0.11497684,3.20516297,3.40534803
-1.50821202,1.28535670,1.26632374

>  <Name>
lig.pdb

>  <RI>
0

>  <Rbt.Current_Directory>
/home/itssahil/PROJECTS/Mol_Feturizer/New_Systems/rnas/2mxs

>  <Rbt.Executable>
rbdock ($Id: //depot/dev/client3/rdock/2013.1/src/exe/rbdock.cxx#4 $)

>  <Rbt.Library>
libRbt.so (2013.1, Build901 2013/11/27)

>  <Rbt.Parameter_File>
/export/apps/rDock/src/rDock_2013.1_src/data/scripts/dock_solv.prm

>  <Rbt.Receptor>
prm/pocket_docking_3.prm

>  <SCORE>
-41.3774

>  <SCORE.INTER>
-39.0285

>  <SCORE.INTER.CONST>
1

>  <SCORE.INTER.POLAR>
-5.82152

>  <SCORE.INTER.ROT>
9

>  <SCORE.INTER.SOLV>
16.8369

>  <SCORE.INTER.VDW>
-21.8262

>  <SCORE.INTER.norm>
-0.92925

>  <SCORE.INTRA>
-2.34891

>  <SCORE.INTRA.DIHEDRAL>
-7.89868

>  <SCORE.INTRA.DIHEDRAL.0>
30.1357

>  <SCORE.INTRA.POLAR>
-0.22925

>  <SCORE.INTRA.POLAR.0>
-0.631696

>  <SCORE.INTRA.REPUL>
0

>  <SCORE.INTRA.REPUL.0>
0

>  <SCORE.INTRA.SOLV>
-0.268157

>  <SCORE.INTRA.SOLV.lig_0>
-55.904

>  <SCORE.INTRA.VDW>
2.51396

>  <SCORE.INTRA.VDW.0>
-8.21197

>  <SCORE.INTRA.norm>
-0.0559263

>  <SCORE.RESTR>
0

>  <SCORE.RESTR.CAVITY>
0

>  <SCORE.RESTR.norm>
0

>  <SCORE.SYSTEM>
0

>  <SCORE.SYSTEM.CONST>
0

>  <SCORE.SYSTEM.DIHEDRAL>
0

>  <SCORE.SYSTEM.SOLV>
0

>  <SCORE.SYSTEM.norm>
0

>  <SCORE.heavy>
42

>  <SCORE.norm>
-0.985176

>  <RMSD>
2.332

$$$$
lig.pdb
 OpenBabel11021811453D
libRbt.so/2013.1/901 2013/11/27
 42 45  0  0  0  0  0  0  0  0999 V2000
    0.3622    3.8273    0.3418 C   0  0  2  0  0  0  0  0  0  0  0  0
   -0.5252    3.0524   -0.4666 O   0  0  0  0  0  0  0  0  0  0  0  0
    0.0406    5.3249    0.2263 C   0  0  2  0  0  0  0  0  0  0  0  0
   -1.3743    5.5885    0.5470 N   0  0  0  0  0  0  0  0  0  0  0  0
    0.3982    5.8582   -1.1670 C   0  0  1  0  0  0  0  0  0  0  0  0
    0.2338    7.2633   -1.1885 O   0  0  0  0  0  0  0  0  0  0  0  0
    1.8543    5.5109   -1.5121 C   0  0  2  0  0  0  0  0  0  0  0  0
    2.1155    5.8693   -2.8556 O   0  0  0  0  0  0  0  0  0  0  0  0
    2.1415    4.0097   -1.3069 C   0  0  2  0  0  0  0  0  0  0  0  0
    1.7192    3.5755   -0.0145 O   0  0  0  0  0  0  0  0  0  0  0  0
    3.6580    3.7869   -1.4608 C   0  0  0  0  0  0  0  0  0  0  0  0
    4.4159    5.0068   -1.2427 O   0  0  0  0  0  0  0  0  0  0  0  0
   -1.7224   -1.0736   -0.1939 C   0  0  2  0  0  0  0  0  0  0  0  0
   -1.4735   -2.4920    0.1322 N   0  0  0  0  0  0  0  0  0  0  0  0
   -0.7453   -0.5960   -1.2711 C   0  0  0  0  0  0  0  0  0  0  0  0
   -0.9015    0.9008   -1.5122 C   0  0  2  0  0  0  0  0  0  0  0  0
   -0.0311    1.3304   -2.6139 N   0  0  0  0  0  0  0  0  0  0  0  0
   -0.5794    1.6443   -0.1951 C   0  0  2  0  0  0  0  0  0  0  0  0
   -1.6299    1.3005    0.8118 C   0  0  2  0  0  0  0  0  0  0  0  0
   -1.3400    2.0228    1.9945 O   0  0  0  0  0  0  0  0  0  0  0  0
   -1.6219   -0.1949    1.0671 C   0  0  1  0  0  0  0  0  0  0  0  0
   -2.6544   -0.5885    1.9515 O   0  0  0  0  0  0  0  0  0  0  0  0
   -2.3027    1.9922    3.0429 C   0  0  1  0  0  0  0  0  0  0  0  0
   -1.5515    2.1077    4.3709 C   0  0  2  0  0  0  0  0  0  0  0  0
   -2.2021    1.3160    5.3471 O   0  0  0  0  0  0  0  0  0  0  0  0
   -1.6357    3.6108    4.6688 C   0  0  2  0  0  0  0  0  0  0  0  0
   -1.4420    3.9127    6.0508 O   0  0  0  0  0  0  0  0  0  0  0  0
   -3.0423    3.9091    4.1351 C   0  0  2  0  0  0  0  0  0  0  0  0
   -3.1473    3.1325    2.9501 O   0  0  0  0  0  0  0  0  0  0  0  0
   -3.2886    5.3821    3.7886 C   0  0  0  0  0  0  0  0  0  0  0  0
   -4.5860    5.5844    3.2699 O   0  0  0  0  0  0  0  0  0  0  0  0
   -1.4702    5.3036    6.3650 C   0  0  2  0  0  0  0  0  0  0  0  0
   -0.1700    6.0089    5.9500 C   0  0  2  0  0  0  0  0  0  0  0  0
    0.1156    5.7886    4.5224 N   0  0  0  0  0  0  0  0  0  0  0  0
    1.0064    5.5675    6.8335 C   0  0  1  0  0  0  0  0  0  0  0  0
    2.1522    6.3099    6.4637 O   0  0  0  0  0  0  0  0  0  0  0  0
    0.6439    5.8477    8.3018 C   0  0  2  0  0  0  0  0  0  0  0  0
    1.6806    5.4182    9.1650 O   0  0  0  0  0  0  0  0  0  0  0  0
   -0.6888    5.1698    8.6812 C   0  0  1  0  0  0  0  0  0  0  0  0
   -1.7259    5.4990    7.7541 O   0  0  0  0  0  0  0  0  0  0  0  0
   -0.5634    3.6529    8.8866 C   0  0  0  0  0  0  0  0  0  0  0  0
    0.2519    3.3379   10.0709 N   0  0  0  0  0  0  0  0  0  0  0  0
  1  3  1  0  0  0  0
  1  2  1  6  0  0  0
  3  4  1  6  0  0  0
  5  6  1  1  0  0  0
  5  3  1  0  0  0  0
  7  9  1  0  0  0  0
  7  5  1  0  0  0  0
  7  8  1  6  0  0  0
  9 10  1  0  0  0  0
  9 11  1  1  0  0  0
 10  1  1  0  0  0  0
 11 12  1  0  0  0  0
 13 14  1  1  0  0  0
 13 21  1  0  0  0  0
 15 13  1  0  0  0  0
 16 15  1  0  0  0  0
 16 18  1  0  0  0  0
 16 17  1  6  0  0  0
 18  2  1  6  0  0  0
 18 19  1  0  0  0  0
 19 21  1  0  0  0  0
 19 20  1  1  0  0  0
 21 22  1  1  0  0  0
 23 20  1  6  0  0  0
 23 29  1  0  0  0  0
 23 24  1  0  0  0  0
 24 26  1  0  0  0  0
 24 25  1  1  0  0  0
 26 27  1  1  0  0  0
 28 26  1  0  0  0  0
 28 30  1  6  0  0  0
 29 28  1  0  0  0  0
 30 31  1  0  0  0  0
 32 27  1  1  0  0  0
 32 40  1  0  0  0  0
 32 33  1  0  0  0  0
 33 35  1  0  0  0  0
 33 34  1  6  0  0  0
 35 37  1  0  0  0  0
 35 36  1  6  0  0  0
 37 38  1  1  0  0  0
 39 37  1  0  0  0  0
 39 41  1  6  0  0  0
 40 39  1  0  0  0  0
 42 41  1  0  0  0  0
M  END
>  <CHROM.1>
-149.39390666,-164.09874672,-47.92924499,-63.62592533,58.03978165,-177.98165529
21.75556642,179.21094114,-170.50959768,172.00803562,148.93019711,-57.45695639
-160.23431528,178.10669957,-75.98714619,178.39334658,178.97663090,149.35830486
-67.47934257,66.30846412,67.22550076,-169.50546004,-0.45171309,3.58645016
2.63963050,-1.40579955,0.95439975,1.19366073

>  <Name>
lig.pdb

>  <RI>
0

>  <Rbt.Current_Directory>
/home/itssahil/PROJECTS/Mol_Feturizer/New_Systems/rnas/2mxs

>  <Rbt.Executable>
rbdock ($Id: //depot/dev/client3/rdock/2013.1/src/exe/rbdock.cxx#4 $)

>  <Rbt.Library>
libRbt.so (2013.1, Build901 2013/11/27)

>  <Rbt.Parameter_File>
/export/apps/rDock/src/rDock_2013.1_src/data/scripts/dock_solv.prm

>  <Rbt.Receptor>
prm/pocket_docking_3.prm

>  <SCORE>
-44.2216

>  <SCORE.INTER>
-43.5206

>  <SCORE.INTER.CONST>
1

>  <SCORE.INTER.POLAR>
-6.36206

>  <SCORE.INTER.ROT>
9

>  <SCORE.INTER.SOLV>
18.9019

>  <SCORE.INTER.VDW>
-23.7075

>  <SCORE.INTER.norm>
-1.03621

>  <SCORE.INTRA>
-1.3043

>  <SCORE.INTRA.DIHEDRAL>
-10.2725

>  <SCORE.INTRA.DIHEDRAL.0>
30.1357

>  <SCORE.INTRA.POLAR>
-0.190264

>  <SCORE.INTRA.POLAR.0>
-0.631696

>  <SCORE.INTRA.REPUL>
0.0658475

>  <SCORE.INTRA.REPUL.0>
0

>  <SCORE.INTRA.SOLV>
-0.33211

>  <SCORE.INTRA.SOLV.lig_0>
-55.904

>  <SCORE.INTRA.VDW>
4.31569

>  <SCORE.INTRA.VDW.0>
-8.21197

>  <SCORE.INTRA.norm>
-0.0310547

>  <SCORE.RESTR>
0.603328

>  <SCORE.RESTR.CAVITY>
0.603328

>  <SCORE.RESTR.norm>
0.014365

>  <SCORE.SYSTEM>
0

>  <SCORE.SYSTEM.CONST>
0

>  <SCORE.SYSTEM.DIHEDRAL>
0

>  <SCORE.SYSTEM.SOLV>
0

>  <SCORE.SYSTEM.norm>
0

>  <SCORE.heavy>
42

>  <SCORE.norm>
-1.0529

>  <RMSD>
2.337

$$$$
lig.pdb
 OpenBabel11021811453D
libRbt.so/2013.1/901 2013/11/27
 42 45  0  0  0  0  0  0  0  0999 V2000
    0.3338    4.2887    1.1352 C   0  0  2  0  0  0  0  0  0  0  0  0
   -0.6722    3.5628    0.4263 O   0  0  0  0  0  0  0  0  0  0  0  0
    0.1162    5.8029    0.9961 C   0  0  2  0  0  0  0  0  0  0  0  0
   -1.2440    6.1831    1.4200 N   0  0  0  0  0  0  0  0  0  0  0  0
    0.3969    6.2694   -0.4381 C   0  0  1  0  0  0  0  0  0  0  0  0
    0.3362    7.6818   -0.4930 O   0  0  0  0  0  0  0  0  0  0  0  0
    1.7897    5.8020   -0.8868 C   0  0  2  0  0  0  0  0  0  0  0  0
    1.9657    6.1028   -2.2579 O   0  0  0  0  0  0  0  0  0  0  0  0
    1.9803    4.2892   -0.6555 C   0  0  2  0  0  0  0  0  0  0  0  0
    1.6344    3.9238    0.6801 O   0  0  0  0  0  0  0  0  0  0  0  0
    3.4582    3.9463   -0.9226 C   0  0  0  0  0  0  0  0  0  0  0  0
    3.6792    2.5139   -1.0201 O   0  0  0  0  0  0  0  0  0  0  0  0
   -1.6118   -0.6375    0.5050 C   0  0  2  0  0  0  0  0  0  0  0  0
   -1.2352   -2.0652    0.5072 N   0  0  0  0  0  0  0  0  0  0  0  0
   -1.1081    0.0435   -0.7701 C   0  0  0  0  0  0  0  0  0  0  0  0
   -1.3686    1.5442   -0.7160 C   0  0  2  0  0  0  0  0  0  0  0  0
   -0.9723    2.1735   -1.9820 N   0  0  0  0  0  0  0  0  0  0  0  0
   -0.5977    2.1311    0.4894 C   0  0  2  0  0  0  0  0  0  0  0  0
   -1.1979    1.5863    1.7458 C   0  0  2  0  0  0  0  0  0  0  0  0
   -0.5062    2.1673    2.8359 O   0  0  0  0  0  0  0  0  0  0  0  0
   -1.0701    0.0747    1.7587 C   0  0  1  0  0  0  0  0  0  0  0  0
   -1.6977   -0.5022    2.8884 O   0  0  0  0  0  0  0  0  0  0  0  0
   -1.0694    2.0167    4.1348 C   0  0  1  0  0  0  0  0  0  0  0  0
    0.0242    2.3307    5.1579 C   0  0  2  0  0  0  0  0  0  0  0  0
   -0.1296    1.4847    6.2819 O   0  0  0  0  0  0  0  0  0  0  0  0
   -0.2402    3.8073    5.4818 C   0  0  2  0  0  0  0  0  0  0  0  0
    0.3164    4.2072    6.7344 O   0  0  0  0  0  0  0  0  0  0  0  0
   -1.7727    3.8218    5.4237 C   0  0  2  0  0  0  0  0  0  0  0  0
   -2.0968    2.9812    4.3252 O   0  0  0  0  0  0  0  0  0  0  0  0
   -2.3840    5.2078    5.1874 C   0  0  0  0  0  0  0  0  0  0  0  0
   -3.7942    5.1705    5.2428 O   0  0  0  0  0  0  0  0  0  0  0  0
   -0.1913    5.4385    7.2444 C   0  0  2  0  0  0  0  0  0  0  0  0
    0.8460    6.5675    7.1472 C   0  0  2  0  0  0  0  0  0  0  0  0
    1.3299    6.7199    5.7649 N   0  0  0  0  0  0  0  0  0  0  0  0
    2.0066    6.3399    8.1274 C   0  0  1  0  0  0  0  0  0  0  0  0
    2.8822    7.4485    8.0557 O   0  0  0  0  0  0  0  0  0  0  0  0
    1.4269    6.2126    9.5464 C   0  0  2  0  0  0  0  0  0  0  0  0
    2.4542    5.9580   10.4867 O   0  0  0  0  0  0  0  0  0  0  0  0
    0.3537    5.1062    9.6078 C   0  0  1  0  0  0  0  0  0  0  0  0
   -0.6350    5.2792    8.5901 O   0  0  0  0  0  0  0  0  0  0  0  0
    0.9412    3.6872    9.6016 C   0  0  0  0  0  0  0  0  0  0  0  0
    1.9573    3.5323    8.5481 N   0  0  0  0  0  0  0  0  0  0  0  0
  1  3  1  0  0  0  0
  1  2  1  6  0  0  0
  3  4  1  6  0  0  0
  5  6  1  1  0  0  0
  5  3  1  0  0  0  0
  7  9  1  0  0  0  0
  7  5  1  0  0  0  0
  7  8  1  6  0  0  0
  9 10  1  0  0  0  0
  9 11  1  1  0  0  0
 10  1  1  0  0  0  0
 11 12  1  0  0  0  0
 13 14  1  6  0  0  0
 13 21  1  0  0  0  0
 15 13  1  0  0  0  0
 16 15  1  0  0  0  0
 16 18  1  0  0  0  0
 16 17  1  6  0  0  0
 18  2  1  1  0  0  0
 18 19  1  0  0  0  0
 19 21  1  0  0  0  0
 19 20  1  1  0  0  0
 21 22  1  1  0  0  0
 23 20  1  6  0  0  0
 23 29  1  0  0  0  0
 23 24  1  0  0  0  0
 24 26  1  0  0  0  0
 24 25  1  1  0  0  0
 26 27  1  1  0  0  0
 28 26  1  0  0  0  0
 28 30  1  6  0  0  0
 29 28  1  0  0  0  0
 30 31  1  0  0  0  0
 32 27  1  1  0  0  0
 32 40  1  0  0  0  0
 32 33  1  0  0  0  0
 33 35  1  0  0  0  0
 33 34  1  6  0  0  0
 35 37  1  0  0  0  0
 35 36  1  1  0  0  0
 37 38  1  1  0  0  0
 39 37  1  0  0  0  0
 39 41  1  6  0  0  0
 40 39  1  0  0  0  0
 42 41  1  0  0  0  0
M  END
>  <CHROM.1>
-158.37609787,-179.14870937,-0.55624513,48.84732208,60.13214441,178.85252032
-167.30907845,49.56586578,57.85344494,167.44625048,163.03554428,160.81717243
56.31242690,-164.12063446,-107.85075433,-175.64127860,-177.65549434,171.88305806
-178.91318508,-61.81144528,-47.49770124,-168.96593643,0.13025042,3.82452324
3.47343722,-1.74249246,1.09953088,1.42831900

>  <Name>
lig.pdb

>  <RI>
0

>  <Rbt.Current_Directory>
/home/itssahil/PROJECTS/Mol_Feturizer/New_Systems/rnas/2mxs

>  <Rbt.Executable>
rbdock ($Id: //depot/dev/client3/rdock/2013.1/src/exe/rbdock.cxx#4 $)

>  <Rbt.Library>
libRbt.so (2013.1, Build901 2013/11/27)

>  <Rbt.Parameter_File>
/export/apps/rDock/src/rDock_2013.1_src/data/scripts/dock_solv.prm

>  <Rbt.Receptor>
prm/pocket_docking_4.prm

>  <SCORE>
-32.9264

>  <SCORE.INTER>
-32.7143

>  <SCORE.INTER.CONST>
1

>  <SCORE.INTER.POLAR>
-4.225

>  <SCORE.INTER.ROT>
9

>  <SCORE.INTER.SOLV>
16.3409

>  <SCORE.INTER.VDW>
-22.7732

>  <SCORE.INTER.norm>
-0.778912

>  <SCORE.INTRA>
-0.212081

>  <SCORE.INTRA.DIHEDRAL>
-9.8619

>  <SCORE.INTRA.DIHEDRAL.0>
30.1357

>  <SCORE.INTRA.POLAR>
-0.268994

>  <SCORE.INTRA.POLAR.0>
-0.631696

>  <SCORE.INTRA.REPUL>
0.0429203

>  <SCORE.INTRA.REPUL.0>
0

>  <SCORE.INTRA.SOLV>
-0.515029

>  <SCORE.INTRA.SOLV.lig_0>
-55.904

>  <SCORE.INTRA.VDW>
5.67636

>  <SCORE.INTRA.VDW.0>
-8.21197

>  <SCORE.INTRA.norm>
-0.00504955

>  <SCORE.RESTR>
0

>  <SCORE.RESTR.CAVITY>
0

>  <SCORE.RESTR.norm>
0

>  <SCORE.SYSTEM>
0

>  <SCORE.SYSTEM.CONST>
0

>  <SCORE.SYSTEM.DIHEDRAL>
0

>  <SCORE.SYSTEM.SOLV>
0

>  <SCORE.SYSTEM.norm>
0

>  <SCORE.heavy>
42

>  <SCORE.norm>
-0.783962

>  <RMSD>
2.371

$$$$
lig.pdb
 OpenBabel11021811453D
libRbt.so/2013.1/901 2013/11/27
 42 45  0  0  0  0  0  0  0  0999 V2000
    0.4274    4.3738    1.1034 C   0  0  2  0  0  0  0  0  0  0  0  0
   -0.5781    3.4998    0.5869 O   0  0  0  0  0  0  0  0  0  0  0  0
    0.0902    5.8399    0.7926 C   0  0  2  0  0  0  0  0  0  0  0  0
   -1.2547    6.1895    1.2858 N   0  0  0  0  0  0  0  0  0  0  0  0
    0.2182    6.1271   -0.7090 C   0  0  1  0  0  0  0  0  0  0  0  0
    0.0513    7.5132   -0.9378 O   0  0  0  0  0  0  0  0  0  0  0  0
    1.5998    5.6899   -1.2186 C   0  0  2  0  0  0  0  0  0  0  0  0
    1.6408    5.8153   -2.6272 O   0  0  0  0  0  0  0  0  0  0  0  0
    1.9175    4.2359   -0.8144 C   0  0  2  0  0  0  0  0  0  0  0  0
    1.7094    4.0315    0.5827 O   0  0  0  0  0  0  0  0  0  0  0  0
    3.3896    3.9512   -1.1683 C   0  0  0  0  0  0  0  0  0  0  0  0
    3.7208    2.5425   -1.0418 O   0  0  0  0  0  0  0  0  0  0  0  0
   -0.9360   -0.7848    0.7989 C   0  0  2  0  0  0  0  0  0  0  0  0
   -0.3727   -2.1496    0.7850 N   0  0  0  0  0  0  0  0  0  0  0  0
   -0.6398   -0.0735   -0.5238 C   0  0  0  0  0  0  0  0  0  0  0  0
   -1.0933    1.3803   -0.4649 C   0  0  2  0  0  0  0  0  0  0  0  0
   -0.8953    2.0263   -1.7685 N   0  0  0  0  0  0  0  0  0  0  0  0
   -0.3073    2.0925    0.6604 C   0  0  2  0  0  0  0  0  0  0  0  0
   -0.7187    1.5030    1.9714 C   0  0  2  0  0  0  0  0  0  0  0  0
   -0.0198    2.1963    2.9890 O   0  0  0  0  0  0  0  0  0  0  0  0
   -0.3888    0.0224    1.9911 C   0  0  1  0  0  0  0  0  0  0  0  0
   -0.8339   -0.6055    3.1788 O   0  0  0  0  0  0  0  0  0  0  0  0
   -0.5635    2.1675    4.3045 C   0  0  1  0  0  0  0  0  0  0  0  0
    0.4418    2.8415    5.2407 C   0  0  2  0  0  0  0  0  0  0  0  0
    0.4288    2.1833    6.4935 O   0  0  0  0  0  0  0  0  0  0  0  0
   -0.0895    4.2792    5.3165 C   0  0  2  0  0  0  0  0  0  0  0  0
    0.3692    4.9783    6.4740 O   0  0  0  0  0  0  0  0  0  0  0  0
   -1.5984    4.0071    5.2840 C   0  0  2  0  0  0  0  0  0  0  0  0
   -1.7508    2.9489    4.3484 O   0  0  0  0  0  0  0  0  0  0  0  0
   -2.4471    5.2001    4.8290 C   0  0  0  0  0  0  0  0  0  0  0  0
   -2.4072    6.2545    5.7670 O   0  0  0  0  0  0  0  0  0  0  0  0
    1.5265    5.7844    6.2619 C   0  0  2  0  0  0  0  0  0  0  0  0
    2.6003    5.5338    7.3315 C   0  0  2  0  0  0  0  0  0  0  0  0
    2.9492    4.1050    7.4024 N   0  0  0  0  0  0  0  0  0  0  0  0
    2.1564    6.0727    8.6997 C   0  0  1  0  0  0  0  0  0  0  0  0
    3.2145    5.8927    9.6209 O   0  0  0  0  0  0  0  0  0  0  0  0
    1.8313    7.5688    8.5509 C   0  0  2  0  0  0  0  0  0  0  0  0
    1.3742    8.1069    9.7780 O   0  0  0  0  0  0  0  0  0  0  0  0
    0.7874    7.7996    7.4389 C   0  0  1  0  0  0  0  0  0  0  0  0
    1.1746    7.1654    6.2178 O   0  0  0  0  0  0  0  0  0  0  0  0
   -0.6407    7.4180    7.8558 C   0  0  0  0  0  0  0  0  0  0  0  0
   -1.1300    8.2799    8.9439 N   0  0  0  0  0  0  0  0  0  0  0  0
  1  3  1  0  0  0  0
  1  2  1  6  0  0  0
  3  4  1  6  0  0  0
  5  6  1  1  0  0  0
  5  3  1  0  0  0  0
  7  9  1  0  0  0  0
  7  5  1  0  0  0  0
  7  8  1  6  0  0  0
  9 10  1  0  0  0  0
  9 11  1  1  0  0  0
 10  1  1  0  0  0  0
 11 12  1  0  0  0  0
 13 14  1  6  0  0  0
 13 21  1  0  0  0  0
 15 13  1  0  0  0  0
 16 15  1  0  0  0  0
 16 18  1  0  0  0  0
 16 17  1  6  0  0  0
 18  2  1  1  0  0  0
 18 19  1  0  0  0  0
 19 21  1  0  0  0  0
 19 20  1  1  0  0  0
 21 22  1  1  0  0  0
 23 20  1  6  0  0  0
 23 29  1  0  0  0  0
 23 24  1  0  0  0  0
 24 26  1  0  0  0  0
 24 25  1  1  0  0  0
 26 27  1  1  0  0  0
 28 26  1  0  0  0  0
 28 30  1  6  0  0  0
 29 28  1  0  0  0  0
 30 31  1  0  0  0  0
 32 27  1  1  0  0  0
 32 40  1  0  0  0  0
 32 33  1  0  0  0  0
 33 35  1  0  0  0  0
 33 34  1  1  0  0  0
 35 37  1  0  0  0  0
 35 36  1  1  0  0  0
 37 38  1  1  0  0  0
 39 37  1  0  0  0  0
 39 41  1  1  0  0  0
 40 39  1  0  0  0  0
 42 41  1  0  0  0  0
M  END
>  <CHROM.1>
-153.70610180,172.49645189,-152.95613288,-170.46377125,62.82042482,-49.06864157
-169.98043806,68.66418102,167.97375491,158.09487074,173.64083948,62.87802745
-176.08327444,95.46252406,-131.05245018,-67.31726441,-170.10907506,-95.71733568
-174.61274763,172.59418973,64.75669632,-179.71599095,0.35744812,4.15957747
3.39356755,-1.84232646,1.34263245,1.37439002

>  <Name>
lig.pdb

>  <RI>
3.99633e+07

>  <Rbt.Current_Directory>
/home/itssahil/PROJECTS/Mol_Feturizer/New_Systems/rnas/2mxs

>  <Rbt.Executable>
rbdock ($Id: //depot/dev/client3/rdock/2013.1/src/exe/rbdock.cxx#4 $)

>  <Rbt.Library>
libRbt.so (2013.1, Build901 2013/11/27)

>  <Rbt.Parameter_File>
/export/apps/rDock/src/rDock_2013.1_src/data/scripts/dock_solv.prm

>  <Rbt.Receptor>
prm/pocket_docking_5.prm

>  <SCORE>
-37.8832

>  <SCORE.INTER>
-37.1044

>  <SCORE.INTER.CONST>
1

>  <SCORE.INTER.POLAR>
-4.54024

>  <SCORE.INTER.ROT>
9

>  <SCORE.INTER.SOLV>
18.1645

>  <SCORE.INTER.VDW>
-25.257

>  <SCORE.INTER.norm>
-0.883439

>  <SCORE.INTRA>
-0.778739

>  <SCORE.INTRA.DIHEDRAL>
-5.78348

>  <SCORE.INTRA.DIHEDRAL.0>
30.1357

>  <SCORE.INTRA.POLAR>
0.214451

>  <SCORE.INTRA.POLAR.0>
-0.631696

>  <SCORE.INTRA.REPUL>
0

>  <SCORE.INTRA.REPUL.0>
0

>  <SCORE.INTRA.SOLV>
-0.0146001

>  <SCORE.INTRA.SOLV.lig_0>
-55.904

>  <SCORE.INTRA.VDW>
1.39117

>  <SCORE.INTRA.VDW.0>
-8.21197

>  <SCORE.INTRA.norm>
-0.0185414

>  <SCORE.RESTR>
0

>  <SCORE.RESTR.CAVITY>
0

>  <SCORE.RESTR.norm>
0

>  <SCORE.SYSTEM>
0

>  <SCORE.SYSTEM.CONST>
0

>  <SCORE.SYSTEM.DIHEDRAL>
0

>  <SCORE.SYSTEM.SOLV>
0

>  <SCORE.SYSTEM.norm>
0

>  <SCORE.heavy>
42

>  <SCORE.norm>
-0.901981

>  <RMSD>
2.431

$$$$
lig.pdb
 OpenBabel11021811453D
libRbt.so/2013.1/901 2013/11/27
 42 45  0  0  0  0  0  0  0  0999 V2000
    0.7721    3.8711    1.1909 C   0  0  2  0  0  0  0  0  0  0  0  0
   -0.3735    3.1113    0.8013 O   0  0  0  0  0  0  0  0  0  0  0  0
    0.4373    5.3687    1.2615 C   0  0  2  0  0  0  0  0  0  0  0  0
   -0.7164    5.6117    2.1471 N   0  0  0  0  0  0  0  0  0  0  0  0
    0.1873    5.9429   -0.1390 C   0  0  1  0  0  0  0  0  0  0  0  0
    0.0340    7.3465   -0.0506 O   0  0  0  0  0  0  0  0  0  0  0  0
    1.3680    5.6172   -1.0662 C   0  0  2  0  0  0  0  0  0  0  0  0
    1.0502    6.0143   -2.3864 O   0  0  0  0  0  0  0  0  0  0  0  0
    1.7087    4.1134   -1.0410 C   0  0  2  0  0  0  0  0  0  0  0  0
    1.8584    3.6405    0.2973 O   0  0  0  0  0  0  0  0  0  0  0  0
    3.0242    3.9074   -1.8158 C   0  0  0  0  0  0  0  0  0  0  0  0
    4.0500    4.8547   -1.4152 O   0  0  0  0  0  0  0  0  0  0  0  0
   -0.9621   -1.1196    0.2686 C   0  0  2  0  0  0  0  0  0  0  0  0
   -0.4751   -2.4872   -0.0008 N   0  0  0  0  0  0  0  0  0  0  0  0
   -0.6531   -0.2017   -0.9168 C   0  0  0  0  0  0  0  0  0  0  0  0
   -1.0249    1.2399   -0.5907 C   0  0  2  0  0  0  0  0  0  0  0  0
   -0.8172    2.0952   -1.7659 N   0  0  0  0  0  0  0  0  0  0  0  0
   -0.1790    1.7013    0.6189 C   0  0  2  0  0  0  0  0  0  0  0  0
   -0.5965    0.9110    1.8175 C   0  0  2  0  0  0  0  0  0  0  0  0
    0.1591    1.3773    2.9203 O   0  0  0  0  0  0  0  0  0  0  0  0
   -0.3482   -0.5645    1.5676 C   0  0  1  0  0  0  0  0  0  0  0  0
   -0.8038   -1.3691    2.6391 O   0  0  0  0  0  0  0  0  0  0  0  0
   -0.2767    1.0107    4.2251 C   0  0  1  0  0  0  0  0  0  0  0  0
    0.9309    1.0915    5.1613 C   0  0  2  0  0  0  0  0  0  0  0  0
    0.8454    0.0593    6.1257 O   0  0  0  0  0  0  0  0  0  0  0  0
    0.7832    2.4918    5.7715 C   0  0  2  0  0  0  0  0  0  0  0  0
    1.4856    2.6342    7.0065 O   0  0  0  0  0  0  0  0  0  0  0  0
   -0.7440    2.5722    5.8858 C   0  0  2  0  0  0  0  0  0  0  0  0
   -1.2243    1.9602    4.6971 O   0  0  0  0  0  0  0  0  0  0  0  0
   -1.2983    3.9991    5.9702 C   0  0  0  0  0  0  0  0  0  0  0  0
   -0.8260    4.8040    4.9109 O   0  0  0  0  0  0  0  0  0  0  0  0
    1.0244    3.7011    7.8330 C   0  0  2  0  0  0  0  0  0  0  0  0
    2.1557    4.2890    8.6900 C   0  0  2  0  0  0  0  0  0  0  0  0
    3.2867    4.7145    7.8486 N   0  0  0  0  0  0  0  0  0  0  0  0
    2.6033    3.2966    9.7737 C   0  0  1  0  0  0  0  0  0  0  0  0
    3.5813    3.9216   10.5822 O   0  0  0  0  0  0  0  0  0  0  0  0
    1.3775    2.9171   10.6218 C   0  0  2  0  0  0  0  0  0  0  0  0
    1.7275    1.9679   11.6122 O   0  0  0  0  0  0  0  0  0  0  0  0
    0.2379    2.3750    9.7345 C   0  0  1  0  0  0  0  0  0  0  0  0
   -0.0554    3.2668    8.6566 O   0  0  0  0  0  0  0  0  0  0  0  0
    0.4794    0.9403    9.2425 C   0  0  0  0  0  0  0  0  0  0  0  0
    0.6573    0.0099   10.3690 N   0  0  0  0  0  0  0  0  0  0  0  0
  1  3  1  0  0  0  0
  1  2  1  6  0  0  0
  3  4  1  1  0  0  0
  5  6  1  1  0  0  0
  5  3  1  0  0  0  0
  7  9  1  0  0  0  0
  7  5  1  0  0  0  0
  7  8  1  6  0  0  0
  9 10  1  0  0  0  0
  9 11  1  6  0  0  0
 10  1  1  0  0  0  0
 11 12  1  0  0  0  0
 13 14  1  6  0  0  0
 13 21  1  0  0  0  0
 15 13  1  0  0  0  0
 16 15  1  0  0  0  0
 16 18  1  0  0  0  0
 16 17  1  6  0  0  0
 18  2  1  1  0  0  0
 18 19  1  0  0  0  0
 19 21  1  0  0  0  0
 19 20  1  1  0  0  0
 21 22  1  1  0  0  0
 23 20  1  6  0  0  0
 23 29  1  0  0  0  0
 23 24  1  0  0  0  0
 24 26  1  0  0  0  0
 24 25  1  1  0  0  0
 26 27  1  1  0  0  0
 28 26  1  0  0  0  0
 28 30  1  6  0  0  0
 29 28  1  0  0  0  0
 30 31  1  0  0  0  0
 32 27  1  1  0  0  0
 32 40  1  0  0  0  0
 32 33  1  0  0  0  0
 33 35  1  0  0  0  0
 33 34  1  6  0  0  0
 35 37  1  0  0  0  0
 35 36  1  1  0  0  0
 37 38  1  1  0  0  0
 39 37  1  0  0  0  0
 39 41  1  6  0  0  0
 40 39  1  0  0  0  0
 42 41  1  0  0  0  0
M  END
>  <CHROM.1>
-142.00145775,176.41532792,-177.62414136,51.66629840,-62.01348185,69.95952105
47.68266170,156.44289586,161.36854211,165.23858966,156.52284356,73.03195055
163.25650370,-159.06017546,-149.62288394,52.85211179,170.56276674,154.28171286
68.00760694,58.08673594,58.10518012,-158.18421458,0.60225207,2.70312837,3.80340731
-1.81238205,1.23202243,1.86898401

>  <Name>
lig.pdb

>  <RI>
0

>  <Rbt.Current_Directory>
/home/itssahil/PROJECTS/Mol_Feturizer/New_Systems/rnas/2mxs

>  <Rbt.Executable>
rbdock ($Id: //depot/dev/client3/rdock/2013.1/src/exe/rbdock.cxx#4 $)

>  <Rbt.Library>
libRbt.so (2013.1, Build901 2013/11/27)

>  <Rbt.Parameter_File>
/export/apps/rDock/src/rDock_2013.1_src/data/scripts/dock_solv.prm

>  <Rbt.Receptor>
prm/pocket_docking_4.prm

>  <SCORE>
-45.9096

>  <SCORE.INTER>
-43.0546

>  <SCORE.INTER.CONST>
1

>  <SCORE.INTER.POLAR>
-5.576

>  <SCORE.INTER.ROT>
9

>  <SCORE.INTER.SOLV>
18.8787

>  <SCORE.INTER.VDW>
-26.0093

>  <SCORE.INTER.norm>
-1.02511

>  <SCORE.INTRA>
-2.855

>  <SCORE.INTRA.DIHEDRAL>
-6.44159

>  <SCORE.INTRA.DIHEDRAL.0>
30.1357

>  <SCORE.INTRA.POLAR>
-1.2129

>  <SCORE.INTRA.POLAR.0>
-0.631696

>  <SCORE.INTRA.REPUL>
0

>  <SCORE.INTRA.REPUL.0>
0

>  <SCORE.INTRA.SOLV>
1.32992

>  <SCORE.INTRA.SOLV.lig_0>
-55.904

>  <SCORE.INTRA.VDW>
3.8247

>  <SCORE.INTRA.VDW.0>
-8.21197

>  <SCORE.INTRA.norm>
-0.0679761

>  <SCORE.RESTR>
0

>  <SCORE.RESTR.CAVITY>
0

>  <SCORE.RESTR.norm>
0

>  <SCORE.SYSTEM>
0

>  <SCORE.SYSTEM.CONST>
0

>  <SCORE.SYSTEM.DIHEDRAL>
0

>  <SCORE.SYSTEM.SOLV>
0

>  <SCORE.SYSTEM.norm>
0

>  <SCORE.heavy>
42

>  <SCORE.norm>
-1.09309

>  <RMSD>
2.434

$$$$
lig.pdb
 OpenBabel11021811453D
libRbt.so/2013.1/901 2013/11/27
 42 45  0  0  0  0  0  0  0  0999 V2000
    0.4240    2.7526    0.9245 C   0  0  2  0  0  0  0  0  0  0  0  0
   -0.6298    2.0397    0.2744 O   0  0  0  0  0  0  0  0  0  0  0  0
   -0.0543    4.1387    1.3824 C   0  0  2  0  0  0  0  0  0  0  0  0
   -1.2557    4.0304    2.2304 N   0  0  0  0  0  0  0  0  0  0  0  0
   -0.3095    5.0571    0.1803 C   0  0  1  0  0  0  0  0  0  0  0  0
   -0.5988    6.3633    0.6403 O   0  0  0  0  0  0  0  0  0  0  0  0
    0.9281    5.1001   -0.7287 C   0  0  2  0  0  0  0  0  0  0  0  0
    0.6197    5.8211   -1.9062 O   0  0  0  0  0  0  0  0  0  0  0  0
    1.4096    3.6818   -1.0960 C   0  0  2  0  0  0  0  0  0  0  0  0
    1.5575    2.8695    0.0682 O   0  0  0  0  0  0  0  0  0  0  0  0
    2.7647    3.8080   -1.8179 C   0  0  0  0  0  0  0  0  0  0  0  0
    3.8097    4.3032   -0.9387 O   0  0  0  0  0  0  0  0  0  0  0  0
   -2.2770   -1.8213    1.2285 C   0  0  2  0  0  0  0  0  0  0  0  0
   -2.1516   -3.2570    1.5501 N   0  0  0  0  0  0  0  0  0  0  0  0
   -1.6730   -1.5297   -0.1475 C   0  0  0  0  0  0  0  0  0  0  0  0
   -1.6711   -0.0313   -0.4263 C   0  0  2  0  0  0  0  0  0  0  0  0
   -1.1816    0.2308   -1.7856 N   0  0  0  0  0  0  0  0  0  0  0  0
   -0.8022    0.6647    0.6470 C   0  0  2  0  0  0  0  0  0  0  0  0
   -1.4780    0.5162    1.9725 C   0  0  2  0  0  0  0  0  0  0  0  0
   -0.6888    1.1949    2.9322 O   0  0  0  0  0  0  0  0  0  0  0  0
   -1.6119   -0.9556    2.3149 C   0  0  1  0  0  0  0  0  0  0  0  0
   -2.3212   -1.1578    3.5228 O   0  0  0  0  0  0  0  0  0  0  0  0
   -1.1180    1.1582    4.2891 C   0  0  1  0  0  0  0  0  0  0  0  0
    0.0771    1.5341    5.1678 C   0  0  2  0  0  0  0  0  0  0  0  0
    0.0312    0.7834    6.3666 O   0  0  0  0  0  0  0  0  0  0  0  0
   -0.1397    3.0362    5.3957 C   0  0  2  0  0  0  0  0  0  0  0  0
    0.5454    3.5253    6.5491 O   0  0  0  0  0  0  0  0  0  0  0  0
   -1.6699    3.0724    5.4916 C   0  0  2  0  0  0  0  0  0  0  0  0
   -2.1119    2.1524    4.5034 O   0  0  0  0  0  0  0  0  0  0  0  0
   -2.2897    4.4453    5.2064 C   0  0  0  0  0  0  0  0  0  0  0  0
   -3.6761    4.4554    5.4723 O   0  0  0  0  0  0  0  0  0  0  0  0
    0.5801    4.9467    6.6615 C   0  0  2  0  0  0  0  0  0  0  0  0
    1.7507    5.4215    7.5357 C   0  0  2  0  0  0  0  0  0  0  0  0
    3.0303    4.8932    7.0341 N   0  0  0  0  0  0  0  0  0  0  0  0
    1.5282    5.0503    9.0096 C   0  0  1  0  0  0  0  0  0  0  0  0
    2.5901    5.5858    9.7753 O   0  0  0  0  0  0  0  0  0  0  0  0
    0.1886    5.6529    9.4659 C   0  0  2  0  0  0  0  0  0  0  0  0
   -0.0865    5.3032   10.8099 O   0  0  0  0  0  0  0  0  0  0  0  0
   -0.9632    5.2008    8.5448 C   0  0  1  0  0  0  0  0  0  0  0  0
   -0.6577    5.4401    7.1690 O   0  0  0  0  0  0  0  0  0  0  0  0
   -1.4058    3.7508    8.7904 C   0  0  0  0  0  0  0  0  0  0  0  0
   -2.0504    3.6024   10.1052 N   0  0  0  0  0  0  0  0  0  0  0  0
  1  3  1  0  0  0  0
  1  2  1  6  0  0  0
  3  4  1  6  0  0  0
  5  6  1  1  0  0  0
  5  3  1  0  0  0  0
  7  9  1  0  0  0  0
  7  5  1  0  0  0  0
  7  8  1  6  0  0  0
  9 10  1  0  0  0  0
  9 11  1  1  0  0  0
 10  1  1  0  0  0  0
 11 12  1  0  0  0  0
 13 14  1  1  0  0  0
 13 21  1  0  0  0  0
 15 13  1  0  0  0  0
 16 15  1  0  0  0  0
 16 18  1  0  0  0  0
 16 17  1  6  0  0  0
 18  2  1  6  0  0  0
 18 19  1  0  0  0  0
 19 21  1  0  0  0  0
 19 20  1  1  0  0  0
 21 22  1  1  0  0  0
 23 20  1  6  0  0  0
 23 29  1  0  0  0  0
 23 24  1  0  0  0  0
 24 26  1  0  0  0  0
 24 25  1  1  0  0  0
 26 27  1  1  0  0  0
 28 26  1  0  0  0  0
 28 30  1  6  0  0  0
 29 28  1  0  0  0  0
 30 31  1  0  0  0  0
 32 27  1  1  0  0  0
 32 40  1  0  0  0  0
 32 33  1  0  0  0  0
 33 35  1  0  0  0  0
 33 34  1  6  0  0  0
 35 37  1  0  0  0  0
 35 36  1  1  0  0  0
 37 38  1  1  0  0  0
 39 37  1  0  0  0  0
 39 41  1  6  0  0  0
 40 39  1  0  0  0  0
 42 41  1  0  0  0  0
M  END
>  <CHROM.1>
-163.40721039,-134.95656604,-77.17840645,-161.44356448,-66.61070843,176.70371249
66.55584026,53.52336931,68.26480785,-178.23323250,161.70625876,-63.41629995
-59.96838367,168.86296834,-156.89878619,-172.62512040,63.85459893,54.17170882
-61.94258542,59.22003147,67.93355335,77.34034237,-0.30892177,2.93806238,3.70179114
-1.63823469,1.03200435,1.29974394

>  <Name>
lig.pdb

>  <RI>
0

>  <Rbt.Current_Directory>
/home/itssahil/PROJECTS/Mol_Feturizer/New_Systems/rnas/2mxs

>  <Rbt.Executable>
rbdock ($Id: //depot/dev/client3/rdock/2013.1/src/exe/rbdock.cxx#4 $)

>  <Rbt.Library>
libRbt.so (2013.1, Build901 2013/11/27)

>  <Rbt.Parameter_File>
/export/apps/rDock/src/rDock_2013.1_src/data/scripts/dock_solv.prm

>  <Rbt.Receptor>
prm/pocket_docking_3.prm

>  <SCORE>
-30.9363

>  <SCORE.INTER>
-24.1785

>  <SCORE.INTER.CONST>
1

>  <SCORE.INTER.POLAR>
-3.42923

>  <SCORE.INTER.ROT>
9

>  <SCORE.INTER.SOLV>
11.2564

>  <SCORE.INTER.VDW>
-18.0404

>  <SCORE.INTER.norm>
-0.57568

>  <SCORE.INTRA>
-6.75775

>  <SCORE.INTRA.DIHEDRAL>
-13.2394

>  <SCORE.INTRA.DIHEDRAL.0>
30.1357

>  <SCORE.INTRA.POLAR>
-0.883699

>  <SCORE.INTRA.POLAR.0>
-0.631696

>  <SCORE.INTRA.REPUL>
0

>  <SCORE.INTRA.REPUL.0>
0

>  <SCORE.INTRA.SOLV>
0.268453

>  <SCORE.INTRA.SOLV.lig_0>
-55.904

>  <SCORE.INTRA.VDW>
2.73229

>  <SCORE.INTRA.VDW.0>
-8.21197

>  <SCORE.INTRA.norm>
-0.160899

>  <SCORE.RESTR>
0

>  <SCORE.RESTR.CAVITY>
0

>  <SCORE.RESTR.norm>
0

>  <SCORE.SYSTEM>
0

>  <SCORE.SYSTEM.CONST>
0

>  <SCORE.SYSTEM.DIHEDRAL>
0

>  <SCORE.SYSTEM.SOLV>
0

>  <SCORE.SYSTEM.norm>
0

>  <SCORE.heavy>
42

>  <SCORE.norm>
-0.736578

>  <RMSD>
2.447

$$$$
lig.pdb
 OpenBabel11021811453D
libRbt.so/2013.1/901 2013/11/27
 42 45  0  0  0  0  0  0  0  0999 V2000
    0.3370    4.5872    0.8991 C   0  0  2  0  0  0  0  0  0  0  0  0
   -0.9021    4.1809    0.3153 O   0  0  0  0  0  0  0  0  0  0  0  0
    0.5985    6.0794    0.6446 C   0  0  2  0  0  0  0  0  0  0  0  0
   -0.5316    6.9022    1.1140 N   0  0  0  0  0  0  0  0  0  0  0  0
    0.8919    6.3412   -0.8383 C   0  0  1  0  0  0  0  0  0  0  0  0
    1.2765    7.6919   -1.0096 O   0  0  0  0  0  0  0  0  0  0  0  0
    2.0232    5.4240   -1.3268 C   0  0  2  0  0  0  0  0  0  0  0  0
    2.1706    5.5668   -2.7266 O   0  0  0  0  0  0  0  0  0  0  0  0
    1.7444    3.9476   -0.9791 C   0  0  2  0  0  0  0  0  0  0  0  0
    1.4130    3.7962    0.4009 O   0  0  0  0  0  0  0  0  0  0  0  0
    3.0106    3.1320   -1.3027 C   0  0  0  0  0  0  0  0  0  0  0  0
    3.2891    3.0953   -2.7280 O   0  0  0  0  0  0  0  0  0  0  0  0
   -4.1456    1.8641    1.9411 C   0  0  2  0  0  0  0  0  0  0  0  0
   -4.6883    0.7750    2.7776 N   0  0  0  0  0  0  0  0  0  0  0  0
   -3.2222    1.2954    0.8608 C   0  0  0  0  0  0  0  0  0  0  0  0
   -2.5485    2.4202    0.0837 C   0  0  2  0  0  0  0  0  0  0  0  0
   -1.7426    1.8674   -1.0120 N   0  0  0  0  0  0  0  0  0  0  0  0
   -1.6948    3.2519    1.0690 C   0  0  2  0  0  0  0  0  0  0  0  0
   -2.6132    3.9378    2.0290 C   0  0  2  0  0  0  0  0  0  0  0  0
   -1.8156    4.7252    2.8941 O   0  0  0  0  0  0  0  0  0  0  0  0
   -3.4057    2.9028    2.8049 C   0  0  1  0  0  0  0  0  0  0  0  0
   -4.3535    3.4986    3.6708 O   0  0  0  0  0  0  0  0  0  0  0  0
   -2.4294    5.2517    4.0658 C   0  0  1  0  0  0  0  0  0  0  0  0
   -2.1899    4.2591    5.2054 C   0  0  2  0  0  0  0  0  0  0  0  0
   -3.3246    4.2343    6.0508 O   0  0  0  0  0  0  0  0  0  0  0  0
   -0.9462    4.8385    5.8927 C   0  0  2  0  0  0  0  0  0  0  0  0
   -0.7995    4.3903    7.2405 O   0  0  0  0  0  0  0  0  0  0  0  0
   -1.2321    6.3375    5.7397 C   0  0  2  0  0  0  0  0  0  0  0  0
   -1.7872    6.4646    4.4382 O   0  0  0  0  0  0  0  0  0  0  0  0
    0.0088    7.2322    5.8414 C   0  0  0  0  0  0  0  0  0  0  0  0
   -0.3407    8.5857    6.0386 O   0  0  0  0  0  0  0  0  0  0  0  0
   -0.4375    3.0173    7.3742 C   0  0  2  0  0  0  0  0  0  0  0  0
   -0.4877    2.5539    8.8381 C   0  0  2  0  0  0  0  0  0  0  0  0
   -1.8102    2.8185    9.4288 N   0  0  0  0  0  0  0  0  0  0  0  0
    0.6359    3.1996    9.6628 C   0  0  1  0  0  0  0  0  0  0  0  0
    0.5933    2.6723   10.9746 O   0  0  0  0  0  0  0  0  0  0  0  0
    1.9818    2.8624    8.9989 C   0  0  2  0  0  0  0  0  0  0  0  0
    3.0519    3.4716    9.6976 O   0  0  0  0  0  0  0  0  0  0  0  0
    1.9907    3.2931    7.5177 C   0  0  1  0  0  0  0  0  0  0  0  0
    0.8540    2.7825    6.8174 O   0  0  0  0  0  0  0  0  0  0  0  0
    2.1500    4.8085    7.3252 C   0  0  0  0  0  0  0  0  0  0  0  0
    3.5112    5.1528    6.8838 N   0  0  0  0  0  0  0  0  0  0  0  0
  1  3  1  0  0  0  0
  1  2  1  6  0  0  0
  3  4  1  6  0  0  0
  5  6  1  1  0  0  0
  5  3  1  0  0  0  0
  7  9  1  0  0  0  0
  7  5  1  0  0  0  0
  7  8  1  6  0  0  0
  9 10  1  0  0  0  0
  9 11  1  1  0  0  0
 10  1  1  0  0  0  0
 11 12  1  0  0  0  0
 13 14  1  1  0  0  0
 13 21  1  0  0  0  0
 15 13  1  0  0  0  0
 16 15  1  0  0  0  0
 16 18  1  0  0  0  0
 16 17  1  6  0  0  0
 18  2  1  6  0  0  0
 18 19  1  0  0  0  0
 19 21  1  0  0  0  0
 19 20  1  1  0  0  0
 21 22  1  6  0  0  0
 23 20  1  6  0  0  0
 23 29  1  0  0  0  0
 23 24  1  0  0  0  0
 24 26  1  0  0  0  0
 24 25  1  1  0  0  0
 26 27  1  1  0  0  0
 28 26  1  0  0  0  0
 28 30  1  6  0  0  0
 29 28  1  0  0  0  0
 30 31  1  0  0  0  0
 32 27  1  1  0  0  0
 32 40  1  0  0  0  0
 32 33  1  0  0  0  0
 33 35  1  0  0  0  0
 33 34  1  1  0  0  0
 35 37  1  0  0  0  0
 35 36  1  1  0  0  0
 37 38  1  1  0  0  0
 39 37  1  0  0  0  0
 39 41  1  1  0  0  0
 40 39  1  0  0  0  0
 42 41  1  0  0  0  0
M  END
>  <CHROM.1>
-152.17431632,-141.11439525,-94.87940674,-62.12905260,59.20279764,-61.31492547
-66.65004017,-58.05680848,154.43777735,-167.11628162,92.72763149,-57.19787184
-59.74766065,70.67344002,-172.07112795,-164.82054884,-166.52532250,-62.49507809
-169.04831275,-51.65890659,104.51348709,-28.26494022,-0.36640969,4.20405051
3.66557363,-1.55507532,0.43267719,1.62521000

>  <Name>
lig.pdb

>  <RI>
0

>  <Rbt.Current_Directory>
/home/itssahil/PROJECTS/Mol_Feturizer/New_Systems/rnas/2mxs

>  <Rbt.Executable>
rbdock ($Id: //depot/dev/client3/rdock/2013.1/src/exe/rbdock.cxx#4 $)

>  <Rbt.Library>
libRbt.so (2013.1, Build901 2013/11/27)

>  <Rbt.Parameter_File>
/export/apps/rDock/src/rDock_2013.1_src/data/scripts/dock_solv.prm

>  <Rbt.Receptor>
prm/pocket_docking_6.prm

>  <SCORE>
-39.5764

>  <SCORE.INTER>
-41.9682

>  <SCORE.INTER.CONST>
1

>  <SCORE.INTER.POLAR>
-5.82872

>  <SCORE.INTER.ROT>
9

>  <SCORE.INTER.SOLV>
19.0019

>  <SCORE.INTER.VDW>
-24.4837

>  <SCORE.INTER.norm>
-0.999242

>  <SCORE.INTRA>
2.3918

>  <SCORE.INTRA.DIHEDRAL>
-2.61782

>  <SCORE.INTRA.DIHEDRAL.0>
30.1357

>  <SCORE.INTRA.POLAR>
-0.368304

>  <SCORE.INTRA.POLAR.0>
-0.631696

>  <SCORE.INTRA.REPUL>
0

>  <SCORE.INTRA.REPUL.0>
0

>  <SCORE.INTRA.SOLV>
-0.084092

>  <SCORE.INTRA.SOLV.lig_0>
-55.904

>  <SCORE.INTRA.VDW>
4.99499

>  <SCORE.INTRA.VDW.0>
-8.21197

>  <SCORE.INTRA.norm>
0.0569476

>  <SCORE.RESTR>
0

>  <SCORE.RESTR.CAVITY>
0

>  <SCORE.RESTR.norm>
0

>  <SCORE.SYSTEM>
0

>  <SCORE.SYSTEM.CONST>
0

>  <SCORE.SYSTEM.DIHEDRAL>
0

>  <SCORE.SYSTEM.SOLV>
0

>  <SCORE.SYSTEM.norm>
0

>  <SCORE.heavy>
42

>  <SCORE.norm>
-0.942294

>  <RMSD>
2.451

$$$$
lig.pdb
 OpenBabel11021811453D
libRbt.so/2013.1/901 2013/11/27
 42 45  0  0  0  0  0  0  0  0999 V2000
   -0.3197    3.2926   -0.8916 C   0  0  2  0  0  0  0  0  0  0  0  0
    0.3788    2.3856   -0.0366 O   0  0  0  0  0  0  0  0  0  0  0  0
    0.5681    4.4908   -1.2602 C   0  0  2  0  0  0  0  0  0  0  0  0
    1.8430    4.0429   -1.8505 N   0  0  0  0  0  0  0  0  0  0  0  0
    0.8113    5.3905   -0.0416 C   0  0  1  0  0  0  0  0  0  0  0  0
    1.5002    6.5571   -0.4491 O   0  0  0  0  0  0  0  0  0  0  0  0
   -0.5258    5.7876    0.6020 C   0  0  2  0  0  0  0  0  0  0  0  0
   -0.2767    6.4817    1.8093 O   0  0  0  0  0  0  0  0  0  0  0  0
   -1.4075    4.5536    0.8816 C   0  0  2  0  0  0  0  0  0  0  0  0
   -1.5295    3.7328   -0.2797 O   0  0  0  0  0  0  0  0  0  0  0  0
   -2.7997    5.0485    1.3175 C   0  0  0  0  0  0  0  0  0  0  0  0
   -3.6575    3.9591    1.7505 O   0  0  0  0  0  0  0  0  0  0  0  0
   -2.2787   -1.0009   -0.0301 C   0  0  2  0  0  0  0  0  0  0  0  0
   -2.5764   -2.4333    0.1699 N   0  0  0  0  0  0  0  0  0  0  0  0
   -1.2126   -0.8256   -1.1145 C   0  0  0  0  0  0  0  0  0  0  0  0
   -0.7980    0.6366   -1.2284 C   0  0  2  0  0  0  0  0  0  0  0  0
    0.1507    0.8098   -2.3355 N   0  0  0  0  0  0  0  0  0  0  0  0
   -0.1967    1.0811    0.1253 C   0  0  2  0  0  0  0  0  0  0  0  0
   -1.2817    1.0631    1.1539 C   0  0  2  0  0  0  0  0  0  0  0  0
   -0.7206    1.5124    2.3737 O   0  0  0  0  0  0  0  0  0  0  0  0
   -1.8328   -0.3437    1.2897 C   0  0  1  0  0  0  0  0  0  0  0  0
   -2.9220   -0.4032    2.1915 O   0  0  0  0  0  0  0  0  0  0  0  0
   -1.5764    1.5885    3.5089 C   0  0  1  0  0  0  0  0  0  0  0  0
   -0.7056    1.4596    4.7604 C   0  0  2  0  0  0  0  0  0  0  0  0
   -1.4127    0.7366    5.7504 O   0  0  0  0  0  0  0  0  0  0  0  0
   -0.4658    2.9248    5.1488 C   0  0  2  0  0  0  0  0  0  0  0  0
   -0.0980    3.0808    6.5196 O   0  0  0  0  0  0  0  0  0  0  0  0
   -1.8267    3.5250    4.7746 C   0  0  2  0  0  0  0  0  0  0  0  0
   -2.1844    2.8729    3.5642 O   0  0  0  0  0  0  0  0  0  0  0  0
   -1.8068    5.0395    4.5371 C   0  0  0  0  0  0  0  0  0  0  0  0
   -3.1121    5.5661    4.4284 O   0  0  0  0  0  0  0  0  0  0  0  0
    1.0350    2.3137    6.9220 C   0  0  2  0  0  0  0  0  0  0  0  0
    0.8087    1.6306    8.2793 C   0  0  2  0  0  0  0  0  0  0  0  0
   -0.4132    0.8093    8.2579 N   0  0  0  0  0  0  0  0  0  0  0  0
    0.7747    2.6598    9.4191 C   0  0  1  0  0  0  0  0  0  0  0  0
    0.6511    1.9694   10.6474 O   0  0  0  0  0  0  0  0  0  0  0  0
    2.0875    3.4608    9.3904 C   0  0  2  0  0  0  0  0  0  0  0  0
    2.0897    4.4558   10.3975 O   0  0  0  0  0  0  0  0  0  0  0  0
    2.3167    4.0968    8.0039 C   0  0  1  0  0  0  0  0  0  0  0  0
    2.2048    3.1280    6.9588 O   0  0  0  0  0  0  0  0  0  0  0  0
    1.4327    5.3256    7.7441 C   0  0  0  0  0  0  0  0  0  0  0  0
    1.4805    5.7312    6.3300 N   0  0  0  0  0  0  0  0  0  0  0  0
  1  3  1  0  0  0  0
  1  2  1  1  0  0  0
  3  4  1  1  0  0  0
  5  6  1  6  0  0  0
  5  3  1  0  0  0  0
  7  9  1  0  0  0  0
  7  5  1  0  0  0  0
  7  8  1  1  0  0  0
  9 10  1  0  0  0  0
  9 11  1  6  0  0  0
 10  1  1  0  0  0  0
 11 12  1  0  0  0  0
 13 14  1  1  0  0  0
 13 21  1  0  0  0  0
 15 13  1  0  0  0  0
 16 15  1  0  0  0  0
 16 18  1  0  0  0  0
 16 17  1  6  0  0  0
 18  2  1  6  0  0  0
 18 19  1  0  0  0  0
 19 21  1  0  0  0  0
 19 20  1  1  0  0  0
 21 22  1  1  0  0  0
 23 20  1  6  0  0  0
 23 29  1  0  0  0  0
 23 24  1  0  0  0  0
 24 26  1  0  0  0  0
 24 25  1  1  0  0  0
 26 27  1  1  0  0  0
 28 26  1  0  0  0  0
 28 30  1  6  0  0  0
 29 28  1  0  0  0  0
 30 31  1  0  0  0  0
 32 27  1  1  0  0  0
 32 40  1  0  0  0  0
 32 33  1  0  0  0  0
 33 35  1  0  0  0  0
 33 34  1  6  0  0  0
 35 37  1  0  0  0  0
 35 36  1  1  0  0  0
 37 38  1  1  0  0  0
 39 37  1  0  0  0  0
 39 41  1  6  0  0  0
 40 39  1  0  0  0  0
 42 41  1  0  0  0  0
M  END
>  <CHROM.1>
37.26872404,-165.40169400,-63.73082727,-66.03798605,53.48993747,55.93658321
-173.43473389,-72.83016310,175.39219656,179.61585784,154.59759034,-60.68653343
65.06625721,55.08828628,-135.97694430,-169.70000388,-54.59224442,-89.32702701
61.14290192,72.08253131,-168.41592842,129.04834133,-0.42972267,2.82377565
3.33735134,-2.12186051,1.20319177,1.97260932

>  <Name>
lig.pdb

>  <RI>
224

>  <Rbt.Current_Directory>
/home/itssahil/PROJECTS/Mol_Feturizer/New_Systems/rnas/2mxs

>  <Rbt.Executable>
rbdock ($Id: //depot/dev/client3/rdock/2013.1/src/exe/rbdock.cxx#4 $)

>  <Rbt.Library>
libRbt.so (2013.1, Build901 2013/11/27)

>  <Rbt.Parameter_File>
/export/apps/rDock/src/rDock_2013.1_src/data/scripts/dock_solv.prm

>  <Rbt.Receptor>
prm/pocket_docking_2.prm

>  <SCORE>
-28.5255

>  <SCORE.INTER>
-26.0758

>  <SCORE.INTER.CONST>
1

>  <SCORE.INTER.POLAR>
-3.2427

>  <SCORE.INTER.ROT>
9

>  <SCORE.INTER.SOLV>
13.8486

>  <SCORE.INTER.VDW>
-20.7911

>  <SCORE.INTER.norm>
-0.620852

>  <SCORE.INTRA>
-3.85066

>  <SCORE.INTRA.DIHEDRAL>
-9.26446

>  <SCORE.INTRA.DIHEDRAL.0>
30.1357

>  <SCORE.INTRA.POLAR>
-1.35249

>  <SCORE.INTRA.POLAR.0>
-0.631696

>  <SCORE.INTRA.REPUL>
0

>  <SCORE.INTRA.REPUL.0>
0

>  <SCORE.INTRA.SOLV>
2.7454

>  <SCORE.INTRA.SOLV.lig_0>
-55.904

>  <SCORE.INTRA.VDW>
4.00733

>  <SCORE.INTRA.VDW.0>
-8.21197

>  <SCORE.INTRA.norm>
-0.0916824

>  <SCORE.RESTR>
1.40093

>  <SCORE.RESTR.CAVITY>
1.40093

>  <SCORE.RESTR.norm>
0.0333554

>  <SCORE.SYSTEM>
0

>  <SCORE.SYSTEM.CONST>
0

>  <SCORE.SYSTEM.DIHEDRAL>
0

>  <SCORE.SYSTEM.SOLV>
0

>  <SCORE.SYSTEM.norm>
0

>  <SCORE.heavy>
42

>  <SCORE.norm>
-0.679179

>  <RMSD>
2.462

$$$$
lig.pdb
 OpenBabel11021811453D
libRbt.so/2013.1/901 2013/11/27
 42 45  0  0  0  0  0  0  0  0999 V2000
    0.8289    4.1986    0.2131 C   0  0  2  0  0  0  0  0  0  0  0  0
   -0.0304    3.3514   -0.5520 O   0  0  0  0  0  0  0  0  0  0  0  0
    0.3241    5.6493    0.1954 C   0  0  2  0  0  0  0  0  0  0  0  0
   -1.0772    5.7274    0.6475 N   0  0  0  0  0  0  0  0  0  0  0  0
    0.4892    6.2720   -1.1969 C   0  0  1  0  0  0  0  0  0  0  0  0
    0.1592    7.6465   -1.1388 O   0  0  0  0  0  0  0  0  0  0  0  0
    1.9389    6.1168   -1.6808 C   0  0  2  0  0  0  0  0  0  0  0  0
    2.0338    6.5524   -3.0234 O   0  0  0  0  0  0  0  0  0  0  0  0
    2.4183    4.6551   -1.5710 C   0  0  2  0  0  0  0  0  0  0  0  0
    2.1684    4.1265   -0.2690 O   0  0  0  0  0  0  0  0  0  0  0  0
    3.9304    4.6237   -1.8639 C   0  0  0  0  0  0  0  0  0  0  0  0
    4.2260    4.9342   -3.2519 O   0  0  0  0  0  0  0  0  0  0  0  0
   -0.8530   -0.8501   -0.1029 C   0  0  2  0  0  0  0  0  0  0  0  0
   -0.4403   -2.2504    0.1189 N   0  0  0  0  0  0  0  0  0  0  0  0
   -0.1972   -0.2967   -1.3705 C   0  0  0  0  0  0  0  0  0  0  0  0
   -0.5048    1.1874   -1.5301 C   0  0  2  0  0  0  0  0  0  0  0  0
    0.0450    1.6858   -2.7971 N   0  0  0  0  0  0  0  0  0  0  0  0
    0.0750    1.9408   -0.3103 C   0  0  2  0  0  0  0  0  0  0  0  0
   -0.6776    1.5162    0.9098 C   0  0  2  0  0  0  0  0  0  0  0  0
   -0.1600    2.2472    2.0063 O   0  0  0  0  0  0  0  0  0  0  0  0
   -0.5102    0.0230    1.1188 C   0  0  1  0  0  0  0  0  0  0  0  0
   -1.2716   -0.4490    2.2145 O   0  0  0  0  0  0  0  0  0  0  0  0
   -0.8208    2.1178    3.2607 C   0  0  1  0  0  0  0  0  0  0  0  0
   -0.1078    3.0300    4.2611 C   0  0  2  0  0  0  0  0  0  0  0  0
   -0.1021    2.4137    5.5350 O   0  0  0  0  0  0  0  0  0  0  0  0
   -0.9649    4.3023    4.2176 C   0  0  2  0  0  0  0  0  0  0  0  0
   -0.8098    5.1139    5.3821 O   0  0  0  0  0  0  0  0  0  0  0  0
   -2.3560    3.6798    4.0467 C   0  0  2  0  0  0  0  0  0  0  0  0
   -2.1553    2.5965    3.1498 O   0  0  0  0  0  0  0  0  0  0  0  0
   -3.4055    4.6281    3.4551 C   0  0  0  0  0  0  0  0  0  0  0  0
   -3.7984    5.6145    4.3855 O   0  0  0  0  0  0  0  0  0  0  0  0
    0.5379    5.4705    5.6829 C   0  0  2  0  0  0  0  0  0  0  0  0
    0.7946    5.5052    7.1972 C   0  0  2  0  0  0  0  0  0  0  0  0
    0.4279    4.2237    7.8226 N   0  0  0  0  0  0  0  0  0  0  0  0
    0.0615    6.6830    7.8569 C   0  0  1  0  0  0  0  0  0  0  0  0
    0.4025    6.7154    9.2292 O   0  0  0  0  0  0  0  0  0  0  0  0
    0.5105    7.9827    7.1678 C   0  0  2  0  0  0  0  0  0  0  0  0
   -0.1699    9.0991    7.7111 O   0  0  0  0  0  0  0  0  0  0  0  0
    0.2880    7.9055    5.6433 C   0  0  1  0  0  0  0  0  0  0  0  0
    0.8699    6.7235    5.0888 O   0  0  0  0  0  0  0  0  0  0  0  0
   -1.1835    8.0669    5.2339 C   0  0  0  0  0  0  0  0  0  0  0  0
   -1.3126    8.3370    3.7929 N   0  0  0  0  0  0  0  0  0  0  0  0
  1  3  1  0  0  0  0
  1  2  1  6  0  0  0
  3  4  1  6  0  0  0
  5  6  1  1  0  0  0
  5  3  1  0  0  0  0
  7  9  1  0  0  0  0
  7  5  1  0  0  0  0
  7  8  1  6  0  0  0
  9 10  1  0  0  0  0
  9 11  1  1  0  0  0
 10  1  1  0  0  0  0
 11 12  1  0  0  0  0
 13 14  1  1  0  0  0
 13 21  1  0  0  0  0
 15 13  1  0  0  0  0
 16 15  1  0  0  0  0
 16 18  1  0  0  0  0
 16 17  1  6  0  0  0
 18  2  1  6  0  0  0
 18 19  1  0  0  0  0
 19 21  1  0  0  0  0
 19 20  1  1  0  0  0
 21 22  1  1  0  0  0
 23 20  1  6  0  0  0
 23 29  1  0  0  0  0
 23 24  1  0  0  0  0
 24 26  1  0  0  0  0
 24 25  1  1  0  0  0
 26 27  1  1  0  0  0
 28 26  1  0  0  0  0
 28 30  1  6  0  0  0
 29 28  1  0  0  0  0
 30 31  1  0  0  0  0
 32 27  1  1  0  0  0
 32 40  1  0  0  0  0
 32 33  1  0  0  0  0
 33 35  1  0  0  0  0
 33 34  1  1  0  0  0
 35 37  1  0  0  0  0
 35 36  1  1  0  0  0
 37 38  1  1  0  0  0
 39 37  1  0  0  0  0
 39 41  1  1  0  0  0
 40 39  1  0  0  0  0
 42 41  1  0  0  0  0
M  END
>  <CHROM.1>
-159.54890140,-162.07874183,79.27743224,-62.85772430,-169.97268944,-173.12157255
-68.36422433,153.54250511,63.22115037,173.36041590,-178.19418552,-61.85961426
-57.24281752,54.38662927,-143.68221726,-72.35687291,171.94318925,-90.97156772
59.61087462,-176.95200901,165.20879957,-69.85220186,-0.01716327,4.28217390
2.30970048,-1.23661775,1.17356844,0.78588127

>  <Name>
lig.pdb

>  <RI>
3.99633e+07

>  <Rbt.Current_Directory>
/home/itssahil/PROJECTS/Mol_Feturizer/New_Systems/rnas/2mxs

>  <Rbt.Executable>
rbdock ($Id: //depot/dev/client3/rdock/2013.1/src/exe/rbdock.cxx#4 $)

>  <Rbt.Library>
libRbt.so (2013.1, Build901 2013/11/27)

>  <Rbt.Parameter_File>
/export/apps/rDock/src/rDock_2013.1_src/data/scripts/dock_solv.prm

>  <Rbt.Receptor>
prm/pocket_docking_5.prm

>  <SCORE>
-62.0614

>  <SCORE.INTER>
-54.6822

>  <SCORE.INTER.CONST>
1

>  <SCORE.INTER.POLAR>
-6.52599

>  <SCORE.INTER.ROT>
9

>  <SCORE.INTER.SOLV>
23.1631

>  <SCORE.INTER.VDW>
-32.0225

>  <SCORE.INTER.norm>
-1.30196

>  <SCORE.INTRA>
-7.37926

>  <SCORE.INTRA.DIHEDRAL>
-13.7049

>  <SCORE.INTRA.DIHEDRAL.0>
30.1357

>  <SCORE.INTRA.POLAR>
-1.26503

>  <SCORE.INTRA.POLAR.0>
-0.631696

>  <SCORE.INTRA.REPUL>
0.0226489

>  <SCORE.INTRA.REPUL.0>
0

>  <SCORE.INTRA.SOLV>
0.105087

>  <SCORE.INTRA.SOLV.lig_0>
-55.904

>  <SCORE.INTRA.VDW>
3.60852

>  <SCORE.INTRA.VDW.0>
-8.21197

>  <SCORE.INTRA.norm>
-0.175697

>  <SCORE.RESTR>
0

>  <SCORE.RESTR.CAVITY>
0

>  <SCORE.RESTR.norm>
0

>  <SCORE.SYSTEM>
0

>  <SCORE.SYSTEM.CONST>
0

>  <SCORE.SYSTEM.DIHEDRAL>
0

>  <SCORE.SYSTEM.SOLV>
0

>  <SCORE.SYSTEM.norm>
0

>  <SCORE.heavy>
42

>  <SCORE.norm>
-1.47765

>  <RMSD>
2.494

$$$$
lig.pdb
 OpenBabel11021811453D
libRbt.so/2013.1/901 2013/11/27
 42 45  0  0  0  0  0  0  0  0999 V2000
    0.2497    3.6542    0.3525 C   0  0  2  0  0  0  0  0  0  0  0  0
   -0.5427    2.8349   -0.5090 O   0  0  0  0  0  0  0  0  0  0  0  0
   -0.0843    5.1404    0.1538 C   0  0  2  0  0  0  0  0  0  0  0  0
   -1.5278    5.3861    0.3285 N   0  0  0  0  0  0  0  0  0  0  0  0
    0.3965    5.6336   -1.2170 C   0  0  1  0  0  0  0  0  0  0  0  0
    0.2112    7.0335   -1.3038 O   0  0  0  0  0  0  0  0  0  0  0  0
    1.8846    5.3042   -1.4090 C   0  0  2  0  0  0  0  0  0  0  0  0
    2.2677    5.6223   -2.7332 O   0  0  0  0  0  0  0  0  0  0  0  0
    2.1759    3.8168   -1.1242 C   0  0  2  0  0  0  0  0  0  0  0  0
    1.6387    3.4180    0.1365 O   0  0  0  0  0  0  0  0  0  0  0  0
    3.7038    3.6195   -1.1247 C   0  0  0  0  0  0  0  0  0  0  0  0
    4.0816    2.2692   -1.5047 O   0  0  0  0  0  0  0  0  0  0  0  0
   -1.5562   -1.3388   -0.2186 C   0  0  2  0  0  0  0  0  0  0  0  0
   -1.2336   -2.7485    0.0796 N   0  0  0  0  0  0  0  0  0  0  0  0
   -0.6559   -0.8127   -1.3392 C   0  0  0  0  0  0  0  0  0  0  0  0
   -0.8847    0.6784   -1.5564 C   0  0  2  0  0  0  0  0  0  0  0  0
   -0.0902    1.1525   -2.6964 N   0  0  0  0  0  0  0  0  0  0  0  0
   -0.5258    1.4236   -0.2497 C   0  0  2  0  0  0  0  0  0  0  0  0
   -1.5084    1.0286    0.8057 C   0  0  2  0  0  0  0  0  0  0  0  0
   -1.1878    1.7523    1.9796 O   0  0  0  0  0  0  0  0  0  0  0  0
   -1.4268   -0.4673    1.0447 C   0  0  1  0  0  0  0  0  0  0  0  0
   -2.3957   -0.9103    1.9764 O   0  0  0  0  0  0  0  0  0  0  0  0
   -2.0404    1.5955    3.1089 C   0  0  1  0  0  0  0  0  0  0  0  0
   -1.3184    2.1805    4.3246 C   0  0  2  0  0  0  0  0  0  0  0  0
   -1.6242    1.4052    5.4684 O   0  0  0  0  0  0  0  0  0  0  0  0
   -1.8914    3.6023    4.3968 C   0  0  2  0  0  0  0  0  0  0  0  0
   -1.7544    4.1889    5.6914 O   0  0  0  0  0  0  0  0  0  0  0  0
   -3.3368    3.3287    3.9631 C   0  0  2  0  0  0  0  0  0  0  0  0
   -3.2225    2.3645    2.9260 O   0  0  0  0  0  0  0  0  0  0  0  0
   -4.0784    4.5566    3.4219 C   0  0  0  0  0  0  0  0  0  0  0  0
   -4.0952    5.6100    4.3617 O   0  0  0  0  0  0  0  0  0  0  0  0
   -1.6529    5.6115    5.6916 C   0  0  2  0  0  0  0  0  0  0  0  0
   -0.2169    6.0813    5.4134 C   0  0  2  0  0  0  0  0  0  0  0  0
    0.2894    5.5090    4.1547 N   0  0  0  0  0  0  0  0  0  0  0  0
    0.7114    5.7551    6.5930 C   0  0  1  0  0  0  0  0  0  0  0  0
    1.9937    6.2851    6.3183 O   0  0  0  0  0  0  0  0  0  0  0  0
    0.1307    6.4018    7.8620 C   0  0  2  0  0  0  0  0  0  0  0  0
    0.9281    6.0948    8.9909 O   0  0  0  0  0  0  0  0  0  0  0  0
   -1.3269    5.9531    8.0937 C   0  0  1  0  0  0  0  0  0  0  0  0
   -2.1264    6.1480    6.9249 O   0  0  0  0  0  0  0  0  0  0  0  0
   -1.4441    4.5212    8.6367 C   0  0  0  0  0  0  0  0  0  0  0  0
   -1.3738    4.4978   10.1066 N   0  0  0  0  0  0  0  0  0  0  0  0
  1  3  1  0  0  0  0
  1  2  1  6  0  0  0
  3  4  1  6  0  0  0
  5  6  1  1  0  0  0
  5  3  1  0  0  0  0
  7  9  1  0  0  0  0
  7  5  1  0  0  0  0
  7  8  1  6  0  0  0
  9 10  1  0  0  0  0
  9 11  1  1  0  0  0
 10  1  1  0  0  0  0
 11 12  1  0  0  0  0
 13 14  1  1  0  0  0
 13 21  1  0  0  0  0
 15 13  1  0  0  0  0
 16 15  1  0  0  0  0
 16 18  1  0  0  0  0
 16 17  1  6  0  0  0
 18  2  1  6  0  0  0
 18 19  1  0  0  0  0
 19 21  1  0  0  0  0
 19 20  1  1  0  0  0
 21 22  1  1  0  0  0
 23 20  1  6  0  0  0
 23 29  1  0  0  0  0
 23 24  1  0  0  0  0
 24 26  1  0  0  0  0
 24 25  1  1  0  0  0
 26 27  1  1  0  0  0
 28 26  1  0  0  0  0
 28 30  1  6  0  0  0
 29 28  1  0  0  0  0
 30 31  1  0  0  0  0
 32 27  1  1  0  0  0
 32 40  1  0  0  0  0
 32 33  1  0  0  0  0
 33 35  1  0  0  0  0
 33 34  1  6  0  0  0
 35 37  1  0  0  0  0
 35 36  1  6  0  0  0
 37 38  1  1  0  0  0
 39 37  1  0  0  0  0
 39 41  1  6  0  0  0
 40 39  1  0  0  0  0
 42 41  1  0  0  0  0
M  END
>  <CHROM.1>
-155.61579000,-168.24551152,-61.27903868,-57.76108597,63.36138631,179.82321738
-152.39045890,42.18637501,-57.55402065,176.55811683,166.31974444,-60.48775118
-176.52241164,151.44921984,-82.94195040,-56.91710721,-59.99504502,-48.61191897
-179.31038544,-178.11611413,87.65897689,-58.19571599,-0.56926654,3.46846558
2.54786531,-1.29104657,0.96023524,0.96440144

>  <Name>
lig.pdb

>  <RI>
0

>  <Rbt.Current_Directory>
/home/itssahil/PROJECTS/Mol_Feturizer/New_Systems/rnas/2mxs

>  <Rbt.Executable>
rbdock ($Id: //depot/dev/client3/rdock/2013.1/src/exe/rbdock.cxx#4 $)

>  <Rbt.Library>
libRbt.so (2013.1, Build901 2013/11/27)

>  <Rbt.Parameter_File>
/export/apps/rDock/src/rDock_2013.1_src/data/scripts/dock_solv.prm

>  <Rbt.Receptor>
prm/pocket_docking_3.prm

>  <SCORE>
-44.5071

>  <SCORE.INTER>
-42.7763

>  <SCORE.INTER.CONST>
1

>  <SCORE.INTER.POLAR>
-6.38149

>  <SCORE.INTER.ROT>
9

>  <SCORE.INTER.SOLV>
19.2735

>  <SCORE.INTER.VDW>
-23.2704

>  <SCORE.INTER.norm>
-1.01848

>  <SCORE.INTRA>
-1.73076

>  <SCORE.INTRA.DIHEDRAL>
-13.885

>  <SCORE.INTRA.DIHEDRAL.0>
30.1357

>  <SCORE.INTRA.POLAR>
0.585285

>  <SCORE.INTRA.POLAR.0>
-0.631696

>  <SCORE.INTRA.REPUL>
0

>  <SCORE.INTRA.REPUL.0>
0

>  <SCORE.INTRA.SOLV>
-0.898171

>  <SCORE.INTRA.SOLV.lig_0>
-55.904

>  <SCORE.INTRA.VDW>
3.67085

>  <SCORE.INTRA.VDW.0>
-8.21197

>  <SCORE.INTRA.norm>
-0.0412086

>  <SCORE.RESTR>
0

>  <SCORE.RESTR.CAVITY>
0

>  <SCORE.RESTR.norm>
0

>  <SCORE.SYSTEM>
0

>  <SCORE.SYSTEM.CONST>
0

>  <SCORE.SYSTEM.DIHEDRAL>
0

>  <SCORE.SYSTEM.SOLV>
0

>  <SCORE.SYSTEM.norm>
0

>  <SCORE.heavy>
42

>  <SCORE.norm>
-1.05969

>  <RMSD>
2.508

$$$$
lig.pdb
 OpenBabel11021811453D
libRbt.so/2013.1/901 2013/11/27
 42 45  0  0  0  0  0  0  0  0999 V2000
    1.0396    4.3498    1.0858 C   0  0  2  0  0  0  0  0  0  0  0  0
    0.1612    3.4951    0.3514 O   0  0  0  0  0  0  0  0  0  0  0  0
    0.2536    5.4630    1.7947 C   0  0  2  0  0  0  0  0  0  0  0  0
   -0.8111    4.8997    2.6453 N   0  0  0  0  0  0  0  0  0  0  0  0
   -0.3211    6.4613    0.7815 C   0  0  1  0  0  0  0  0  0  0  0  0
   -0.9043    7.5491    1.4729 O   0  0  0  0  0  0  0  0  0  0  0  0
    0.7908    6.9822   -0.1417 C   0  0  2  0  0  0  0  0  0  0  0  0
    0.2179    7.7748   -1.1640 O   0  0  0  0  0  0  0  0  0  0  0  0
    1.5950    5.8246   -0.7673 C   0  0  2  0  0  0  0  0  0  0  0  0
    2.0360    4.9043    0.2305 O   0  0  0  0  0  0  0  0  0  0  0  0
    2.8125    6.4258   -1.4951 C   0  0  0  0  0  0  0  0  0  0  0  0
    2.4302    7.1530   -2.6932 O   0  0  0  0  0  0  0  0  0  0  0  0
   -0.0107   -0.7905   -0.0169 C   0  0  2  0  0  0  0  0  0  0  0  0
    0.6014   -2.1340    0.0077 N   0  0  0  0  0  0  0  0  0  0  0  0
    0.6520    0.0765   -1.0904 C   0  0  0  0  0  0  0  0  0  0  0  0
    0.1245    1.5050   -1.0279 C   0  0  2  0  0  0  0  0  0  0  0  0
    0.6917    2.3031   -2.1221 N   0  0  0  0  0  0  0  0  0  0  0  0
    0.4711    2.0939    0.3593 C   0  0  2  0  0  0  0  0  0  0  0  0
   -0.3035    1.3472    1.3976 C   0  0  2  0  0  0  0  0  0  0  0  0
   -0.0041    1.9284    2.6534 O   0  0  0  0  0  0  0  0  0  0  0  0
    0.0834   -0.1193    1.3663 C   0  0  1  0  0  0  0  0  0  0  0  0
   -0.6817   -0.8903    2.2736 O   0  0  0  0  0  0  0  0  0  0  0  0
   -0.6188    1.3659    3.8078 C   0  0  1  0  0  0  0  0  0  0  0  0
    0.3875    1.4433    4.9579 C   0  0  2  0  0  0  0  0  0  0  0  0
    0.2512    0.2973    5.7770 O   0  0  0  0  0  0  0  0  0  0  0  0
   -0.0240    2.7385    5.6707 C   0  0  2  0  0  0  0  0  0  0  0  0
    0.4285    2.7932    7.0238 O   0  0  0  0  0  0  0  0  0  0  0  0
   -1.5465    2.6620    5.5031 C   0  0  2  0  0  0  0  0  0  0  0  0
   -1.7366    2.1582    4.1883 O   0  0  0  0  0  0  0  0  0  0  0  0
   -2.2657    4.0101    5.6286 C   0  0  0  0  0  0  0  0  0  0  0  0
   -3.6639    3.8682    5.4939 O   0  0  0  0  0  0  0  0  0  0  0  0
    0.2007    4.0406    7.6768 C   0  0  2  0  0  0  0  0  0  0  0  0
    1.1816    4.2644    8.8378 C   0  0  2  0  0  0  0  0  0  0  0  0
    2.5758    4.1476    8.3789 N   0  0  0  0  0  0  0  0  0  0  0  0
    0.8906    3.3055   10.0021 C   0  0  1  0  0  0  0  0  0  0  0  0
    1.7644    3.6144   11.0706 O   0  0  0  0  0  0  0  0  0  0  0  0
   -0.5712    3.5004   10.4389 C   0  0  2  0  0  0  0  0  0  0  0  0
   -0.9053    2.6067   11.4849 O   0  0  0  0  0  0  0  0  0  0  0  0
   -1.5333    3.3185    9.2468 C   0  0  1  0  0  0  0  0  0  0  0  0
   -1.1469    4.1286    8.1343 O   0  0  0  0  0  0  0  0  0  0  0  0
   -1.7337    1.8498    8.8449 C   0  0  0  0  0  0  0  0  0  0  0  0
   -2.5154    1.1192    9.8556 N   0  0  0  0  0  0  0  0  0  0  0  0
  1  3  1  0  0  0  0
  1  2  1  6  0  0  0
  3  4  1  6  0  0  0
  5  6  1  1  0  0  0
  5  3  1  0  0  0  0
  7  9  1  0  0  0  0
  7  5  1  0  0  0  0
  7  8  1  6  0  0  0
  9 10  1  0  0  0  0
  9 11  1  1  0  0  0
 10  1  1  0  0  0  0
 11 12  1  0  0  0  0
 13 14  1  1  0  0  0
 13 21  1  0  0  0  0
 15 13  1  0  0  0  0
 16 15  1  0  0  0  0
 16 18  1  0  0  0  0
 16 17  1  6  0  0  0
 18  2  1  6  0  0  0
 18 19  1  0  0  0  0
 19 21  1  0  0  0  0
 19 20  1  1  0  0  0
 21 22  1  1  0  0  0
 23 20  1  6  0  0  0
 23 29  1  0  0  0  0
 23 24  1  0  0  0  0
 24 26  1  0  0  0  0
 24 25  1  1  0  0  0
 26 27  1  1  0  0  0
 28 26  1  0  0  0  0
 28 30  1  6  0  0  0
 29 28  1  0  0  0  0
 30 31  1  0  0  0  0
 32 27  1  1  0  0  0
 32 40  1  0  0  0  0
 32 33  1  0  0  0  0
 33 35  1  0  0  0  0
 33 34  1  6  0  0  0
 35 37  1  0  0  0  0
 35 36  1  1  0  0  0
 37 38  1  1  0  0  0
 39 37  1  0  0  0  0
 39 41  1  6  0  0  0
 40 39  1  0  0  0  0
 42 41  1  0  0  0  0
M  END
>  <CHROM.1>
-143.82046570,-141.74103073,-84.32403545,-161.69024086,21.40057672,178.33428545
-70.37642582,-50.33179307,69.62124121,-179.18320823,144.29451770,-59.34831369
67.94047245,173.22207728,-155.71616478,-178.71519644,63.25809817,66.48376417
59.84258994,168.22326204,70.51181785,-63.42970403,-0.00456130,3.19233691
3.77807041,-0.79251352,1.38546189,0.92068570

>  <Name>
lig.pdb

>  <RI>
0

>  <Rbt.Current_Directory>
/home/itssahil/PROJECTS/Mol_Feturizer/New_Systems/rnas/2mxs

>  <Rbt.Executable>
rbdock ($Id: //depot/dev/client3/rdock/2013.1/src/exe/rbdock.cxx#4 $)

>  <Rbt.Library>
libRbt.so (2013.1, Build901 2013/11/27)

>  <Rbt.Parameter_File>
/export/apps/rDock/src/rDock_2013.1_src/data/scripts/dock_solv.prm

>  <Rbt.Receptor>
prm/pocket_docking_3.prm

>  <SCORE>
-32.2638

>  <SCORE.INTER>
-32.467

>  <SCORE.INTER.CONST>
1

>  <SCORE.INTER.POLAR>
-3.81584

>  <SCORE.INTER.ROT>
9

>  <SCORE.INTER.SOLV>
15.0437

>  <SCORE.INTER.VDW>
-23.5398

>  <SCORE.INTER.norm>
-0.773024

>  <SCORE.INTRA>
0.201871

>  <SCORE.INTRA.DIHEDRAL>
-1.87744

>  <SCORE.INTRA.DIHEDRAL.0>
30.1357

>  <SCORE.INTRA.POLAR>
-0.484028

>  <SCORE.INTRA.POLAR.0>
-0.631696

>  <SCORE.INTRA.REPUL>
0

>  <SCORE.INTRA.REPUL.0>
0

>  <SCORE.INTRA.SOLV>
0.162979

>  <SCORE.INTRA.SOLV.lig_0>
-55.904

>  <SCORE.INTRA.VDW>
2.7048

>  <SCORE.INTRA.VDW.0>
-8.21197

>  <SCORE.INTRA.norm>
0.00480646

>  <SCORE.RESTR>
0.00136253

>  <SCORE.RESTR.CAVITY>
0.00136253

>  <SCORE.RESTR.norm>
3.24411e-05

>  <SCORE.SYSTEM>
0

>  <SCORE.SYSTEM.CONST>
0

>  <SCORE.SYSTEM.DIHEDRAL>
0

>  <SCORE.SYSTEM.SOLV>
0

>  <SCORE.SYSTEM.norm>
0

>  <SCORE.heavy>
42

>  <SCORE.norm>
-0.768185

>  <RMSD>
2.513

$$$$
lig.pdb
 OpenBabel11021811453D
libRbt.so/2013.1/901 2013/11/27
 42 45  0  0  0  0  0  0  0  0999 V2000
    0.6516    4.3786    1.1511 C   0  0  2  0  0  0  0  0  0  0  0  0
   -0.6282    3.9024    0.7307 O   0  0  0  0  0  0  0  0  0  0  0  0
    0.6828    5.9142    1.1761 C   0  0  2  0  0  0  0  0  0  0  0  0
   -0.4094    6.4522    2.0080 N   0  0  0  0  0  0  0  0  0  0  0  0
    0.6268    6.4886   -0.2453 C   0  0  1  0  0  0  0  0  0  0  0  0
    0.8111    7.8904   -0.1930 O   0  0  0  0  0  0  0  0  0  0  0  0
    1.7269    5.8628   -1.1159 C   0  0  2  0  0  0  0  0  0  0  0  0
    1.5599    6.2838   -2.4562 O   0  0  0  0  0  0  0  0  0  0  0  0
    1.6966    4.3225   -1.0449 C   0  0  2  0  0  0  0  0  0  0  0  0
    1.6817    3.8685    0.3081 O   0  0  0  0  0  0  0  0  0  0  0  0
    2.9507    3.7854   -1.7602 C   0  0  0  0  0  0  0  0  0  0  0  0
    3.2438    2.4106   -1.3936 O   0  0  0  0  0  0  0  0  0  0  0  0
   -3.2281    0.9870    2.5395 C   0  0  2  0  0  0  0  0  0  0  0  0
   -3.4835   -0.2956    3.2251 N   0  0  0  0  0  0  0  0  0  0  0  0
   -2.5813    0.7408    1.1742 C   0  0  0  0  0  0  0  0  0  0  0  0
   -2.1861    2.0603    0.5216 C   0  0  2  0  0  0  0  0  0  0  0  0
   -1.6574    1.8205   -0.8270 N   0  0  0  0  0  0  0  0  0  0  0  0
   -1.1543    2.7662    1.4318 C   0  0  2  0  0  0  0  0  0  0  0  0
   -1.8330    3.1507    2.7073 C   0  0  2  0  0  0  0  0  0  0  0  0
   -0.8837    3.8312    3.5075 O   0  0  0  0  0  0  0  0  0  0  0  0
   -2.3479    1.9068    3.4065 C   0  0  1  0  0  0  0  0  0  0  0  0
   -3.0742    2.2189    4.5804 O   0  0  0  0  0  0  0  0  0  0  0  0
   -1.3343    4.3978    4.7334 C   0  0  1  0  0  0  0  0  0  0  0  0
   -0.8940    3.4695    5.8672 C   0  0  2  0  0  0  0  0  0  0  0  0
   -1.8888    3.4553    6.8736 O   0  0  0  0  0  0  0  0  0  0  0  0
    0.4173    4.1161    6.3336 C   0  0  2  0  0  0  0  0  0  0  0  0
    0.7781    3.7391    7.6627 O   0  0  0  0  0  0  0  0  0  0  0  0
    0.0603    5.5973    6.1585 C   0  0  2  0  0  0  0  0  0  0  0  0
   -0.6862    5.6448    4.9506 O   0  0  0  0  0  0  0  0  0  0  0  0
    1.2708    6.5296    6.0327 C   0  0  0  0  0  0  0  0  0  0  0  0
    2.4469    5.9244    6.5264 O   0  0  0  0  0  0  0  0  0  0  0  0
    2.0293    3.0630    7.7698 C   0  0  2  0  0  0  0  0  0  0  0  0
    1.8600    1.5371    7.7147 C   0  0  2  0  0  0  0  0  0  0  0  0
    1.1352    1.1316    6.4989 N   0  0  0  0  0  0  0  0  0  0  0  0
    1.1710    1.0097    8.9823 C   0  0  1  0  0  0  0  0  0  0  0  0
    1.1204   -0.4023    8.9144 O   0  0  0  0  0  0  0  0  0  0  0  0
    1.9944    1.4529   10.2036 C   0  0  2  0  0  0  0  0  0  0  0  0
    1.3776    1.0279   11.4050 O   0  0  0  0  0  0  0  0  0  0  0  0
    2.1920    2.9828   10.2112 C   0  0  1  0  0  0  0  0  0  0  0  0
    2.7080    3.4499    8.9626 O   0  0  0  0  0  0  0  0  0  0  0  0
    0.9362    3.7568   10.6386 C   0  0  0  0  0  0  0  0  0  0  0  0
    1.0021    5.1636   10.2111 N   0  0  0  0  0  0  0  0  0  0  0  0
  1  3  1  0  0  0  0
  1  2  1  6  0  0  0
  3  4  1  1  0  0  0
  5  6  1  1  0  0  0
  5  3  1  0  0  0  0
  7  9  1  0  0  0  0
  7  5  1  0  0  0  0
  7  8  1  6  0  0  0
  9 10  1  0  0  0  0
  9 11  1  1  0  0  0
 10  1  1  0  0  0  0
 11 12  1  0  0  0  0
 13 14  1  1  0  0  0
 13 21  1  0  0  0  0
 15 13  1  0  0  0  0
 16 15  1  0  0  0  0
 16 18  1  0  0  0  0
 16 17  1  6  0  0  0
 18  2  1  6  0  0  0
 18 19  1  0  0  0  0
 19 21  1  0  0  0  0
 19 20  1  1  0  0  0
 21 22  1  1  0  0  0
 23 20  1  6  0  0  0
 23 29  1  0  0  0  0
 23 24  1  0  0  0  0
 24 26  1  0  0  0  0
 24 25  1  1  0  0  0
 26 27  1  1  0  0  0
 28 26  1  0  0  0  0
 28 30  1  6  0  0  0
 29 28  1  0  0  0  0
 30 31  1  0  0  0  0
 32 27  1  1  0  0  0
 32 40  1  0  0  0  0
 32 33  1  0  0  0  0
 33 35  1  0  0  0  0
 33 34  1  6  0  0  0
 35 37  1  0  0  0  0
 35 36  1  6  0  0  0
 37 38  1  1  0  0  0
 39 37  1  0  0  0  0
 39 41  1  6  0  0  0
 40 39  1  0  0  0  0
 42 41  1  0  0  0  0
M  END
>  <CHROM.1>
-157.04396184,-139.09873991,157.96419875,-60.91885201,60.33163614,-55.53456300
161.66457849,71.63349746,154.23805327,174.75199675,102.18310888,63.27584767
56.02045404,119.38801807,-93.13789640,-19.13272778,72.62744768,158.59872032
178.38654656,-51.24131616,-160.88590616,-171.57429327,0.23339896,3.51768407
4.20272244,-1.68762489,0.89044798,1.84532907

>  <Name>
lig.pdb

>  <RI>
0

>  <Rbt.Current_Directory>
/home/itssahil/PROJECTS/Mol_Feturizer/New_Systems/rnas/2mxs

>  <Rbt.Executable>
rbdock ($Id: //depot/dev/client3/rdock/2013.1/src/exe/rbdock.cxx#4 $)

>  <Rbt.Library>
libRbt.so (2013.1, Build901 2013/11/27)

>  <Rbt.Parameter_File>
/export/apps/rDock/src/rDock_2013.1_src/data/scripts/dock_solv.prm

>  <Rbt.Receptor>
prm/pocket_docking_4.prm

>  <SCORE>
-28.864

>  <SCORE.INTER>
-27.7052

>  <SCORE.INTER.CONST>
1

>  <SCORE.INTER.POLAR>
-3.1057

>  <SCORE.INTER.ROT>
9

>  <SCORE.INTER.SOLV>
17.9959

>  <SCORE.INTER.VDW>
-23.7164

>  <SCORE.INTER.norm>
-0.659648

>  <SCORE.INTRA>
-1.21027

>  <SCORE.INTRA.DIHEDRAL>
6.99521

>  <SCORE.INTRA.DIHEDRAL.0>
30.1357

>  <SCORE.INTRA.POLAR>
-2.19514

>  <SCORE.INTRA.POLAR.0>
-0.631696

>  <SCORE.INTRA.REPUL>
0

>  <SCORE.INTRA.REPUL.0>
0

>  <SCORE.INTRA.SOLV>
0.946265

>  <SCORE.INTRA.SOLV.lig_0>
-55.904

>  <SCORE.INTRA.VDW>
2.28246

>  <SCORE.INTRA.VDW.0>
-8.21197

>  <SCORE.INTRA.norm>
-0.0288158

>  <SCORE.RESTR>
0.0514646

>  <SCORE.RESTR.CAVITY>
0.0514646

>  <SCORE.RESTR.norm>
0.00122535

>  <SCORE.SYSTEM>
0

>  <SCORE.SYSTEM.CONST>
0

>  <SCORE.SYSTEM.DIHEDRAL>
0

>  <SCORE.SYSTEM.SOLV>
0

>  <SCORE.SYSTEM.norm>
0

>  <SCORE.heavy>
42

>  <SCORE.norm>
-0.687238

>  <RMSD>
2.564

$$$$
lig.pdb
 OpenBabel11021811453D
libRbt.so/2013.1/901 2013/11/27
 42 45  0  0  0  0  0  0  0  0999 V2000
    0.8466    3.6661    1.3259 C   0  0  2  0  0  0  0  0  0  0  0  0
   -0.3184    2.9444    0.9216 O   0  0  0  0  0  0  0  0  0  0  0  0
    0.5527    5.1709    1.4202 C   0  0  2  0  0  0  0  0  0  0  0  0
   -0.5961    5.4311    2.3073 N   0  0  0  0  0  0  0  0  0  0  0  0
    0.3221    5.7744    0.0288 C   0  0  1  0  0  0  0  0  0  0  0  0
    0.2071    7.1801    0.1397 O   0  0  0  0  0  0  0  0  0  0  0  0
    1.4958    5.4316   -0.9012 C   0  0  2  0  0  0  0  0  0  0  0  0
    1.1924    5.8587   -2.2153 O   0  0  0  0  0  0  0  0  0  0  0  0
    1.7951    3.9188   -0.8998 C   0  0  2  0  0  0  0  0  0  0  0  0
    1.9284    3.4203    0.4309 O   0  0  0  0  0  0  0  0  0  0  0  0
    3.1065    3.6894   -1.6751 C   0  0  0  0  0  0  0  0  0  0  0  0
    4.2741    4.0807   -0.9045 O   0  0  0  0  0  0  0  0  0  0  0  0
   -1.0009   -1.2620    0.3124 C   0  0  2  0  0  0  0  0  0  0  0  0
   -0.5510   -2.6284   -0.0203 N   0  0  0  0  0  0  0  0  0  0  0  0
   -0.7459   -0.3167   -0.8642 C   0  0  0  0  0  0  0  0  0  0  0  0
   -1.0764    1.1206   -0.4796 C   0  0  2  0  0  0  0  0  0  0  0  0
   -0.9229    2.0045   -1.6419 N   0  0  0  0  0  0  0  0  0  0  0  0
   -0.1562    1.5373    0.6913 C   0  0  2  0  0  0  0  0  0  0  0  0
   -0.5168    0.7206    1.8907 C   0  0  2  0  0  0  0  0  0  0  0  0
    0.3074    1.1463    2.9603 O   0  0  0  0  0  0  0  0  0  0  0  0
   -0.3057   -0.7509    1.5883 C   0  0  1  0  0  0  0  0  0  0  0  0
   -0.7118   -1.5779    2.6626 O   0  0  0  0  0  0  0  0  0  0  0  0
    0.0241    0.6367    4.2591 C   0  0  1  0  0  0  0  0  0  0  0  0
    0.8557    1.4343    5.2659 C   0  0  2  0  0  0  0  0  0  0  0  0
    1.2761    0.5762    6.3098 O   0  0  0  0  0  0  0  0  0  0  0  0
   -0.1356    2.5066    5.7377 C   0  0  2  0  0  0  0  0  0  0  0  0
    0.2186    3.0701    7.0010 O   0  0  0  0  0  0  0  0  0  0  0  0
   -1.4324    1.6878    5.7383 C   0  0  2  0  0  0  0  0  0  0  0  0
   -1.3414    0.8730    4.5781 O   0  0  0  0  0  0  0  0  0  0  0  0
   -2.7119    2.5286    5.6572 C   0  0  0  0  0  0  0  0  0  0  0  0
   -3.8690    1.7229    5.7291 O   0  0  0  0  0  0  0  0  0  0  0  0
   -0.8405    3.7593    7.6624 C   0  0  2  0  0  0  0  0  0  0  0  0
   -0.3118    4.8724    8.5797 C   0  0  2  0  0  0  0  0  0  0  0  0
    0.5492    5.8049    7.8332 N   0  0  0  0  0  0  0  0  0  0  0  0
    0.4172    4.2869    9.7984 C   0  0  1  0  0  0  0  0  0  0  0  0
    0.8044    5.3504   10.6468 O   0  0  0  0  0  0  0  0  0  0  0  0
   -0.5486    3.3442   10.5363 C   0  0  2  0  0  0  0  0  0  0  0  0
    0.0895    2.7423   11.6476 O   0  0  0  0  0  0  0  0  0  0  0  0
   -1.1033    2.2651    9.5837 C   0  0  1  0  0  0  0  0  0  0  0  0
   -1.6512    2.8455    8.3979 O   0  0  0  0  0  0  0  0  0  0  0  0
   -0.0901    1.1560    9.2642 C   0  0  0  0  0  0  0  0  0  0  0  0
    0.3399    0.4548   10.4848 N   0  0  0  0  0  0  0  0  0  0  0  0
  1  3  1  0  0  0  0
  1  2  1  6  0  0  0
  3  4  1  1  0  0  0
  5  6  1  1  0  0  0
  5  3  1  0  0  0  0
  7  9  1  0  0  0  0
  7  5  1  0  0  0  0
  7  8  1  6  0  0  0
  9 10  1  0  0  0  0
  9 11  1  6  0  0  0
 10  1  1  0  0  0  0
 11 12  1  0  0  0  0
 13 14  1  6  0  0  0
 13 21  1  0  0  0  0
 15 13  1  0  0  0  0
 16 15  1  0  0  0  0
 16 18  1  0  0  0  0
 16 17  1  6  0  0  0
 18  2  1  1  0  0  0
 18 19  1  0  0  0  0
 19 21  1  0  0  0  0
 19 20  1  1  0  0  0
 21 22  1  1  0  0  0
 23 20  1  6  0  0  0
 23 29  1  0  0  0  0
 23 24  1  0  0  0  0
 24 26  1  0  0  0  0
 24 25  1  1  0  0  0
 26 27  1  1  0  0  0
 28 26  1  0  0  0  0
 28 30  1  6  0  0  0
 29 28  1  0  0  0  0
 30 31  1  0  0  0  0
 32 27  1  1  0  0  0
 32 40  1  0  0  0  0
 32 33  1  0  0  0  0
 33 35  1  0  0  0  0
 33 34  1  6  0  0  0
 35 37  1  0  0  0  0
 35 36  1  1  0  0  0
 37 38  1  1  0  0  0
 39 37  1  0  0  0  0
 39 41  1  6  0  0  0
 40 39  1  0  0  0  0
 42 41  1  0  0  0  0
M  END
>  <CHROM.1>
-144.84832632,175.23775725,69.50817124,52.35658392,-61.68363103,-179.38822792
75.19372816,164.44681196,39.29679317,171.71024855,-169.27063992,-62.20451526
61.32721725,-162.31530889,-151.94406034,-177.05064096,61.64108494,62.03018238
-177.41195279,69.49971751,59.94182113,-166.90294568,0.00414276,2.59209525
3.87421388,-1.22679082,1.25734725,1.24139691

>  <Name>
lig.pdb

>  <RI>
0

>  <Rbt.Current_Directory>
/home/itssahil/PROJECTS/Mol_Feturizer/New_Systems/rnas/2mxs

>  <Rbt.Executable>
rbdock ($Id: //depot/dev/client3/rdock/2013.1/src/exe/rbdock.cxx#4 $)

>  <Rbt.Library>
libRbt.so (2013.1, Build901 2013/11/27)

>  <Rbt.Parameter_File>
/export/apps/rDock/src/rDock_2013.1_src/data/scripts/dock_solv.prm

>  <Rbt.Receptor>
prm/pocket_docking_3.prm

>  <SCORE>
-36.9173

>  <SCORE.INTER>
-32.4319

>  <SCORE.INTER.CONST>
1

>  <SCORE.INTER.POLAR>
-4.202

>  <SCORE.INTER.ROT>
9

>  <SCORE.INTER.SOLV>
16.7959

>  <SCORE.INTER.VDW>
-22.8132

>  <SCORE.INTER.norm>
-0.772188

>  <SCORE.INTRA>
-4.48541

>  <SCORE.INTRA.DIHEDRAL>
-15.3059

>  <SCORE.INTRA.DIHEDRAL.0>
30.1357

>  <SCORE.INTRA.POLAR>
-0.135628

>  <SCORE.INTRA.POLAR.0>
-0.631696

>  <SCORE.INTRA.REPUL>
0

>  <SCORE.INTRA.REPUL.0>
0

>  <SCORE.INTRA.SOLV>
-0.40822

>  <SCORE.INTRA.SOLV.lig_0>
-55.904

>  <SCORE.INTRA.VDW>
3.83281

>  <SCORE.INTRA.VDW.0>
-8.21197

>  <SCORE.INTRA.norm>
-0.106795

>  <SCORE.RESTR>
0

>  <SCORE.RESTR.CAVITY>
0

>  <SCORE.RESTR.norm>
0

>  <SCORE.SYSTEM>
0

>  <SCORE.SYSTEM.CONST>
0

>  <SCORE.SYSTEM.DIHEDRAL>
0

>  <SCORE.SYSTEM.SOLV>
0

>  <SCORE.SYSTEM.norm>
0

>  <SCORE.heavy>
42

>  <SCORE.norm>
-0.878984

>  <RMSD>
2.586

$$$$
lig.pdb
 OpenBabel11021811453D
libRbt.so/2013.1/901 2013/11/27
 42 45  0  0  0  0  0  0  0  0999 V2000
    0.3528    3.9860    1.8241 C   0  0  2  0  0  0  0  0  0  0  0  0
   -0.6113    3.1173    1.2264 O   0  0  0  0  0  0  0  0  0  0  0  0
   -0.2486    5.3757    2.0825 C   0  0  2  0  0  0  0  0  0  0  0  0
   -1.4806    5.2778    2.8869 N   0  0  0  0  0  0  0  0  0  0  0  0
   -0.5089    6.1160    0.7643 C   0  0  1  0  0  0  0  0  0  0  0  0
   -0.9164    7.4419    1.0428 O   0  0  0  0  0  0  0  0  0  0  0  0
    0.7670    6.1447   -0.0907 C   0  0  2  0  0  0  0  0  0  0  0  0
    0.4670    6.6886   -1.3618 O   0  0  0  0  0  0  0  0  0  0  0  0
    1.3694    4.7346   -0.2552 C   0  0  2  0  0  0  0  0  0  0  0  0
    1.5169    4.0860    1.0076 O   0  0  0  0  0  0  0  0  0  0  0  0
    2.7466    4.8780   -0.9305 C   0  0  0  0  0  0  0  0  0  0  0  0
    3.3699    3.5902   -1.1823 O   0  0  0  0  0  0  0  0  0  0  0  0
   -0.4902   -1.0934    0.3400 C   0  0  2  0  0  0  0  0  0  0  0  0
    0.2220   -2.3423    0.0031 N   0  0  0  0  0  0  0  0  0  0  0  0
   -0.2651   -0.0421   -0.7496 C   0  0  0  0  0  0  0  0  0  0  0  0
   -0.8786    1.2925   -0.3429 C   0  0  2  0  0  0  0  0  0  0  0  0
   -0.7439    2.2658   -1.4340 N   0  0  0  0  0  0  0  0  0  0  0  0
   -0.1856    1.7745    0.9528 C   0  0  2  0  0  0  0  0  0  0  0  0
   -0.5387    0.8310    2.0576 C   0  0  2  0  0  0  0  0  0  0  0  0
    0.0705    1.3129    3.2413 O   0  0  0  0  0  0  0  0  0  0  0  0
   -0.0457   -0.5624    1.7158 C   0  0  1  0  0  0  0  0  0  0  0  0
   -0.4270   -1.5151    2.6905 O   0  0  0  0  0  0  0  0  0  0  0  0
   -0.4315    0.8381    4.4861 C   0  0  1  0  0  0  0  0  0  0  0  0
    0.6646    1.0307    5.5363 C   0  0  2  0  0  0  0  0  0  0  0  0
    0.6263   -0.0447    6.4555 O   0  0  0  0  0  0  0  0  0  0  0  0
    0.2806    2.3734    6.1726 C   0  0  2  0  0  0  0  0  0  0  0  0
    0.8424    2.5501    7.4733 O   0  0  0  0  0  0  0  0  0  0  0  0
   -1.2481    2.2546    6.1417 C   0  0  2  0  0  0  0  0  0  0  0  0
   -1.5338    1.6386    4.8938 O   0  0  0  0  0  0  0  0  0  0  0  0
   -1.9888    3.5948    6.2166 C   0  0  0  0  0  0  0  0  0  0  0  0
   -1.3439    4.5890    5.4492 O   0  0  0  0  0  0  0  0  0  0  0  0
    0.5718    3.8166    8.0706 C   0  0  2  0  0  0  0  0  0  0  0  0
    1.7847    4.3525    8.8465 C   0  0  2  0  0  0  0  0  0  0  0  0
    2.9768    4.4114    7.9843 N   0  0  0  0  0  0  0  0  0  0  0  0
    2.0457    3.5201   10.1109 C   0  0  1  0  0  0  0  0  0  0  0  0
    3.1143    4.1090   10.8264 O   0  0  0  0  0  0  0  0  0  0  0  0
    0.7682    3.5233   10.9675 C   0  0  2  0  0  0  0  0  0  0  0  0
    0.9412    2.7319   12.1286 O   0  0  0  0  0  0  0  0  0  0  0  0
   -0.4445    3.0275   10.1532 C   0  0  1  0  0  0  0  0  0  0  0  0
   -0.5715    3.7372    8.9189 O   0  0  0  0  0  0  0  0  0  0  0  0
   -0.4564    1.5060    9.9440 C   0  0  0  0  0  0  0  0  0  0  0  0
   -0.7270    0.7937   11.2032 N   0  0  0  0  0  0  0  0  0  0  0  0
  1  3  1  0  0  0  0
  1  2  1  6  0  0  0
  3  4  1  6  0  0  0
  5  6  1  1  0  0  0
  5  3  1  0  0  0  0
  7  9  1  0  0  0  0
  7  5  1  0  0  0  0
  7  8  1  6  0  0  0
  9 10  1  0  0  0  0
  9 11  1  1  0  0  0
 10  1  1  0  0  0  0
 11 12  1  0  0  0  0
 13 14  1  6  0  0  0
 13 21  1  0  0  0  0
 15 13  1  0  0  0  0
 16 15  1  0  0  0  0
 16 18  1  0  0  0  0
 16 17  1  6  0  0  0
 18  2  1  1  0  0  0
 18 19  1  0  0  0  0
 19 21  1  0  0  0  0
 19 20  1  1  0  0  0
 21 22  1  1  0  0  0
 23 20  1  6  0  0  0
 23 29  1  0  0  0  0
 23 24  1  0  0  0  0
 24 26  1  0  0  0  0
 24 25  1  1  0  0  0
 26 27  1  1  0  0  0
 28 26  1  0  0  0  0
 28 30  1  6  0  0  0
 29 28  1  0  0  0  0
 30 31  1  0  0  0  0
 32 27  1  1  0  0  0
 32 40  1  0  0  0  0
 32 33  1  0  0  0  0
 33 35  1  0  0  0  0
 33 34  1  6  0  0  0
 35 37  1  0  0  0  0
 35 36  1  1  0  0  0
 37 38  1  1  0  0  0
 39 37  1  0  0  0  0
 39 41  1  6  0  0  0
 40 39  1  0  0  0  0
 42 41  1  0  0  0  0
M  END
>  <CHROM.1>
-145.66119378,-178.91418954,-61.93926532,-162.28776829,176.13122966,-60.80105881
-177.45866009,-129.60687018,157.10212890,161.34005066,158.24218257,75.86548937
152.46958071,176.67256146,-141.34481400,39.74757667,-172.23873761,67.60606309
59.60648234,59.97231397,69.75254673,70.54380487,0.23927261,2.80929944,4.24043391
-1.78429534,1.40736343,1.80218954

>  <Name>
lig.pdb

>  <RI>
0

>  <Rbt.Current_Directory>
/home/itssahil/PROJECTS/Mol_Feturizer/New_Systems/rnas/2mxs

>  <Rbt.Executable>
rbdock ($Id: //depot/dev/client3/rdock/2013.1/src/exe/rbdock.cxx#4 $)

>  <Rbt.Library>
libRbt.so (2013.1, Build901 2013/11/27)

>  <Rbt.Parameter_File>
/export/apps/rDock/src/rDock_2013.1_src/data/scripts/dock_solv.prm

>  <Rbt.Receptor>
prm/pocket_docking_3.prm

>  <SCORE>
-41.4011

>  <SCORE.INTER>
-38.3803

>  <SCORE.INTER.CONST>
1

>  <SCORE.INTER.POLAR>
-5.20497

>  <SCORE.INTER.ROT>
9

>  <SCORE.INTER.SOLV>
16.5771

>  <SCORE.INTER.VDW>
-23.3626

>  <SCORE.INTER.norm>
-0.913816

>  <SCORE.INTRA>
-3.03519

>  <SCORE.INTRA.DIHEDRAL>
-3.48319

>  <SCORE.INTRA.DIHEDRAL.0>
30.1357

>  <SCORE.INTRA.POLAR>
-1.05702

>  <SCORE.INTRA.POLAR.0>
-0.631696

>  <SCORE.INTRA.REPUL>
0

>  <SCORE.INTRA.REPUL.0>
0

>  <SCORE.INTRA.SOLV>
0.639678

>  <SCORE.INTRA.SOLV.lig_0>
-55.904

>  <SCORE.INTRA.VDW>
1.98045

>  <SCORE.INTRA.VDW.0>
-8.21197

>  <SCORE.INTRA.norm>
-0.0722665

>  <SCORE.RESTR>
0.0143357

>  <SCORE.RESTR.CAVITY>
0.0143357

>  <SCORE.RESTR.norm>
0.000341326

>  <SCORE.SYSTEM>
0

>  <SCORE.SYSTEM.CONST>
0

>  <SCORE.SYSTEM.DIHEDRAL>
0

>  <SCORE.SYSTEM.SOLV>
0

>  <SCORE.SYSTEM.norm>
0

>  <SCORE.heavy>
42

>  <SCORE.norm>
-0.985741

>  <RMSD>
2.587

$$$$
lig.pdb
 OpenBabel11021811453D
libRbt.so/2013.1/901 2013/11/27
 42 45  0  0  0  0  0  0  0  0999 V2000
    0.8274    4.1728    0.3773 C   0  0  2  0  0  0  0  0  0  0  0  0
   -0.0037    3.2944   -0.3838 O   0  0  0  0  0  0  0  0  0  0  0  0
    0.3506    5.6272    0.2466 C   0  0  2  0  0  0  0  0  0  0  0  0
   -1.0719    5.7527    0.6143 N   0  0  0  0  0  0  0  0  0  0  0  0
    0.6032    6.1636   -1.1683 C   0  0  1  0  0  0  0  0  0  0  0  0
    0.2953    7.5439   -1.2092 O   0  0  0  0  0  0  0  0  0  0  0  0
    2.0742    5.9585   -1.5604 C   0  0  2  0  0  0  0  0  0  0  0  0
    2.2507    6.3122   -2.9187 O   0  0  0  0  0  0  0  0  0  0  0  0
    2.5204    4.4991   -1.3387 C   0  0  2  0  0  0  0  0  0  0  0  0
    2.1898    4.0524   -0.0240 O   0  0  0  0  0  0  0  0  0  0  0  0
    4.0455    4.4280   -1.5441 C   0  0  0  0  0  0  0  0  0  0  0  0
    4.5085    3.0657   -1.7441 O   0  0  0  0  0  0  0  0  0  0  0  0
   -0.6542   -0.9355    0.0811 C   0  0  2  0  0  0  0  0  0  0  0  0
   -0.1825   -2.3199    0.2839 N   0  0  0  0  0  0  0  0  0  0  0  0
   -0.0647   -0.3559   -1.2072 C   0  0  0  0  0  0  0  0  0  0  0  0
   -0.4324    1.1161   -1.3511 C   0  0  2  0  0  0  0  0  0  0  0  0
    0.0532    1.6367   -2.6353 N   0  0  0  0  0  0  0  0  0  0  0  0
    0.1622    1.8882   -0.1504 C   0  0  2  0  0  0  0  0  0  0  0  0
   -0.5303    1.4339    1.0944 C   0  0  2  0  0  0  0  0  0  0  0  0
   -0.0014    2.1817    2.1741 O   0  0  0  0  0  0  0  0  0  0  0  0
   -0.3007   -0.0524    1.2926 C   0  0  1  0  0  0  0  0  0  0  0  0
   -1.0046   -0.5542    2.4132 O   0  0  0  0  0  0  0  0  0  0  0  0
   -0.6468    2.0687    3.4380 C   0  0  1  0  0  0  0  0  0  0  0  0
   -0.2561    3.2897    4.2733 C   0  0  2  0  0  0  0  0  0  0  0  0
   -0.1266    2.9070    5.6296 O   0  0  0  0  0  0  0  0  0  0  0  0
   -1.4327    4.2452    4.0326 C   0  0  2  0  0  0  0  0  0  0  0  0
   -1.5554    5.2392    5.0503 O   0  0  0  0  0  0  0  0  0  0  0  0
   -2.5865    3.2366    3.9746 C   0  0  2  0  0  0  0  0  0  0  0  0
   -2.0567    2.1276    3.2619 O   0  0  0  0  0  0  0  0  0  0  0  0
   -3.8361    3.7454    3.2465 C   0  0  0  0  0  0  0  0  0  0  0  0
   -4.8393    2.7543    3.1804 O   0  0  0  0  0  0  0  0  0  0  0  0
   -1.8816    4.7302    6.3420 C   0  0  2  0  0  0  0  0  0  0  0  0
   -3.0879    5.4583    6.9543 C   0  0  2  0  0  0  0  0  0  0  0  0
   -4.2487    5.4061    6.0499 N   0  0  0  0  0  0  0  0  0  0  0  0
   -2.7310    6.9048    7.3283 C   0  0  1  0  0  0  0  0  0  0  0  0
   -3.8482    7.4958    7.9633 O   0  0  0  0  0  0  0  0  0  0  0  0
   -1.5290    6.8767    8.2875 C   0  0  2  0  0  0  0  0  0  0  0  0
   -1.1307    8.1912    8.6308 O   0  0  0  0  0  0  0  0  0  0  0  0
   -0.3478    6.0993    7.6710 C   0  0  1  0  0  0  0  0  0  0  0  0
   -0.7541    4.8082    7.2113 O   0  0  0  0  0  0  0  0  0  0  0  0
    0.3979    6.8869    6.5836 C   0  0  0  0  0  0  0  0  0  0  0  0
    1.7438    6.3380    6.3518 N   0  0  0  0  0  0  0  0  0  0  0  0
  1  3  1  0  0  0  0
  1  2  1  6  0  0  0
  3  4  1  6  0  0  0
  5  6  1  1  0  0  0
  5  3  1  0  0  0  0
  7  9  1  0  0  0  0
  7  5  1  0  0  0  0
  7  8  1  6  0  0  0
  9 10  1  0  0  0  0
  9 11  1  1  0  0  0
 10  1  1  0  0  0  0
 11 12  1  0  0  0  0
 13 14  1  1  0  0  0
 13 21  1  0  0  0  0
 15 13  1  0  0  0  0
 16 15  1  0  0  0  0
 16 18  1  0  0  0  0
 16 17  1  6  0  0  0
 18  2  1  6  0  0  0
 18 19  1  0  0  0  0
 19 21  1  0  0  0  0
 19 20  1  1  0  0  0
 21 22  1  1  0  0  0
 23 20  1  6  0  0  0
 23 29  1  0  0  0  0
 23 24  1  0  0  0  0
 24 26  1  0  0  0  0
 24 25  1  1  0  0  0
 26 27  1  1  0  0  0
 28 26  1  0  0  0  0
 28 30  1  6  0  0  0
 29 28  1  0  0  0  0
 30 31  1  0  0  0  0
 32 27  1  6  0  0  0
 32 40  1  0  0  0  0
 32 33  1  0  0  0  0
 33 35  1  0  0  0  0
 33 34  1  6  0  0  0
 35 37  1  0  0  0  0
 35 36  1  1  0  0  0
 37 38  1  6  0  0  0
 39 37  1  0  0  0  0
 39 41  1  6  0  0  0
 40 39  1  0  0  0  0
 42 41  1  0  0  0  0
M  END
>  <CHROM.1>
-161.05723901,-168.26926105,-47.27313772,-65.62247074,170.16799759,-169.64284043
-163.20000172,122.74324854,-62.39747790,170.77612383,-159.80575966,-40.38773335
64.63062570,-65.28503853,-128.61135860,177.61906133,-60.66902858,165.23488224
-176.00740353,176.18465877,160.63433227,103.81440116,-0.45652983,3.91032448
2.54279295,-0.94782972,0.96844445,0.63620608

>  <Name>
lig.pdb

>  <RI>
0

>  <Rbt.Current_Directory>
/home/itssahil/PROJECTS/Mol_Feturizer/New_Systems/rnas/2mxs

>  <Rbt.Executable>
rbdock ($Id: //depot/dev/client3/rdock/2013.1/src/exe/rbdock.cxx#4 $)

>  <Rbt.Library>
libRbt.so (2013.1, Build901 2013/11/27)

>  <Rbt.Parameter_File>
/export/apps/rDock/src/rDock_2013.1_src/data/scripts/dock_solv.prm

>  <Rbt.Receptor>
prm/pocket_docking_6.prm

>  <SCORE>
-47.4965

>  <SCORE.INTER>
-52.5525

>  <SCORE.INTER.CONST>
1

>  <SCORE.INTER.POLAR>
-7.46105

>  <SCORE.INTER.ROT>
9

>  <SCORE.INTER.SOLV>
19.331

>  <SCORE.INTER.VDW>
-26.2085

>  <SCORE.INTER.norm>
-1.25125

>  <SCORE.INTRA>
5.05602

>  <SCORE.INTRA.DIHEDRAL>
-5.17752

>  <SCORE.INTRA.DIHEDRAL.0>
30.1357

>  <SCORE.INTRA.POLAR>
0.605313

>  <SCORE.INTRA.POLAR.0>
-0.631696

>  <SCORE.INTRA.REPUL>
0.100346

>  <SCORE.INTRA.REPUL.0>
0

>  <SCORE.INTRA.SOLV>
-0.779032

>  <SCORE.INTRA.SOLV.lig_0>
-55.904

>  <SCORE.INTRA.VDW>
5.4745

>  <SCORE.INTRA.VDW.0>
-8.21197

>  <SCORE.INTRA.norm>
0.120381

>  <SCORE.RESTR>
0

>  <SCORE.RESTR.CAVITY>
0

>  <SCORE.RESTR.norm>
0

>  <SCORE.SYSTEM>
0

>  <SCORE.SYSTEM.CONST>
0

>  <SCORE.SYSTEM.DIHEDRAL>
0

>  <SCORE.SYSTEM.SOLV>
0

>  <SCORE.SYSTEM.norm>
0

>  <SCORE.heavy>
42

>  <SCORE.norm>
-1.13087

>  <RMSD>
2.638

$$$$
lig.pdb
 OpenBabel11021811453D
libRbt.so/2013.1/901 2013/11/27
 42 45  0  0  0  0  0  0  0  0999 V2000
    1.4672    4.3034    0.3986 C   0  0  2  0  0  0  0  0  0  0  0  0
    0.5235    3.4682   -0.2746 O   0  0  0  0  0  0  0  0  0  0  0  0
    0.9593    5.7511    0.4757 C   0  0  2  0  0  0  0  0  0  0  0  0
   -0.3763    5.8108    1.0977 N   0  0  0  0  0  0  0  0  0  0  0  0
    0.9506    6.4055   -0.9118 C   0  0  1  0  0  0  0  0  0  0  0  0
    0.6256    7.7763   -0.7825 O   0  0  0  0  0  0  0  0  0  0  0  0
    2.3305    6.2697   -1.5729 C   0  0  2  0  0  0  0  0  0  0  0  0
    2.2588    6.7355   -2.9068 O   0  0  0  0  0  0  0  0  0  0  0  0
    2.8245    4.8089   -1.5558 C   0  0  2  0  0  0  0  0  0  0  0  0
    2.7378    4.2501   -0.2454 O   0  0  0  0  0  0  0  0  0  0  0  0
    4.2894    4.7931   -2.0323 C   0  0  0  0  0  0  0  0  0  0  0  0
    4.7840    3.4427   -2.2382 O   0  0  0  0  0  0  0  0  0  0  0  0
   -0.1445   -0.7571    0.2070 C   0  0  2  0  0  0  0  0  0  0  0  0
   -0.2265   -1.9871    1.0197 N   0  0  0  0  0  0  0  0  0  0  0  0
    1.2613   -0.1572    0.2902 C   0  0  0  0  0  0  0  0  0  0  0  0
    1.3157    1.1851   -0.4297 C   0  0  2  0  0  0  0  0  0  0  0  0
    2.6887    1.7053   -0.4293 N   0  0  0  0  0  0  0  0  0  0  0  0
    0.3290    2.1525    0.2644 C   0  0  2  0  0  0  0  0  0  0  0  0
   -1.0615    1.6489    0.0444 C   0  0  2  0  0  0  0  0  0  0  0  0
   -1.9498    2.5696    0.6509 O   0  0  0  0  0  0  0  0  0  0  0  0
   -1.2057    0.2665    0.6524 C   0  0  1  0  0  0  0  0  0  0  0  0
   -2.4802   -0.2948    0.4002 O   0  0  0  0  0  0  0  0  0  0  0  0
   -2.4343    2.2632    1.9541 C   0  0  1  0  0  0  0  0  0  0  0  0
   -1.2901    2.4919    2.9440 C   0  0  2  0  0  0  0  0  0  0  0  0
   -1.3621    1.5244    3.9743 O   0  0  0  0  0  0  0  0  0  0  0  0
   -1.5646    3.9168    3.4433 C   0  0  2  0  0  0  0  0  0  0  0  0
   -0.9449    4.1918    4.7000 O   0  0  0  0  0  0  0  0  0  0  0  0
   -3.0979    3.8977    3.4715 C   0  0  2  0  0  0  0  0  0  0  0  0
   -3.4680    3.1741    2.3063 O   0  0  0  0  0  0  0  0  0  0  0  0
   -3.7491    5.2849    3.4240 C   0  0  0  0  0  0  0  0  0  0  0  0
   -3.3045    6.0302    2.3105 O   0  0  0  0  0  0  0  0  0  0  0  0
   -1.4524    5.3417    5.3740 C   0  0  2  0  0  0  0  0  0  0  0  0
   -0.3307    6.1566    6.0358 C   0  0  2  0  0  0  0  0  0  0  0  0
    0.7023    6.5248    5.0532 N   0  0  0  0  0  0  0  0  0  0  0  0
    0.2726    5.4016    7.2297 C   0  0  1  0  0  0  0  0  0  0  0  0
    1.2355    6.2321    7.8493 O   0  0  0  0  0  0  0  0  0  0  0  0
   -0.8586    5.0719    8.2185 C   0  0  2  0  0  0  0  0  0  0  0  0
   -0.3619    4.3356    9.3211 O   0  0  0  0  0  0  0  0  0  0  0  0
   -1.9945    4.2963    7.5202 C   0  0  1  0  0  0  0  0  0  0  0  0
   -2.4348    4.9660    6.3366 O   0  0  0  0  0  0  0  0  0  0  0  0
   -1.6507    2.8237    7.2517 C   0  0  0  0  0  0  0  0  0  0  0  0
   -2.7089    2.1592    6.4740 N   0  0  0  0  0  0  0  0  0  0  0  0
  1  3  1  0  0  0  0
  1  2  1  6  0  0  0
  3  4  1  6  0  0  0
  5  6  1  1  0  0  0
  5  3  1  0  0  0  0
  7  9  1  0  0  0  0
  7  5  1  0  0  0  0
  7  8  1  6  0  0  0
  9 10  1  0  0  0  0
  9 11  1  1  0  0  0
 10  1  1  0  0  0  0
 11 12  1  0  0  0  0
 13 14  1  1  0  0  0
 13 21  1  0  0  0  0
 15 13  1  0  0  0  0
 16 15  1  0  0  0  0
 16 18  1  0  0  0  0
 16 17  1  1  0  0  0
 18  2  1  6  0  0  0
 18 19  1  0  0  0  0
 19 21  1  0  0  0  0
 19 20  1  1  0  0  0
 21 22  1  6  0  0  0
 23 20  1  6  0  0  0
 23 29  1  0  0  0  0
 23 24  1  0  0  0  0
 24 26  1  0  0  0  0
 24 25  1  1  0  0  0
 26 27  1  1  0  0  0
 28 26  1  0  0  0  0
 28 30  1  6  0  0  0
 29 28  1  0  0  0  0
 30 31  1  0  0  0  0
 32 27  1  1  0  0  0
 32 40  1  0  0  0  0
 32 33  1  0  0  0  0
 33 35  1  0  0  0  0
 33 34  1  6  0  0  0
 35 37  1  0  0  0  0
 35 36  1  1  0  0  0
 37 38  1  1  0  0  0
 39 37  1  0  0  0  0
 39 41  1  6  0  0  0
 40 39  1  0  0  0  0
 42 41  1  0  0  0  0
M  END
>  <CHROM.1>
-90.87071393,-140.08810124,-58.79596649,-155.47163508,-57.78426002,-169.48708046
-171.55496975,-51.76000811,72.14571743,-97.75957364,73.65502849,72.62842597
63.71518977,-163.75758029,-139.66460043,54.80502917,-64.11770490,170.69027968
-67.11090879,-55.75979750,-174.64114004,-148.51175874,-0.20023841,3.72312563
2.31736540,-0.77603706,0.99399135,0.75490584

>  <Name>
lig.pdb

>  <RI>
0

>  <Rbt.Current_Directory>
/home/itssahil/PROJECTS/Mol_Feturizer/New_Systems/rnas/2mxs

>  <Rbt.Executable>
rbdock ($Id: //depot/dev/client3/rdock/2013.1/src/exe/rbdock.cxx#4 $)

>  <Rbt.Library>
libRbt.so (2013.1, Build901 2013/11/27)

>  <Rbt.Parameter_File>
/export/apps/rDock/src/rDock_2013.1_src/data/scripts/dock_solv.prm

>  <Rbt.Receptor>
prm/pocket_docking_3.prm

>  <SCORE>
-26.7334

>  <SCORE.INTER>
-29.688

>  <SCORE.INTER.CONST>
1

>  <SCORE.INTER.POLAR>
-3.03941

>  <SCORE.INTER.ROT>
9

>  <SCORE.INTER.SOLV>
16.0242

>  <SCORE.INTER.VDW>
-24.602

>  <SCORE.INTER.norm>
-0.706857

>  <SCORE.INTRA>
2.89905

>  <SCORE.INTRA.DIHEDRAL>
-0.247554

>  <SCORE.INTRA.DIHEDRAL.0>
30.1357

>  <SCORE.INTRA.POLAR>
-0.807879

>  <SCORE.INTRA.POLAR.0>
-0.631696

>  <SCORE.INTRA.REPUL>
0

>  <SCORE.INTRA.REPUL.0>
0

>  <SCORE.INTRA.SOLV>
2.40756

>  <SCORE.INTRA.SOLV.lig_0>
-55.904

>  <SCORE.INTRA.VDW>
4.56583

>  <SCORE.INTRA.VDW.0>
-8.21197

>  <SCORE.INTRA.norm>
0.0690249

>  <SCORE.RESTR>
0.0555998

>  <SCORE.RESTR.CAVITY>
0.0555998

>  <SCORE.RESTR.norm>
0.00132381

>  <SCORE.SYSTEM>
0

>  <SCORE.SYSTEM.CONST>
0

>  <SCORE.SYSTEM.DIHEDRAL>
0

>  <SCORE.SYSTEM.SOLV>
0

>  <SCORE.SYSTEM.norm>
0

>  <SCORE.heavy>
42

>  <SCORE.norm>
-0.636508

>  <RMSD>
2.641

$$$$
lig.pdb
 OpenBabel11021811453D
libRbt.so/2013.1/901 2013/11/27
 42 45  0  0  0  0  0  0  0  0999 V2000
    0.1781    2.4444    1.2608 C   0  0  2  0  0  0  0  0  0  0  0  0
   -0.6709    1.6311    0.4489 O   0  0  0  0  0  0  0  0  0  0  0  0
   -0.4809    3.8006    1.5542 C   0  0  2  0  0  0  0  0  0  0  0  0
   -1.8159    3.6213    2.1544 N   0  0  0  0  0  0  0  0  0  0  0  0
   -0.5581    4.6604    0.2860 C   0  0  1  0  0  0  0  0  0  0  0  0
   -1.0271    5.9521    0.6221 O   0  0  0  0  0  0  0  0  0  0  0  0
    0.8290    4.7758   -0.3639 C   0  0  2  0  0  0  0  0  0  0  0  0
    0.7093    5.4353   -1.6097 O   0  0  0  0  0  0  0  0  0  0  0  0
    1.4756    3.3904   -0.5666 C   0  0  2  0  0  0  0  0  0  0  0  0
    1.4477    2.6266    0.6388 O   0  0  0  0  0  0  0  0  0  0  0  0
    2.9343    3.6035   -1.0139 C   0  0  0  0  0  0  0  0  0  0  0  0
    3.2346    5.0045   -1.2536 O   0  0  0  0  0  0  0  0  0  0  0  0
   -2.2560   -2.2998    1.2016 C   0  0  2  0  0  0  0  0  0  0  0  0
   -2.1317   -3.6976    1.6610 N   0  0  0  0  0  0  0  0  0  0  0  0
   -1.2981   -2.0355    0.0372 C   0  0  0  0  0  0  0  0  0  0  0  0
   -1.3177   -0.5616   -0.3501 C   0  0  2  0  0  0  0  0  0  0  0  0
   -0.4719   -0.3359   -1.5289 N   0  0  0  0  0  0  0  0  0  0  0  0
   -0.8497    0.2700    0.8669 C   0  0  2  0  0  0  0  0  0  0  0  0
   -1.8712    0.1387    1.9509 C   0  0  2  0  0  0  0  0  0  0  0  0
   -1.4450    0.9394    3.0380 O   0  0  0  0  0  0  0  0  0  0  0  0
   -1.9980   -1.3169    2.3590 C   0  0  1  0  0  0  0  0  0  0  0  0
   -3.0133   -1.5114    3.3256 O   0  0  0  0  0  0  0  0  0  0  0  0
   -2.2970    1.0207    4.1757 C   0  0  1  0  0  0  0  0  0  0  0  0
   -1.6698    0.1809    5.2905 C   0  0  2  0  0  0  0  0  0  0  0  0
   -2.6953   -0.4448    6.0386 O   0  0  0  0  0  0  0  0  0  0  0  0
   -0.8964    1.2306    6.0999 C   0  0  2  0  0  0  0  0  0  0  0  0
   -0.6233    0.8080    7.4361 O   0  0  0  0  0  0  0  0  0  0  0  0
   -1.8597    2.4183    5.9840 C   0  0  2  0  0  0  0  0  0  0  0  0
   -2.3382    2.3616    4.6475 O   0  0  0  0  0  0  0  0  0  0  0  0
   -1.2097    3.7862    6.2225 C   0  0  0  0  0  0  0  0  0  0  0  0
   -0.1609    4.0299    5.3093 O   0  0  0  0  0  0  0  0  0  0  0  0
    0.1287    1.7389    8.2120 C   0  0  2  0  0  0  0  0  0  0  0  0
    0.8962    1.0461    9.3483 C   0  0  2  0  0  0  0  0  0  0  0  0
    1.7540   -0.0299    8.8244 N   0  0  0  0  0  0  0  0  0  0  0  0
   -0.0637    0.5245   10.4282 C   0  0  1  0  0  0  0  0  0  0  0  0
    0.7003   -0.0237   11.4848 O   0  0  0  0  0  0  0  0  0  0  0  0
   -0.9072    1.7045   10.9401 C   0  0  2  0  0  0  0  0  0  0  0  0
   -1.8418    1.2689   11.9103 O   0  0  0  0  0  0  0  0  0  0  0  0
   -1.6296    2.4136    9.7761 C   0  0  1  0  0  0  0  0  0  0  0  0
   -0.7197    2.7612    8.7298 O   0  0  0  0  0  0  0  0  0  0  0  0
   -2.8420    1.6336    9.2465 C   0  0  0  0  0  0  0  0  0  0  0  0
   -3.8317    2.5334    8.6323 N   0  0  0  0  0  0  0  0  0  0  0  0
  1  3  1  0  0  0  0
  1  2  1  6  0  0  0
  3  4  1  6  0  0  0
  5  6  1  1  0  0  0
  5  3  1  0  0  0  0
  7  9  1  0  0  0  0
  7  5  1  0  0  0  0
  7  8  1  6  0  0  0
  9 10  1  0  0  0  0
  9 11  1  1  0  0  0
 10  1  1  0  0  0  0
 11 12  1  0  0  0  0
 13 14  1  1  0  0  0
 13 21  1  0  0  0  0
 15 13  1  0  0  0  0
 16 15  1  0  0  0  0
 16 18  1  0  0  0  0
 16 17  1  6  0  0  0
 18  2  1  6  0  0  0
 18 19  1  0  0  0  0
 19 21  1  0  0  0  0
 19 20  1  1  0  0  0
 21 22  1  1  0  0  0
 23 20  1  6  0  0  0
 23 29  1  0  0  0  0
 23 24  1  0  0  0  0
 24 26  1  0  0  0  0
 24 25  1  1  0  0  0
 26 27  1  1  0  0  0
 28 26  1  0  0  0  0
 28 30  1  6  0  0  0
 29 28  1  0  0  0  0
 30 31  1  0  0  0  0
 32 27  1  1  0  0  0
 32 40  1  0  0  0  0
 32 33  1  0  0  0  0
 33 35  1  0  0  0  0
 33 34  1  6  0  0  0
 35 37  1  0  0  0  0
 35 36  1  1  0  0  0
 37 38  1  1  0  0  0
 39 37  1  0  0  0  0
 39 41  1  6  0  0  0
 40 39  1  0  0  0  0
 42 41  1  0  0  0  0
M  END
>  <CHROM.1>
-158.85647859,-132.89772289,172.04283985,-160.94672179,-60.02187179,-52.65211336
-6.18483075,-75.14942966,-150.83411225,177.24767327,105.84878050,71.35610701
-63.80622024,178.25543638,-155.24332761,58.99886792,177.39143155,40.77278048
-161.01240372,65.79826327,153.68334111,55.99265188,-0.77802439,1.61953371
4.13855514,-1.25684177,1.17751740,1.41431771

>  <Name>
lig.pdb

>  <RI>
0

>  <Rbt.Current_Directory>
/home/itssahil/PROJECTS/Mol_Feturizer/New_Systems/rnas/2mxs

>  <Rbt.Executable>
rbdock ($Id: //depot/dev/client3/rdock/2013.1/src/exe/rbdock.cxx#4 $)

>  <Rbt.Library>
libRbt.so (2013.1, Build901 2013/11/27)

>  <Rbt.Parameter_File>
/export/apps/rDock/src/rDock_2013.1_src/data/scripts/dock_solv.prm

>  <Rbt.Receptor>
prm/pocket_docking_6.prm

>  <SCORE>
-26.1168

>  <SCORE.INTER>
-28.9522

>  <SCORE.INTER.CONST>
1

>  <SCORE.INTER.POLAR>
-3.83678

>  <SCORE.INTER.ROT>
9

>  <SCORE.INTER.SOLV>
15.2326

>  <SCORE.INTER.VDW>
-21.1897

>  <SCORE.INTER.norm>
-0.689337

>  <SCORE.INTRA>
2.83538

>  <SCORE.INTRA.DIHEDRAL>
2.77994

>  <SCORE.INTRA.DIHEDRAL.0>
30.1357

>  <SCORE.INTRA.POLAR>
-1.27712

>  <SCORE.INTRA.POLAR.0>
-0.631696

>  <SCORE.INTRA.REPUL>
0.031457

>  <SCORE.INTRA.REPUL.0>
0

>  <SCORE.INTRA.SOLV>
2.22112

>  <SCORE.INTRA.SOLV.lig_0>
-55.904

>  <SCORE.INTRA.VDW>
4.51978

>  <SCORE.INTRA.VDW.0>
-8.21197

>  <SCORE.INTRA.norm>
0.067509

>  <SCORE.RESTR>
0

>  <SCORE.RESTR.CAVITY>
0

>  <SCORE.RESTR.norm>
0

>  <SCORE.SYSTEM>
0

>  <SCORE.SYSTEM.CONST>
0

>  <SCORE.SYSTEM.DIHEDRAL>
0

>  <SCORE.SYSTEM.SOLV>
0

>  <SCORE.SYSTEM.norm>
0

>  <SCORE.heavy>
42

>  <SCORE.norm>
-0.621828

>  <RMSD>
2.652

$$$$
lig.pdb
 OpenBabel11021811453D
libRbt.so/2013.1/901 2013/11/27
 42 45  0  0  0  0  0  0  0  0999 V2000
    0.4070    3.9297    0.4646 C   0  0  2  0  0  0  0  0  0  0  0  0
   -0.4565    3.1153   -0.3308 O   0  0  0  0  0  0  0  0  0  0  0  0
   -0.0174    5.4045    0.3983 C   0  0  2  0  0  0  0  0  0  0  0  0
   -1.4338    5.5650    0.7759 N   0  0  0  0  0  0  0  0  0  0  0  0
    0.2517    5.9921   -0.9931 C   0  0  1  0  0  0  0  0  0  0  0  0
   -0.0065    7.3830   -0.9735 O   0  0  0  0  0  0  0  0  0  0  0  0
    1.7137    5.7516   -1.3986 C   0  0  2  0  0  0  0  0  0  0  0  0
    1.9002    6.1570   -2.7411 O   0  0  0  0  0  0  0  0  0  0  0  0
    2.1075    4.2688   -1.2415 C   0  0  2  0  0  0  0  0  0  0  0  0
    1.7635    3.7780    0.0539 O   0  0  0  0  0  0  0  0  0  0  0  0
    3.6287    4.1521   -1.4550 C   0  0  0  0  0  0  0  0  0  0  0  0
    3.9723    3.9587   -2.8532 O   0  0  0  0  0  0  0  0  0  0  0  0
   -1.4657   -1.0550    0.0172 C   0  0  2  0  0  0  0  0  0  0  0  0
   -1.1323   -2.4652    0.3006 N   0  0  0  0  0  0  0  0  0  0  0  0
   -0.6224   -0.5330   -1.1487 C   0  0  0  0  0  0  0  0  0  0  0  0
   -0.8578    0.9585   -1.3561 C   0  0  2  0  0  0  0  0  0  0  0  0
   -0.1212    1.4287   -2.5360 N   0  0  0  0  0  0  0  0  0  0  0  0
   -0.4303    1.7043   -0.0706 C   0  0  2  0  0  0  0  0  0  0  0  0
   -1.3588    1.3136    1.0343 C   0  0  2  0  0  0  0  0  0  0  0  0
   -0.9764    2.0380    2.1891 O   0  0  0  0  0  0  0  0  0  0  0  0
   -1.2694   -0.1821    1.2710 C   0  0  1  0  0  0  0  0  0  0  0  0
   -2.1906   -0.6211    2.2516 O   0  0  0  0  0  0  0  0  0  0  0  0
   -1.7360    1.8410    3.3770 C   0  0  1  0  0  0  0  0  0  0  0  0
   -0.9628    2.4728    4.5365 C   0  0  2  0  0  0  0  0  0  0  0  0
   -1.1421    1.6888    5.7010 O   0  0  0  0  0  0  0  0  0  0  0  0
   -1.6078    3.8609    4.6466 C   0  0  2  0  0  0  0  0  0  0  0  0
   -1.4116    4.4623    5.9267 O   0  0  0  0  0  0  0  0  0  0  0  0
   -3.0629    3.5046    4.3183 C   0  0  2  0  0  0  0  0  0  0  0  0
   -2.9693    2.5419    3.2778 O   0  0  0  0  0  0  0  0  0  0  0  0
   -3.9089    4.6859    3.8290 C   0  0  0  0  0  0  0  0  0  0  0  0
   -3.1151    5.6676    3.1972 O   0  0  0  0  0  0  0  0  0  0  0  0
   -1.9868    5.7597    6.0683 C   0  0  2  0  0  0  0  0  0  0  0  0
   -1.0857    6.8516    5.4719 C   0  0  2  0  0  0  0  0  0  0  0  0
   -0.7655    6.5591    4.0647 N   0  0  0  0  0  0  0  0  0  0  0  0
    0.1872    7.0395    6.3109 C   0  0  1  0  0  0  0  0  0  0  0  0
    0.9329    8.1110    5.7663 O   0  0  0  0  0  0  0  0  0  0  0  0
   -0.2266    7.3620    7.7568 C   0  0  2  0  0  0  0  0  0  0  0  0
    0.9131    7.5029    8.5849 O   0  0  0  0  0  0  0  0  0  0  0  0
   -1.1692    6.2770    8.3171 C   0  0  1  0  0  0  0  0  0  0  0  0
   -2.2704    6.0358    7.4381 O   0  0  0  0  0  0  0  0  0  0  0  0
   -0.4437    4.9779    8.6977 C   0  0  0  0  0  0  0  0  0  0  0  0
   -1.3757    3.8401    8.7537 N   0  0  0  0  0  0  0  0  0  0  0  0
  1  3  1  0  0  0  0
  1  2  1  6  0  0  0
  3  4  1  6  0  0  0
  5  6  1  1  0  0  0
  5  3  1  0  0  0  0
  7  9  1  0  0  0  0
  7  5  1  0  0  0  0
  7  8  1  6  0  0  0
  9 10  1  0  0  0  0
  9 11  1  1  0  0  0
 10  1  1  0  0  0  0
 11 12  1  0  0  0  0
 13 14  1  1  0  0  0
 13 21  1  0  0  0  0
 15 13  1  0  0  0  0
 16 15  1  0  0  0  0
 16 18  1  0  0  0  0
 16 17  1  6  0  0  0
 18  2  1  6  0  0  0
 18 19  1  0  0  0  0
 19 21  1  0  0  0  0
 19 20  1  1  0  0  0
 21 22  1  1  0  0  0
 23 20  1  6  0  0  0
 23 29  1  0  0  0  0
 23 24  1  0  0  0  0
 24 26  1  0  0  0  0
 24 25  1  1  0  0  0
 26 27  1  1  0  0  0
 28 26  1  0  0  0  0
 28 30  1  6  0  0  0
 29 28  1  0  0  0  0
 30 31  1  0  0  0  0
 32 27  1  1  0  0  0
 32 40  1  0  0  0  0
 32 33  1  0  0  0  0
 33 35  1  0  0  0  0
 33 34  1  6  0  0  0
 35 37  1  0  0  0  0
 35 36  1  6  0  0  0
 37 38  1  1  0  0  0
 39 37  1  0  0  0  0
 39 41  1  6  0  0  0
 40 39  1  0  0  0  0
 42 41  1  0  0  0  0
M  END
>  <CHROM.1>
-154.05410867,-162.64420717,-42.80769772,-163.43584996,58.85315839,-73.12367752
-88.24705871,58.66703702,-49.96631528,179.21774423,167.76790677,-59.07028173
65.79831852,179.52640603,-81.62504911,27.46576415,-145.77019155,-71.82496536
-167.33465392,62.40551350,-159.34981111,68.70647576,-0.55582291,3.89985013
2.55454027,-1.21391319,1.07084991,0.85200326

>  <Name>
lig.pdb

>  <RI>
0

>  <Rbt.Current_Directory>
/home/itssahil/PROJECTS/Mol_Feturizer/New_Systems/rnas/2mxs

>  <Rbt.Executable>
rbdock ($Id: //depot/dev/client3/rdock/2013.1/src/exe/rbdock.cxx#4 $)

>  <Rbt.Library>
libRbt.so (2013.1, Build901 2013/11/27)

>  <Rbt.Parameter_File>
/export/apps/rDock/src/rDock_2013.1_src/data/scripts/dock_solv.prm

>  <Rbt.Receptor>
prm/pocket_docking_4.prm

>  <SCORE>
-51.0077

>  <SCORE.INTER>
-44.0445

>  <SCORE.INTER.CONST>
1

>  <SCORE.INTER.POLAR>
-5.77448

>  <SCORE.INTER.ROT>
9

>  <SCORE.INTER.SOLV>
17.3776

>  <SCORE.INTER.VDW>
-25.5073

>  <SCORE.INTER.norm>
-1.04868

>  <SCORE.INTRA>
-6.9632

>  <SCORE.INTRA.DIHEDRAL>
-6.75575

>  <SCORE.INTRA.DIHEDRAL.0>
30.1357

>  <SCORE.INTRA.POLAR>
-1.8769

>  <SCORE.INTRA.POLAR.0>
-0.631696

>  <SCORE.INTRA.REPUL>
0.0108694

>  <SCORE.INTRA.REPUL.0>
0

>  <SCORE.INTRA.SOLV>
2.15034

>  <SCORE.INTRA.SOLV.lig_0>
-55.904

>  <SCORE.INTRA.VDW>
1.66662

>  <SCORE.INTRA.VDW.0>
-8.21197

>  <SCORE.INTRA.norm>
-0.165791

>  <SCORE.RESTR>
0

>  <SCORE.RESTR.CAVITY>
0

>  <SCORE.RESTR.norm>
0

>  <SCORE.SYSTEM>
0

>  <SCORE.SYSTEM.CONST>
0

>  <SCORE.SYSTEM.DIHEDRAL>
0

>  <SCORE.SYSTEM.SOLV>
0

>  <SCORE.SYSTEM.norm>
0

>  <SCORE.heavy>
42

>  <SCORE.norm>
-1.21447

>  <RMSD>
2.748

$$$$
lig.pdb
 OpenBabel11021811453D
libRbt.so/2013.1/901 2013/11/27
 42 45  0  0  0  0  0  0  0  0999 V2000
    1.5220    2.8833    0.6898 C   0  0  2  0  0  0  0  0  0  0  0  0
    0.3700    2.6150   -0.1117 O   0  0  0  0  0  0  0  0  0  0  0  0
    2.2098    4.1817    0.2420 C   0  0  2  0  0  0  0  0  0  0  0  0
    1.2605    5.3101    0.2407 N   0  0  0  0  0  0  0  0  0  0  0  0
    2.8641    4.0108   -1.1350 C   0  0  1  0  0  0  0  0  0  0  0  0
    3.6139    5.1696   -1.4459 O   0  0  0  0  0  0  0  0  0  0  0  0
    3.7940    2.7881   -1.1342 C   0  0  2  0  0  0  0  0  0  0  0  0
    4.2623    2.5548   -2.4487 O   0  0  0  0  0  0  0  0  0  0  0  0
    3.0745    1.5307   -0.6055 C   0  0  2  0  0  0  0  0  0  0  0  0
    2.4346    1.7893    0.6438 O   0  0  0  0  0  0  0  0  0  0  0  0
    4.1235    0.4159   -0.4319 C   0  0  0  0  0  0  0  0  0  0  0  0
    4.2847    0.0272    0.9584 O   0  0  0  0  0  0  0  0  0  0  0  0
   -2.2580   -0.7938   -0.1779 C   0  0  2  0  0  0  0  0  0  0  0  0
   -2.5273   -2.2433   -0.0963 N   0  0  0  0  0  0  0  0  0  0  0  0
   -1.3118   -0.4933   -1.3431 C   0  0  0  0  0  0  0  0  0  0  0  0
   -0.9175    0.9789   -1.3485 C   0  0  2  0  0  0  0  0  0  0  0  0
   -0.0902    1.2778   -2.5241 N   0  0  0  0  0  0  0  0  0  0  0  0
   -0.1800    1.2924   -0.0259 C   0  0  2  0  0  0  0  0  0  0  0  0
   -1.1515    1.1538    1.1022 C   0  0  2  0  0  0  0  0  0  0  0  0
   -0.4681    1.4851    2.2970 O   0  0  0  0  0  0  0  0  0  0  0  0
   -1.6796   -0.2676    1.1491 C   0  0  1  0  0  0  0  0  0  0  0  0
   -2.6684   -0.4346    2.1478 O   0  0  0  0  0  0  0  0  0  0  0  0
   -0.8579    0.8155    3.4914 C   0  0  1  0  0  0  0  0  0  0  0  0
    0.3153    0.8859    4.4711 C   0  0  2  0  0  0  0  0  0  0  0  0
    0.3735   -0.3142    5.2188 O   0  0  0  0  0  0  0  0  0  0  0  0
   -0.0434    2.1066    5.3292 C   0  0  2  0  0  0  0  0  0  0  0  0
    0.6181    2.1071    6.5946 O   0  0  0  0  0  0  0  0  0  0  0  0
   -1.5668    1.9444    5.3986 C   0  0  2  0  0  0  0  0  0  0  0  0
   -1.9398    1.5108    4.0981 O   0  0  0  0  0  0  0  0  0  0  0  0
   -2.3263    3.2341    5.7304 C   0  0  0  0  0  0  0  0  0  0  0  0
   -2.4089    4.0915    4.6118 O   0  0  0  0  0  0  0  0  0  0  0  0
    0.0921    3.0365    7.5399 C   0  0  2  0  0  0  0  0  0  0  0  0
    0.9768    4.2863    7.6644 C   0  0  2  0  0  0  0  0  0  0  0  0
    1.1827    4.9183    6.3505 N   0  0  0  0  0  0  0  0  0  0  0  0
    2.3136    3.9538    8.3441 C   0  0  1  0  0  0  0  0  0  0  0  0
    3.0466    5.1522    8.5089 O   0  0  0  0  0  0  0  0  0  0  0  0
    2.0181    3.3200    9.7141 C   0  0  2  0  0  0  0  0  0  0  0  0
    3.2200    2.9538   10.3667 O   0  0  0  0  0  0  0  0  0  0  0  0
    1.0896    2.0967    9.5684 C   0  0  1  0  0  0  0  0  0  0  0  0
   -0.0805    2.4151    8.8116 O   0  0  0  0  0  0  0  0  0  0  0  0
    1.8043    0.8515    9.0231 C   0  0  0  0  0  0  0  0  0  0  0  0
    0.8525   -0.0849    8.4038 N   0  0  0  0  0  0  0  0  0  0  0  0
  1  3  1  0  0  0  0
  1  2  1  6  0  0  0
  3  4  1  6  0  0  0
  5  6  1  1  0  0  0
  5  3  1  0  0  0  0
  7  9  1  0  0  0  0
  7  5  1  0  0  0  0
  7  8  1  6  0  0  0
  9 10  1  0  0  0  0
  9 11  1  1  0  0  0
 10  1  1  0  0  0  0
 11 12  1  0  0  0  0
 13 14  1  1  0  0  0
 13 21  1  0  0  0  0
 15 13  1  0  0  0  0
 16 15  1  0  0  0  0
 16 18  1  0  0  0  0
 16 17  1  6  0  0  0
 18  2  1  6  0  0  0
 18 19  1  0  0  0  0
 19 21  1  0  0  0  0
 19 20  1  1  0  0  0
 21 22  1  1  0  0  0
 23 20  1  6  0  0  0
 23 29  1  0  0  0  0
 23 24  1  0  0  0  0
 24 26  1  0  0  0  0
 24 25  1  1  0  0  0
 26 27  1  1  0  0  0
 28 26  1  0  0  0  0
 28 30  1  6  0  0  0
 29 28  1  0  0  0  0
 30 31  1  0  0  0  0
 32 27  1  6  0  0  0
 32 40  1  0  0  0  0
 32 33  1  0  0  0  0
 33 35  1  0  0  0  0
 33 34  1  6  0  0  0
 35 37  1  0  0  0  0
 35 36  1  1  0  0  0
 37 38  1  6  0  0  0
 39 37  1  0  0  0  0
 39 41  1  6  0  0  0
 40 39  1  0  0  0  0
 42 41  1  0  0  0  0
M  END
>  <CHROM.1>
-153.68972158,165.45745726,98.20186870,-69.48100312,157.58139957,58.83290430
115.38276507,29.51646457,-70.62532436,-147.81099067,157.58594795,-59.92807198
167.77924461,-166.16114179,-102.59229411,76.74976494,47.26162002,-174.69693403
179.25995833,-179.21053612,-157.34817845,54.49375633,0.71256138,2.01752655
3.23635524,-1.56846579,0.62635021,1.44359761

>  <Name>
lig.pdb

>  <RI>
0

>  <Rbt.Current_Directory>
/home/itssahil/PROJECTS/Mol_Feturizer/New_Systems/rnas/2mxs

>  <Rbt.Executable>
rbdock ($Id: //depot/dev/client3/rdock/2013.1/src/exe/rbdock.cxx#4 $)

>  <Rbt.Library>
libRbt.so (2013.1, Build901 2013/11/27)

>  <Rbt.Parameter_File>
/export/apps/rDock/src/rDock_2013.1_src/data/scripts/dock_solv.prm

>  <Rbt.Receptor>
prm/pocket_docking_7.prm

>  <SCORE>
-40.3512

>  <SCORE.INTER>
-47.8565

>  <SCORE.INTER.CONST>
1

>  <SCORE.INTER.POLAR>
-7.51197

>  <SCORE.INTER.ROT>
9

>  <SCORE.INTER.SOLV>
20.6303

>  <SCORE.INTER.VDW>
-23.3412

>  <SCORE.INTER.norm>
-1.13944

>  <SCORE.INTRA>
7.50528

>  <SCORE.INTRA.DIHEDRAL>
3.96591

>  <SCORE.INTRA.DIHEDRAL.0>
30.1357

>  <SCORE.INTRA.POLAR>
-0.276666

>  <SCORE.INTRA.POLAR.0>
-0.631696

>  <SCORE.INTRA.REPUL>
0

>  <SCORE.INTRA.REPUL.0>
0

>  <SCORE.INTRA.SOLV>
-0.136928

>  <SCORE.INTRA.SOLV.lig_0>
-55.904

>  <SCORE.INTRA.VDW>
6.53146

>  <SCORE.INTRA.VDW.0>
-8.21197

>  <SCORE.INTRA.norm>
0.178697

>  <SCORE.RESTR>
0

>  <SCORE.RESTR.CAVITY>
0

>  <SCORE.RESTR.norm>
0

>  <SCORE.SYSTEM>
0

>  <SCORE.SYSTEM.CONST>
0

>  <SCORE.SYSTEM.DIHEDRAL>
0

>  <SCORE.SYSTEM.SOLV>
0

>  <SCORE.SYSTEM.norm>
0

>  <SCORE.heavy>
42

>  <SCORE.norm>
-0.960743

>  <RMSD>
2.771

$$$$
lig.pdb
 OpenBabel11021811453D
libRbt.so/2013.1/901 2013/11/27
 42 45  0  0  0  0  0  0  0  0999 V2000
   -0.2824    2.2756   -0.4180 C   0  0  2  0  0  0  0  0  0  0  0  0
    0.6221    1.9168    0.6283 O   0  0  0  0  0  0  0  0  0  0  0  0
    0.3550    3.3053   -1.3631 C   0  0  2  0  0  0  0  0  0  0  0  0
    1.6433    2.8157   -1.8876 N   0  0  0  0  0  0  0  0  0  0  0  0
    0.5238    4.6613   -0.6657 C   0  0  1  0  0  0  0  0  0  0  0  0
    0.9685    5.6207   -1.6055 O   0  0  0  0  0  0  0  0  0  0  0  0
   -0.8130    5.1202   -0.0637 C   0  0  2  0  0  0  0  0  0  0  0  0
   -0.6035    6.2880    0.7068 O   0  0  0  0  0  0  0  0  0  0  0  0
   -1.4444    4.0212    0.8149 C   0  0  2  0  0  0  0  0  0  0  0  0
   -1.5038    2.7758    0.1202 O   0  0  0  0  0  0  0  0  0  0  0  0
   -2.8670    4.4722    1.1970 C   0  0  0  0  0  0  0  0  0  0  0  0
   -3.5378    3.5055    2.0491 O   0  0  0  0  0  0  0  0  0  0  0  0
   -1.0686   -1.8180    1.9412 C   0  0  2  0  0  0  0  0  0  0  0  0
   -1.0144   -3.0916    2.6863 N   0  0  0  0  0  0  0  0  0  0  0  0
    0.0398   -1.7711    0.8865 C   0  0  0  0  0  0  0  0  0  0  0  0
    0.0798   -0.4060    0.2100 C   0  0  2  0  0  0  0  0  0  0  0  0
    1.0789   -0.4024   -0.8659 N   0  0  0  0  0  0  0  0  0  0  0  0
    0.3818    0.6638    1.2851 C   0  0  2  0  0  0  0  0  0  0  0  0
   -0.7780    0.7296    2.2264 C   0  0  2  0  0  0  0  0  0  0  0  0
   -0.4999    1.7421    3.1761 O   0  0  0  0  0  0  0  0  0  0  0  0
   -0.9658   -0.6167    2.8998 C   0  0  1  0  0  0  0  0  0  0  0  0
   -2.1039   -0.6363    3.7407 O   0  0  0  0  0  0  0  0  0  0  0  0
   -1.4155    1.9105    4.2532 C   0  0  1  0  0  0  0  0  0  0  0  0
   -0.7006    1.5018    5.5429 C   0  0  2  0  0  0  0  0  0  0  0  0
   -1.6241    0.8716    6.4105 O   0  0  0  0  0  0  0  0  0  0  0  0
   -0.1974    2.8474    6.0826 C   0  0  2  0  0  0  0  0  0  0  0  0
    0.0760    2.8142    7.4837 O   0  0  0  0  0  0  0  0  0  0  0  0
   -1.3676    3.7513    5.6757 C   0  0  2  0  0  0  0  0  0  0  0  0
   -1.7474    3.2867    4.3880 O   0  0  0  0  0  0  0  0  0  0  0  0
   -1.0148    5.2405    5.5837 C   0  0  0  0  0  0  0  0  0  0  0  0
   -2.1499    6.0266    5.2891 O   0  0  0  0  0  0  0  0  0  0  0  0
    1.3003    2.1726    7.8354 C   0  0  2  0  0  0  0  0  0  0  0  0
    1.3491    1.8159    9.3289 C   0  0  2  0  0  0  0  0  0  0  0  0
    0.1868    0.9976    9.7127 N   0  0  0  0  0  0  0  0  0  0  0  0
    1.4593    3.0783   10.1971 C   0  0  1  0  0  0  0  0  0  0  0  0
    1.5872    2.6861   11.5500 O   0  0  0  0  0  0  0  0  0  0  0  0
    2.7034    3.8665    9.7534 C   0  0  2  0  0  0  0  0  0  0  0  0
    2.8281    5.0657   10.4956 O   0  0  0  0  0  0  0  0  0  0  0  0
    2.6549    4.1708    8.2419 C   0  0  1  0  0  0  0  0  0  0  0  0
    2.4144    2.9872    7.4773 O   0  0  0  0  0  0  0  0  0  0  0  0
    1.6760    5.2972    7.8787 C   0  0  0  0  0  0  0  0  0  0  0  0
    2.0998    6.0032    6.6588 N   0  0  0  0  0  0  0  0  0  0  0  0
  1  3  1  0  0  0  0
  1  2  1  1  0  0  0
  3  4  1  1  0  0  0
  5  6  1  6  0  0  0
  5  3  1  0  0  0  0
  7  9  1  0  0  0  0
  7  5  1  0  0  0  0
  7  8  1  1  0  0  0
  9 10  1  0  0  0  0
  9 11  1  6  0  0  0
 10  1  1  0  0  0  0
 11 12  1  0  0  0  0
 13 14  1  1  0  0  0
 13 21  1  0  0  0  0
 15 13  1  0  0  0  0
 16 15  1  0  0  0  0
 16 18  1  0  0  0  0
 16 17  1  6  0  0  0
 18  2  1  6  0  0  0
 18 19  1  0  0  0  0
 19 21  1  0  0  0  0
 19 20  1  1  0  0  0
 21 22  1  6  0  0  0
 23 20  1  6  0  0  0
 23 29  1  0  0  0  0
 23 24  1  0  0  0  0
 24 26  1  0  0  0  0
 24 25  1  1  0  0  0
 26 27  1  1  0  0  0
 28 26  1  0  0  0  0
 28 30  1  6  0  0  0
 29 28  1  0  0  0  0
 30 31  1  0  0  0  0
 32 27  1  1  0  0  0
 32 40  1  0  0  0  0
 32 33  1  0  0  0  0
 33 35  1  0  0  0  0
 33 34  1  1  0  0  0
 35 37  1  0  0  0  0
 35 36  1  1  0  0  0
 37 38  1  1  0  0  0
 39 37  1  0  0  0  0
 39 41  1  1  0  0  0
 40 39  1  0  0  0  0
 42 41  1  0  0  0  0
M  END
>  <CHROM.1>
44.73797797,-158.42401185,61.19850297,48.02064763,61.81584606,59.29805290
-179.01448449,63.28367132,168.92729415,-174.59324424,112.60431389,64.09885194
55.54297573,77.05585206,-163.82439874,-176.25623205,-178.04091278,-177.61803379
-173.65269802,62.65991384,151.77315706,-58.91068282,-0.04355359,2.58064638
4.00456695,-2.62363657,1.36650082,2.48173978

>  <Name>
lig.pdb

>  <RI>
0

>  <Rbt.Current_Directory>
/home/itssahil/PROJECTS/Mol_Feturizer/New_Systems/rnas/2mxs

>  <Rbt.Executable>
rbdock ($Id: //depot/dev/client3/rdock/2013.1/src/exe/rbdock.cxx#4 $)

>  <Rbt.Library>
libRbt.so (2013.1, Build901 2013/11/27)

>  <Rbt.Parameter_File>
/export/apps/rDock/src/rDock_2013.1_src/data/scripts/dock_solv.prm

>  <Rbt.Receptor>
prm/pocket_docking_3.prm

>  <SCORE>
-40.3921

>  <SCORE.INTER>
-35.8274

>  <SCORE.INTER.CONST>
1

>  <SCORE.INTER.POLAR>
-4.84763

>  <SCORE.INTER.ROT>
9

>  <SCORE.INTER.SOLV>
13.5903

>  <SCORE.INTER.VDW>
-21.8563

>  <SCORE.INTER.norm>
-0.853033

>  <SCORE.INTRA>
-5.27792

>  <SCORE.INTRA.DIHEDRAL>
-12.788

>  <SCORE.INTRA.DIHEDRAL.0>
30.1357

>  <SCORE.INTRA.POLAR>
-0.634847

>  <SCORE.INTRA.POLAR.0>
-0.631696

>  <SCORE.INTRA.REPUL>
0

>  <SCORE.INTRA.REPUL.0>
0

>  <SCORE.INTRA.SOLV>
0.504263

>  <SCORE.INTRA.SOLV.lig_0>
-55.904

>  <SCORE.INTRA.VDW>
3.02243

>  <SCORE.INTRA.VDW.0>
-8.21197

>  <SCORE.INTRA.norm>
-0.125665

>  <SCORE.RESTR>
0.713195

>  <SCORE.RESTR.CAVITY>
0.713195

>  <SCORE.RESTR.norm>
0.0169808

>  <SCORE.SYSTEM>
0

>  <SCORE.SYSTEM.CONST>
0

>  <SCORE.SYSTEM.DIHEDRAL>
0

>  <SCORE.SYSTEM.SOLV>
0

>  <SCORE.SYSTEM.norm>
0

>  <SCORE.heavy>
42

>  <SCORE.norm>
-0.961717

>  <RMSD>
2.804

$$$$
lig.pdb
 OpenBabel11021811453D
libRbt.so/2013.1/901 2013/11/27
 42 45  0  0  0  0  0  0  0  0999 V2000
    0.4800    3.9721   -0.2615 C   0  0  2  0  0  0  0  0  0  0  0  0
   -0.3544    3.2623   -1.1789 O   0  0  0  0  0  0  0  0  0  0  0  0
    0.4324    5.4829   -0.5350 C   0  0  2  0  0  0  0  0  0  0  0  0
   -0.9559    5.9798   -0.5202 N   0  0  0  0  0  0  0  0  0  0  0  0
    1.1255    5.8239   -1.8604 C   0  0  1  0  0  0  0  0  0  0  0  0
    1.1975    7.2295   -2.0047 O   0  0  0  0  0  0  0  0  0  0  0  0
    2.5445    5.2363   -1.8855 C   0  0  2  0  0  0  0  0  0  0  0  0
    3.1066    5.4238   -3.1702 O   0  0  0  0  0  0  0  0  0  0  0  0
    2.5415    3.7355   -1.5310 C   0  0  2  0  0  0  0  0  0  0  0  0
    1.8207    3.4920   -0.3234 O   0  0  0  0  0  0  0  0  0  0  0  0
    4.0037    3.2796   -1.3650 C   0  0  0  0  0  0  0  0  0  0  0  0
    4.7609    3.4085   -2.5980 O   0  0  0  0  0  0  0  0  0  0  0  0
   -2.8697   -0.1780   -0.5721 C   0  0  2  0  0  0  0  0  0  0  0  0
   -3.1661   -1.4969    0.0221 N   0  0  0  0  0  0  0  0  0  0  0  0
   -1.6078   -0.2548   -1.4350 C   0  0  0  0  0  0  0  0  0  0  0  0
   -1.2156    1.1298   -1.9371 C   0  0  2  0  0  0  0  0  0  0  0  0
   -0.0637    1.0333   -2.8424 N   0  0  0  0  0  0  0  0  0  0  0  0
   -0.9178    2.0273   -0.7135 C   0  0  2  0  0  0  0  0  0  0  0  0
   -2.1907    2.2338    0.0432 C   0  0  2  0  0  0  0  0  0  0  0  0
   -1.9048    3.0904    1.1336 O   0  0  0  0  0  0  0  0  0  0  0  0
   -2.7223    0.8961    0.5221 C   0  0  1  0  0  0  0  0  0  0  0  0
   -3.9721    1.0233    1.1738 O   0  0  0  0  0  0  0  0  0  0  0  0
   -1.5012    2.4906    2.3600 C   0  0  1  0  0  0  0  0  0  0  0  0
   -0.3665    3.3357    2.9427 C   0  0  2  0  0  0  0  0  0  0  0  0
    0.5661    2.4876    3.5859 O   0  0  0  0  0  0  0  0  0  0  0  0
   -1.1087    4.2567    3.9205 C   0  0  2  0  0  0  0  0  0  0  0  0
   -0.2534    4.7999    4.9265 O   0  0  0  0  0  0  0  0  0  0  0  0
   -2.1782    3.2873    4.4387 C   0  0  2  0  0  0  0  0  0  0  0  0
   -2.5723    2.5442    3.2938 O   0  0  0  0  0  0  0  0  0  0  0  0
   -3.4132    3.9693    5.0390 C   0  0  0  0  0  0  0  0  0  0  0  0
   -4.1765    4.6267    4.0499 O   0  0  0  0  0  0  0  0  0  0  0  0
   -0.9350    5.4305    6.0091 C   0  0  2  0  0  0  0  0  0  0  0  0
   -0.7424    6.9546    5.9943 C   0  0  2  0  0  0  0  0  0  0  0  0
   -1.1519    7.5243    4.6998 N   0  0  0  0  0  0  0  0  0  0  0  0
    0.7047    7.3339    6.3430 C   0  0  1  0  0  0  0  0  0  0  0  0
    0.8009    8.7440    6.3988 O   0  0  0  0  0  0  0  0  0  0  0  0
    1.0509    6.7240    7.7119 C   0  0  2  0  0  0  0  0  0  0  0  0
    2.3928    7.0085    8.0626 O   0  0  0  0  0  0  0  0  0  0  0  0
    0.8038    5.2014    7.7171 C   0  0  1  0  0  0  0  0  0  0  0  0
   -0.5112    4.8832    7.2556 O   0  0  0  0  0  0  0  0  0  0  0  0
    1.8830    4.4069    6.9668 C   0  0  0  0  0  0  0  0  0  0  0  0
    3.1599    4.4138    7.6987 N   0  0  0  0  0  0  0  0  0  0  0  0
  1  3  1  0  0  0  0
  1  2  1  6  0  0  0
  3  4  1  6  0  0  0
  5  6  1  1  0  0  0
  5  3  1  0  0  0  0
  7  9  1  0  0  0  0
  7  5  1  0  0  0  0
  7  8  1  6  0  0  0
  9 10  1  0  0  0  0
  9 11  1  1  0  0  0
 10  1  1  0  0  0  0
 11 12  1  0  0  0  0
 13 14  1  1  0  0  0
 13 21  1  0  0  0  0
 15 13  1  0  0  0  0
 16 15  1  0  0  0  0
 16 18  1  0  0  0  0
 16 17  1  6  0  0  0
 18  2  1  6  0  0  0
 18 19  1  0  0  0  0
 19 21  1  0  0  0  0
 19 20  1  1  0  0  0
 21 22  1  6  0  0  0
 23 20  1  6  0  0  0
 23 29  1  0  0  0  0
 23 24  1  0  0  0  0
 24 26  1  0  0  0  0
 24 25  1  1  0  0  0
 26 27  1  1  0  0  0
 28 26  1  0  0  0  0
 28 30  1  6  0  0  0
 29 28  1  0  0  0  0
 30 31  1  0  0  0  0
 32 27  1  6  0  0  0
 32 40  1  0  0  0  0
 32 33  1  0  0  0  0
 33 35  1  0  0  0  0
 33 34  1  6  0  0  0
 35 37  1  0  0  0  0
 35 36  1  1  0  0  0
 37 38  1  6  0  0  0
 39 37  1  0  0  0  0
 39 41  1  6  0  0  0
 40 39  1  0  0  0  0
 42 41  1  0  0  0  0
M  END
>  <CHROM.1>
-154.69756541,-151.25894192,71.77471877,-75.18119427,68.46919453,-170.48576488
-62.99183233,70.67854944,-172.98038887,-89.73826533,138.89897048,177.02831510
64.76082885,-167.64516366,-110.16488858,68.81149084,-171.98255494,-163.36144843
-139.21312602,69.07309848,70.42791964,-170.69623675,-0.15570147,3.98524339
2.08132133,-1.60450617,0.67931409,1.19054161

>  <Name>
lig.pdb

>  <RI>
3.99633e+07

>  <Rbt.Current_Directory>
/home/itssahil/PROJECTS/Mol_Feturizer/New_Systems/rnas/2mxs

>  <Rbt.Executable>
rbdock ($Id: //depot/dev/client3/rdock/2013.1/src/exe/rbdock.cxx#4 $)

>  <Rbt.Library>
libRbt.so (2013.1, Build901 2013/11/27)

>  <Rbt.Parameter_File>
/export/apps/rDock/src/rDock_2013.1_src/data/scripts/dock_solv.prm

>  <Rbt.Receptor>
prm/pocket_docking_5.prm

>  <SCORE>
-51.6216

>  <SCORE.INTER>
-53.5383

>  <SCORE.INTER.CONST>
1

>  <SCORE.INTER.POLAR>
-7.22675

>  <SCORE.INTER.ROT>
9

>  <SCORE.INTER.SOLV>
22.3648

>  <SCORE.INTER.VDW>
-28.658

>  <SCORE.INTER.norm>
-1.27472

>  <SCORE.INTRA>
1.91674

>  <SCORE.INTRA.DIHEDRAL>
3.62157

>  <SCORE.INTRA.DIHEDRAL.0>
30.1357

>  <SCORE.INTRA.POLAR>
-1.01415

>  <SCORE.INTRA.POLAR.0>
-0.631696

>  <SCORE.INTRA.REPUL>
0

>  <SCORE.INTRA.REPUL.0>
0

>  <SCORE.INTRA.SOLV>
0.153817

>  <SCORE.INTRA.SOLV.lig_0>
-55.904

>  <SCORE.INTRA.VDW>
3.47715

>  <SCORE.INTRA.VDW.0>
-8.21197

>  <SCORE.INTRA.norm>
0.0456366

>  <SCORE.RESTR>
0

>  <SCORE.RESTR.CAVITY>
0

>  <SCORE.RESTR.norm>
0

>  <SCORE.SYSTEM>
0

>  <SCORE.SYSTEM.CONST>
0

>  <SCORE.SYSTEM.DIHEDRAL>
0

>  <SCORE.SYSTEM.SOLV>
0

>  <SCORE.SYSTEM.norm>
0

>  <SCORE.heavy>
42

>  <SCORE.norm>
-1.22909

>  <RMSD>
2.821

$$$$
lig.pdb
 OpenBabel11021811453D
libRbt.so/2013.1/901 2013/11/27
 42 45  0  0  0  0  0  0  0  0999 V2000
   -0.1000    3.5704    0.4793 C   0  0  2  0  0  0  0  0  0  0  0  0
   -0.9411    2.7781   -0.3611 O   0  0  0  0  0  0  0  0  0  0  0  0
   -0.2672    5.0653    0.1675 C   0  0  2  0  0  0  0  0  0  0  0  0
   -1.6822    5.4700    0.2597 N   0  0  0  0  0  0  0  0  0  0  0  0
    0.3153    5.4083   -1.2096 C   0  0  1  0  0  0  0  0  0  0  0  0
    0.2826    6.8101   -1.3975 O   0  0  0  0  0  0  0  0  0  0  0  0
    1.7665    4.9148   -1.3115 C   0  0  2  0  0  0  0  0  0  0  0  0
    2.2315    5.0974   -2.6351 O   0  0  0  0  0  0  0  0  0  0  0  0
    1.8878    3.4292   -0.9158 C   0  0  2  0  0  0  0  0  0  0  0  0
    1.2634    3.1779    0.3429 O   0  0  0  0  0  0  0  0  0  0  0  0
    3.3850    3.0762   -0.8336 C   0  0  0  0  0  0  0  0  0  0  0  0
    4.0275    3.1076   -2.1361 O   0  0  0  0  0  0  0  0  0  0  0  0
   -2.0294   -1.3847   -0.2282 C   0  0  2  0  0  0  0  0  0  0  0  0
   -1.7997   -2.7876    0.1708 N   0  0  0  0  0  0  0  0  0  0  0  0
   -0.8817   -0.8880   -1.1110 C   0  0  0  0  0  0  0  0  0  0  0  0
   -1.0392    0.5980   -1.4107 C   0  0  2  0  0  0  0  0  0  0  0  0
    0.0101    1.0424   -2.3366 N   0  0  0  0  0  0  0  0  0  0  0  0
   -0.9988    1.3734   -0.0734 C   0  0  2  0  0  0  0  0  0  0  0  0
   -2.2096    1.0066    0.7234 C   0  0  2  0  0  0  0  0  0  0  0  0
   -2.1745    1.7575    1.9231 O   0  0  0  0  0  0  0  0  0  0  0  0
   -2.2003   -0.4833    1.0090 C   0  0  1  0  0  0  0  0  0  0  0  0
   -3.3685   -0.9012    1.6900 O   0  0  0  0  0  0  0  0  0  0  0  0
   -1.0298    1.6198    2.7583 C   0  0  1  0  0  0  0  0  0  0  0  0
   -1.0128    2.8041    3.7272 C   0  0  2  0  0  0  0  0  0  0  0  0
    0.3261    3.1982    3.9612 O   0  0  0  0  0  0  0  0  0  0  0  0
   -1.6898    2.2205    4.9746 C   0  0  2  0  0  0  0  0  0  0  0  0
   -1.3760    2.9448    6.1645 O   0  0  0  0  0  0  0  0  0  0  0  0
   -1.1424    0.7886    4.9287 C   0  0  2  0  0  0  0  0  0  0  0  0
   -1.1541    0.4453    3.5502 O   0  0  0  0  0  0  0  0  0  0  0  0
   -1.9806   -0.2347    5.7039 C   0  0  0  0  0  0  0  0  0  0  0  0
   -1.9548    0.0171    7.0928 O   0  0  0  0  0  0  0  0  0  0  0  0
   -2.5101    3.3805    6.9115 C   0  0  2  0  0  0  0  0  0  0  0  0
   -2.7321    4.8950    6.7806 C   0  0  2  0  0  0  0  0  0  0  0  0
   -2.8388    5.2909    5.3664 N   0  0  0  0  0  0  0  0  0  0  0  0
   -1.6281    5.6817    7.5030 C   0  0  1  0  0  0  0  0  0  0  0  0
   -1.9303    7.0611    7.4228 O   0  0  0  0  0  0  0  0  0  0  0  0
   -1.5923    5.2309    8.9732 C   0  0  2  0  0  0  0  0  0  0  0  0
   -0.5596    5.8966    9.6766 O   0  0  0  0  0  0  0  0  0  0  0  0
   -1.4172    3.7019    9.0784 C   0  0  1  0  0  0  0  0  0  0  0  0
   -2.3810    3.0089    8.2820 O   0  0  0  0  0  0  0  0  0  0  0  0
    0.0149    3.2315    8.7845 C   0  0  0  0  0  0  0  0  0  0  0  0
    0.0558    1.7901    8.4890 N   0  0  0  0  0  0  0  0  0  0  0  0
  1  3  1  0  0  0  0
  1  2  1  6  0  0  0
  3  4  1  6  0  0  0
  5  6  1  1  0  0  0
  5  3  1  0  0  0  0
  7  9  1  0  0  0  0
  7  5  1  0  0  0  0
  7  8  1  6  0  0  0
  9 10  1  0  0  0  0
  9 11  1  1  0  0  0
 10  1  1  0  0  0  0
 11 12  1  0  0  0  0
 13 14  1  1  0  0  0
 13 21  1  0  0  0  0
 15 13  1  0  0  0  0
 16 15  1  0  0  0  0
 16 18  1  0  0  0  0
 16 17  1  6  0  0  0
 18  2  1  6  0  0  0
 18 19  1  0  0  0  0
 19 21  1  0  0  0  0
 19 20  1  1  0  0  0
 21 22  1  6  0  0  0
 23 20  1  6  0  0  0
 23 29  1  0  0  0  0
 23 24  1  0  0  0  0
 24 26  1  0  0  0  0
 24 25  1  1  0  0  0
 26 27  1  1  0  0  0
 28 26  1  0  0  0  0
 28 30  1  1  0  0  0
 29 28  1  0  0  0  0
 30 31  1  0  0  0  0
 32 27  1  6  0  0  0
 32 40  1  0  0  0  0
 32 33  1  0  0  0  0
 33 35  1  0  0  0  0
 33 34  1  6  0  0  0
 35 37  1  0  0  0  0
 35 36  1  1  0  0  0
 37 38  1  1  0  0  0
 39 37  1  0  0  0  0
 39 41  1  6  0  0  0
 40 39  1  0  0  0  0
 42 41  1  0  0  0  0
M  END
>  <CHROM.1>
-141.09350671,-173.10882244,-174.32605479,58.27500622,62.29418623,53.69022115
-67.74775471,174.53783384,77.64014322,-57.35571381,162.81884449,175.23638743
62.85473243,126.53531094,-106.69720866,-66.21251480,-169.97480240,-70.10600760
179.79704297,-51.14788773,-162.55940288,-67.62177076,-0.76870034,2.73874812
2.88010055,-1.02269331,1.14939885,0.92169018

>  <Name>
lig.pdb

>  <RI>
0

>  <Rbt.Current_Directory>
/home/itssahil/PROJECTS/Mol_Feturizer/New_Systems/rnas/2mxs

>  <Rbt.Executable>
rbdock ($Id: //depot/dev/client3/rdock/2013.1/src/exe/rbdock.cxx#4 $)

>  <Rbt.Library>
libRbt.so (2013.1, Build901 2013/11/27)

>  <Rbt.Parameter_File>
/export/apps/rDock/src/rDock_2013.1_src/data/scripts/dock_solv.prm

>  <Rbt.Receptor>
prm/pocket_docking_3.prm

>  <SCORE>
-37.7657

>  <SCORE.INTER>
-32.8559

>  <SCORE.INTER.CONST>
1

>  <SCORE.INTER.POLAR>
-5.25289

>  <SCORE.INTER.ROT>
9

>  <SCORE.INTER.SOLV>
14.8897

>  <SCORE.INTER.VDW>
-18.9575

>  <SCORE.INTER.norm>
-0.782283

>  <SCORE.INTRA>
-4.90983

>  <SCORE.INTRA.DIHEDRAL>
-5.61412

>  <SCORE.INTRA.DIHEDRAL.0>
30.1357

>  <SCORE.INTRA.POLAR>
-0.98467

>  <SCORE.INTRA.POLAR.0>
-0.631696

>  <SCORE.INTRA.REPUL>
0

>  <SCORE.INTRA.REPUL.0>
0

>  <SCORE.INTRA.SOLV>
1.37766

>  <SCORE.INTRA.SOLV.lig_0>
-55.904

>  <SCORE.INTRA.VDW>
0.556277

>  <SCORE.INTRA.VDW.0>
-8.21197

>  <SCORE.INTRA.norm>
-0.116901

>  <SCORE.RESTR>
0

>  <SCORE.RESTR.CAVITY>
0

>  <SCORE.RESTR.norm>
0

>  <SCORE.SYSTEM>
0

>  <SCORE.SYSTEM.CONST>
0

>  <SCORE.SYSTEM.DIHEDRAL>
0

>  <SCORE.SYSTEM.SOLV>
0

>  <SCORE.SYSTEM.norm>
0

>  <SCORE.heavy>
42

>  <SCORE.norm>
-0.899183

>  <RMSD>
2.825

$$$$
lig.pdb
 OpenBabel11021811453D
libRbt.so/2013.1/901 2013/11/27
 42 45  0  0  0  0  0  0  0  0999 V2000
    0.9402    3.9180   -0.2646 C   0  0  2  0  0  0  0  0  0  0  0  0
    0.0286    3.3787   -1.2235 O   0  0  0  0  0  0  0  0  0  0  0  0
    0.9787    5.4514   -0.3482 C   0  0  2  0  0  0  0  0  0  0  0  0
   -0.3737    6.0229   -0.2100 N   0  0  0  0  0  0  0  0  0  0  0  0
    1.6418    5.9145   -1.6518 C   0  0  1  0  0  0  0  0  0  0  0  0
    1.7977    7.3204   -1.6256 O   0  0  0  0  0  0  0  0  0  0  0  0
    3.0187    5.2527   -1.8127 C   0  0  2  0  0  0  0  0  0  0  0  0
    3.5430    5.5663   -3.0887 O   0  0  0  0  0  0  0  0  0  0  0  0
    2.9335    3.7220   -1.6451 C   0  0  2  0  0  0  0  0  0  0  0  0
    2.2444    3.3719   -0.4452 O   0  0  0  0  0  0  0  0  0  0  0  0
    4.3689    3.1643   -1.6024 C   0  0  0  0  0  0  0  0  0  0  0  0
    4.4016    1.7652   -1.2129 O   0  0  0  0  0  0  0  0  0  0  0  0
   -3.1352    0.4986   -0.7482 C   0  0  2  0  0  0  0  0  0  0  0  0
   -3.7102   -0.7345   -0.1745 N   0  0  0  0  0  0  0  0  0  0  0  0
   -1.8746    0.1732   -1.5533 C   0  0  0  0  0  0  0  0  0  0  0  0
   -1.1971    1.4524   -2.0304 C   0  0  2  0  0  0  0  0  0  0  0  0
   -0.0462    1.1290   -2.8828 N   0  0  0  0  0  0  0  0  0  0  0  0
   -0.7858    2.2795   -0.7902 C   0  0  2  0  0  0  0  0  0  0  0  0
   -2.0269    2.7337   -0.0911 C   0  0  2  0  0  0  0  0  0  0  0  0
   -1.6291    3.5226    1.0152 O   0  0  0  0  0  0  0  0  0  0  0  0
   -2.8308    1.5277    0.3566 C   0  0  1  0  0  0  0  0  0  0  0  0
   -4.0601    1.8993    0.9515 O   0  0  0  0  0  0  0  0  0  0  0  0
   -1.4716    2.8714    2.2714 C   0  0  1  0  0  0  0  0  0  0  0  0
   -0.3582    3.5916    3.0350 C   0  0  2  0  0  0  0  0  0  0  0  0
    0.3818    2.6468    3.7851 O   0  0  0  0  0  0  0  0  0  0  0  0
   -1.1430    4.5714    3.9177 C   0  0  2  0  0  0  0  0  0  0  0  0
   -0.3966    5.0145    5.0515 O   0  0  0  0  0  0  0  0  0  0  0  0
   -2.3669    3.7087    4.2493 C   0  0  2  0  0  0  0  0  0  0  0  0
   -2.6584    3.0220    3.0402 O   0  0  0  0  0  0  0  0  0  0  0  0
   -3.6042    4.5046    4.6806 C   0  0  0  0  0  0  0  0  0  0  0  0
   -4.6666    3.6528    5.0533 O   0  0  0  0  0  0  0  0  0  0  0  0
   -1.1208    5.8536    5.9489 C   0  0  2  0  0  0  0  0  0  0  0  0
   -0.5052    7.2583    6.0391 C   0  0  2  0  0  0  0  0  0  0  0  0
   -0.3949    7.8712    4.7048 N   0  0  0  0  0  0  0  0  0  0  0  0
    0.8529    7.2234    6.7559 C   0  0  1  0  0  0  0  0  0  0  0  0
    1.3291    8.5490    6.8857 O   0  0  0  0  0  0  0  0  0  0  0  0
    0.6538    6.5928    8.1446 C   0  0  2  0  0  0  0  0  0  0  0  0
    1.8871    6.4971    8.8332 O   0  0  0  0  0  0  0  0  0  0  0  0
   -0.0095    5.2047    8.0314 C   0  0  1  0  0  0  0  0  0  0  0  0
   -1.1995    5.2563    7.2412 O   0  0  0  0  0  0  0  0  0  0  0  0
    0.9519    4.1081    7.5497 C   0  0  0  0  0  0  0  0  0  0  0  0
    2.0880    3.9482    8.4717 N   0  0  0  0  0  0  0  0  0  0  0  0
  1  3  1  0  0  0  0
  1  2  1  6  0  0  0
  3  4  1  6  0  0  0
  5  6  1  1  0  0  0
  5  3  1  0  0  0  0
  7  9  1  0  0  0  0
  7  5  1  0  0  0  0
  7  8  1  6  0  0  0
  9 10  1  0  0  0  0
  9 11  1  1  0  0  0
 10  1  1  0  0  0  0
 11 12  1  0  0  0  0
 13 14  1  1  0  0  0
 13 21  1  0  0  0  0
 15 13  1  0  0  0  0
 16 15  1  0  0  0  0
 16 18  1  0  0  0  0
 16 17  1  1  0  0  0
 18  2  1  6  0  0  0
 18 19  1  0  0  0  0
 19 21  1  0  0  0  0
 19 20  1  1  0  0  0
 21 22  1  6  0  0  0
 23 20  1  6  0  0  0
 23 29  1  0  0  0  0
 23 24  1  0  0  0  0
 24 26  1  0  0  0  0
 24 25  1  1  0  0  0
 26 27  1  1  0  0  0
 28 26  1  0  0  0  0
 28 30  1  6  0  0  0
 29 28  1  0  0  0  0
 30 31  1  0  0  0  0
 32 27  1  6  0  0  0
 32 40  1  0  0  0  0
 32 33  1  0  0  0  0
 33 35  1  0  0  0  0
 33 34  1  6  0  0  0
 35 37  1  0  0  0  0
 35 36  1  1  0  0  0
 37 38  1  6  0  0  0
 39 37  1  0  0  0  0
 39 41  1  6  0  0  0
 40 39  1  0  0  0  0
 42 41  1  0  0  0  0
M  END
>  <CHROM.1>
-154.86771416,-139.54572222,34.18134725,177.31593461,172.44527133,62.46094066
169.88722835,-60.48018098,49.17855442,-92.81372267,147.97019729,169.30003530
64.16899643,-175.83636803,-117.14084457,-176.21363846,-61.45780599,66.52332298
-76.03501307,158.40491285,60.23567595,-168.72963668,-0.15862964,4.08409311
2.21396764,-1.51581947,0.58587291,1.19003145

>  <Name>
lig.pdb

>  <RI>
0

>  <Rbt.Current_Directory>
/home/itssahil/PROJECTS/Mol_Feturizer/New_Systems/rnas/2mxs

>  <Rbt.Executable>
rbdock ($Id: //depot/dev/client3/rdock/2013.1/src/exe/rbdock.cxx#4 $)

>  <Rbt.Library>
libRbt.so (2013.1, Build901 2013/11/27)

>  <Rbt.Parameter_File>
/export/apps/rDock/src/rDock_2013.1_src/data/scripts/dock_solv.prm

>  <Rbt.Receptor>
prm/pocket_docking_4.prm

>  <SCORE>
-45.9262

>  <SCORE.INTER>
-43.2464

>  <SCORE.INTER.CONST>
1

>  <SCORE.INTER.POLAR>
-4.88817

>  <SCORE.INTER.ROT>
9

>  <SCORE.INTER.SOLV>
20.9545

>  <SCORE.INTER.VDW>
-29.1218

>  <SCORE.INTER.norm>
-1.02968

>  <SCORE.INTRA>
-2.67988

>  <SCORE.INTRA.DIHEDRAL>
0.769418

>  <SCORE.INTRA.DIHEDRAL.0>
30.1357

>  <SCORE.INTRA.POLAR>
-1.93052

>  <SCORE.INTRA.POLAR.0>
-0.631696

>  <SCORE.INTRA.REPUL>
0

>  <SCORE.INTRA.REPUL.0>
0

>  <SCORE.INTRA.SOLV>
-1.18502

>  <SCORE.INTRA.SOLV.lig_0>
-55.904

>  <SCORE.INTRA.VDW>
4.09169

>  <SCORE.INTRA.VDW.0>
-8.21197

>  <SCORE.INTRA.norm>
-0.0638066

>  <SCORE.RESTR>
0

>  <SCORE.RESTR.CAVITY>
0

>  <SCORE.RESTR.norm>
0

>  <SCORE.SYSTEM>
0

>  <SCORE.SYSTEM.CONST>
0

>  <SCORE.SYSTEM.DIHEDRAL>
0

>  <SCORE.SYSTEM.SOLV>
0

>  <SCORE.SYSTEM.norm>
0

>  <SCORE.heavy>
42

>  <SCORE.norm>
-1.09348

>  <RMSD>
2.925

$$$$
lig.pdb
 OpenBabel11021811453D
libRbt.so/2013.1/901 2013/11/27
 42 45  0  0  0  0  0  0  0  0999 V2000
    0.4702    3.9502    1.3907 C   0  0  2  0  0  0  0  0  0  0  0  0
   -0.5542    3.1227    0.8364 O   0  0  0  0  0  0  0  0  0  0  0  0
    0.0448    5.4262    1.3837 C   0  0  2  0  0  0  0  0  0  0  0  0
   -1.2470    5.6078    2.0712 N   0  0  0  0  0  0  0  0  0  0  0  0
   -0.0109    5.9757   -0.0475 C   0  0  1  0  0  0  0  0  0  0  0  0
   -0.2549    7.3686   -0.0067 O   0  0  0  0  0  0  0  0  0  0  0  0
    1.3188    5.7129   -0.7705 C   0  0  2  0  0  0  0  0  0  0  0  0
    1.1936    6.0822   -2.1304 O   0  0  0  0  0  0  0  0  0  0  0  0
    1.7352    4.2315   -0.6679 C   0  0  2  0  0  0  0  0  0  0  0  0
    1.6962    3.7770    0.6844 O   0  0  0  0  0  0  0  0  0  0  0  0
    3.1667    4.0971   -1.2210 C   0  0  0  0  0  0  0  0  0  0  0  0
    3.2608    4.5226   -2.6067 O   0  0  0  0  0  0  0  0  0  0  0  0
   -0.6947   -1.1319    0.1958 C   0  0  2  0  0  0  0  0  0  0  0  0
   -0.0731   -2.4280   -0.1420 N   0  0  0  0  0  0  0  0  0  0  0  0
   -0.5534   -0.1535   -0.9729 C   0  0  0  0  0  0  0  0  0  0  0  0
   -1.0658    1.2276   -0.5818 C   0  0  2  0  0  0  0  0  0  0  0  0
   -1.0176    2.1322   -1.7374 N   0  0  0  0  0  0  0  0  0  0  0  0
   -0.2136    1.7491    0.5985 C   0  0  2  0  0  0  0  0  0  0  0  0
   -0.4760    0.8848    1.7900 C   0  0  2  0  0  0  0  0  0  0  0  0
    0.2804    1.4037    2.8685 O   0  0  0  0  0  0  0  0  0  0  0  0
   -0.0783   -0.5460    1.4801 C   0  0  1  0  0  0  0  0  0  0  0  0
   -0.3837   -1.4254    2.5461 O   0  0  0  0  0  0  0  0  0  0  0  0
    0.6795    0.5001    3.8938 C   0  0  1  0  0  0  0  0  0  0  0  0
    1.3078    1.3211    5.0219 C   0  0  2  0  0  0  0  0  0  0  0  0
    2.3756    0.5897    5.5943 O   0  0  0  0  0  0  0  0  0  0  0  0
    0.1303    1.5121    5.9872 C   0  0  2  0  0  0  0  0  0  0  0  0
    0.5493    1.8194    7.3172 O   0  0  0  0  0  0  0  0  0  0  0  0
   -0.5663    0.1551    5.8285 C   0  0  2  0  0  0  0  0  0  0  0  0
   -0.4671   -0.1378    4.4419 O   0  0  0  0  0  0  0  0  0  0  0  0
   -2.0450    0.1514    6.2337 C   0  0  0  0  0  0  0  0  0  0  0  0
   -2.4799   -1.1401    6.6024 O   0  0  0  0  0  0  0  0  0  0  0  0
    0.4704    3.2014    7.6609 C   0  0  2  0  0  0  0  0  0  0  0  0
    1.8374    3.7645    8.0785 C   0  0  2  0  0  0  0  0  0  0  0  0
    2.8453    3.5304    7.0309 N   0  0  0  0  0  0  0  0  0  0  0  0
    2.2858    3.1866    9.4293 C   0  0  1  0  0  0  0  0  0  0  0  0
    3.5030    3.8030    9.8024 O   0  0  0  0  0  0  0  0  0  0  0  0
    1.1967    3.4883   10.4728 C   0  0  2  0  0  0  0  0  0  0  0  0
    1.5416    2.9378   11.7307 O   0  0  0  0  0  0  0  0  0  0  0  0
   -0.1751    2.9563   10.0095 C   0  0  1  0  0  0  0  0  0  0  0  0
   -0.4934    3.4078    8.6911 O   0  0  0  0  0  0  0  0  0  0  0  0
   -0.3140    1.4326   10.1432 C   0  0  0  0  0  0  0  0  0  0  0  0
   -0.4166    1.0253   11.5538 N   0  0  0  0  0  0  0  0  0  0  0  0
  1  3  1  0  0  0  0
  1  2  1  6  0  0  0
  3  4  1  6  0  0  0
  5  6  1  1  0  0  0
  5  3  1  0  0  0  0
  7  9  1  0  0  0  0
  7  5  1  0  0  0  0
  7  8  1  6  0  0  0
  9 10  1  0  0  0  0
  9 11  1  1  0  0  0
 10  1  1  0  0  0  0
 11 12  1  0  0  0  0
 13 14  1  6  0  0  0
 13 21  1  0  0  0  0
 15 13  1  0  0  0  0
 16 15  1  0  0  0  0
 16 18  1  0  0  0  0
 16 17  1  6  0  0  0
 18  2  1  1  0  0  0
 18 19  1  0  0  0  0
 19 21  1  0  0  0  0
 19 20  1  1  0  0  0
 21 22  1  1  0  0  0
 23 20  1  6  0  0  0
 23 29  1  0  0  0  0
 23 24  1  0  0  0  0
 24 26  1  0  0  0  0
 24 25  1  1  0  0  0
 26 27  1  1  0  0  0
 28 26  1  0  0  0  0
 28 30  1  6  0  0  0
 29 28  1  0  0  0  0
 30 31  1  0  0  0  0
 32 27  1  1  0  0  0
 32 40  1  0  0  0  0
 32 33  1  0  0  0  0
 33 35  1  0  0  0  0
 33 34  1  6  0  0  0
 35 37  1  0  0  0  0
 35 36  1  1  0  0  0
 37 38  1  1  0  0  0
 39 37  1  0  0  0  0
 39 41  1  6  0  0  0
 40 39  1  0  0  0  0
 42 41  1  0  0  0  0
M  END
>  <CHROM.1>
-151.37616747,171.03561006,58.34628015,-87.84294911,-51.75551404,48.90715566
-59.66771631,-101.30609922,44.68663788,-152.91061305,-172.45039067,88.51752135
-63.60542675,100.53013903,-121.29497966,-155.46861868,-58.80650586,-47.35847389
61.96890400,173.13651227,71.25693500,-65.17175949,0.44249769,2.36037377,3.83175067
-1.62080807,1.22743790,1.72968933

>  <Name>
lig.pdb

>  <RI>
0

>  <Rbt.Current_Directory>
/home/itssahil/PROJECTS/Mol_Feturizer/New_Systems/rnas/2mxs

>  <Rbt.Executable>
rbdock ($Id: //depot/dev/client3/rdock/2013.1/src/exe/rbdock.cxx#4 $)

>  <Rbt.Library>
libRbt.so (2013.1, Build901 2013/11/27)

>  <Rbt.Parameter_File>
/export/apps/rDock/src/rDock_2013.1_src/data/scripts/dock_solv.prm

>  <Rbt.Receptor>
prm/pocket_docking_3.prm

>  <SCORE>
-42.9091

>  <SCORE.INTER>
-51.8332

>  <SCORE.INTER.CONST>
1

>  <SCORE.INTER.POLAR>
-7.95103

>  <SCORE.INTER.ROT>
9

>  <SCORE.INTER.SOLV>
20.8261

>  <SCORE.INTER.VDW>
-24.594

>  <SCORE.INTER.norm>
-1.23412

>  <SCORE.INTRA>
8.63275

>  <SCORE.INTRA.DIHEDRAL>
3.83205

>  <SCORE.INTRA.DIHEDRAL.0>
30.1357

>  <SCORE.INTRA.POLAR>
-0.382059

>  <SCORE.INTRA.POLAR.0>
-0.631696

>  <SCORE.INTRA.REPUL>
0.0267894

>  <SCORE.INTRA.REPUL.0>
0

>  <SCORE.INTRA.SOLV>
-0.10538

>  <SCORE.INTRA.SOLV.lig_0>
-55.904

>  <SCORE.INTRA.VDW>
7.93446

>  <SCORE.INTRA.VDW.0>
-8.21197

>  <SCORE.INTRA.norm>
0.205542

>  <SCORE.RESTR>
0.291322

>  <SCORE.RESTR.CAVITY>
0.291322

>  <SCORE.RESTR.norm>
0.00693624

>  <SCORE.SYSTEM>
0

>  <SCORE.SYSTEM.CONST>
0

>  <SCORE.SYSTEM.DIHEDRAL>
0

>  <SCORE.SYSTEM.SOLV>
0

>  <SCORE.SYSTEM.norm>
0

>  <SCORE.heavy>
42

>  <SCORE.norm>
-1.02165

>  <RMSD>
2.936

$$$$
lig.pdb
 OpenBabel11021811453D
libRbt.so/2013.1/901 2013/11/27
 42 45  0  0  0  0  0  0  0  0999 V2000
    0.4993    4.8377    1.4925 C   0  0  2  0  0  0  0  0  0  0  0  0
   -0.7554    4.1852    1.2888 O   0  0  0  0  0  0  0  0  0  0  0  0
    0.5074    6.2257    0.8343 C   0  0  2  0  0  0  0  0  0  0  0  0
   -0.6254    7.0424    1.3075 N   0  0  0  0  0  0  0  0  0  0  0  0
    0.5011    6.1088   -0.6954 C   0  0  1  0  0  0  0  0  0  0  0  0
    0.6630    7.3936   -1.2652 O   0  0  0  0  0  0  0  0  0  0  0  0
    1.6447    5.1964   -1.1641 C   0  0  2  0  0  0  0  0  0  0  0  0
    1.5265    4.9747   -2.5563 O   0  0  0  0  0  0  0  0  0  0  0  0
    1.6336    3.8469   -0.4177 C   0  0  2  0  0  0  0  0  0  0  0  0
    1.5701    4.0392    0.9951 O   0  0  0  0  0  0  0  0  0  0  0  0
    2.9235    3.0875   -0.7820 C   0  0  0  0  0  0  0  0  0  0  0  0
    4.0951    3.9452   -0.7379 O   0  0  0  0  0  0  0  0  0  0  0  0
   -2.3363    0.6155    3.1025 C   0  0  2  0  0  0  0  0  0  0  0  0
   -2.2133   -0.7743    3.5858 N   0  0  0  0  0  0  0  0  0  0  0  0
   -2.0422    0.6848    1.6018 C   0  0  0  0  0  0  0  0  0  0  0  0
   -2.0286    2.1319    1.1237 C   0  0  2  0  0  0  0  0  0  0  0  0
   -1.8437    2.1831   -0.3320 N   0  0  0  0  0  0  0  0  0  0  0  0
   -0.9078    2.8853    1.8772 C   0  0  2  0  0  0  0  0  0  0  0  0
   -1.2760    2.9570    3.3246 C   0  0  2  0  0  0  0  0  0  0  0  0
   -0.2591    3.6855    3.9879 O   0  0  0  0  0  0  0  0  0  0  0  0
   -1.4025    1.5546    3.8890 C   0  0  1  0  0  0  0  0  0  0  0  0
   -1.8322    1.5612    5.2375 O   0  0  0  0  0  0  0  0  0  0  0  0
   -0.6559    4.6150    4.9906 C   0  0  1  0  0  0  0  0  0  0  0  0
   -0.9783    3.8240    6.2601 C   0  0  2  0  0  0  0  0  0  0  0  0
   -2.0623    4.4379    6.9315 O   0  0  0  0  0  0  0  0  0  0  0  0
    0.3367    3.9107    7.0465 C   0  0  2  0  0  0  0  0  0  0  0  0
    0.1621    3.6766    8.4442 O   0  0  0  0  0  0  0  0  0  0  0  0
    0.7715    5.3353    6.6812 C   0  0  2  0  0  0  0  0  0  0  0  0
    0.4346    5.4708    5.3077 O   0  0  0  0  0  0  0  0  0  0  0  0
    2.2709    5.6037    6.8549 C   0  0  0  0  0  0  0  0  0  0  0  0
    3.0408    4.4535    6.5763 O   0  0  0  0  0  0  0  0  0  0  0  0
    1.3423    3.2625    9.1295 C   0  0  2  0  0  0  0  0  0  0  0  0
    1.5805    1.7509    8.9935 C   0  0  2  0  0  0  0  0  0  0  0  0
    1.6153    1.3490    7.5774 N   0  0  0  0  0  0  0  0  0  0  0  0
    0.5304    0.9513    9.7793 C   0  0  1  0  0  0  0  0  0  0  0  0
    0.8494   -0.4238    9.6890 O   0  0  0  0  0  0  0  0  0  0  0  0
    0.5686    1.4094   11.2471 C   0  0  2  0  0  0  0  0  0  0  0  0
   -0.4132    0.7318   12.0095 O   0  0  0  0  0  0  0  0  0  0  0  0
    0.3756    2.9361   11.3549 C   0  0  1  0  0  0  0  0  0  0  0  0
    1.2830    3.6396   10.5033 O   0  0  0  0  0  0  0  0  0  0  0  0
   -1.0778    3.3828   11.1382 C   0  0  0  0  0  0  0  0  0  0  0  0
   -1.1496    4.7960   10.7330 N   0  0  0  0  0  0  0  0  0  0  0  0
  1  3  1  0  0  0  0
  1  2  1  6  0  0  0
  3  4  1  1  0  0  0
  5  6  1  6  0  0  0
  5  3  1  0  0  0  0
  7  9  1  0  0  0  0
  7  5  1  0  0  0  0
  7  8  1  6  0  0  0
  9 10  1  0  0  0  0
  9 11  1  1  0  0  0
 10  1  1  0  0  0  0
 11 12  1  0  0  0  0
 13 14  1  1  0  0  0
 13 21  1  0  0  0  0
 15 13  1  0  0  0  0
 16 15  1  0  0  0  0
 16 18  1  0  0  0  0
 16 17  1  6  0  0  0
 18  2  1  6  0  0  0
 18 19  1  0  0  0  0
 19 21  1  0  0  0  0
 19 20  1  1  0  0  0
 21 22  1  1  0  0  0
 23 20  1  6  0  0  0
 23 29  1  0  0  0  0
 23 24  1  0  0  0  0
 24 26  1  0  0  0  0
 24 25  1  1  0  0  0
 26 27  1  1  0  0  0
 28 26  1  0  0  0  0
 28 30  1  6  0  0  0
 29 28  1  0  0  0  0
 30 31  1  0  0  0  0
 32 27  1  1  0  0  0
 32 40  1  0  0  0  0
 32 33  1  0  0  0  0
 33 35  1  0  0  0  0
 33 34  1  6  0  0  0
 35 37  1  0  0  0  0
 35 36  1  1  0  0  0
 37 38  1  1  0  0  0
 39 37  1  0  0  0  0
 39 41  1  6  0  0  0
 40 39  1  0  0  0  0
 42 41  1  0  0  0  0
M  END
>  <CHROM.1>
-157.99543145,-178.81897637,-111.63662131,-160.83744216,-169.94447641,-60.74541487
44.76959228,65.65099347,36.89106068,139.47252061,78.30133787,-59.82764688
-61.29966077,158.08218607,-83.25113329,33.35526522,-68.22205015,-56.72951241
172.77814185,54.21687312,-157.99374935,-170.38761739,0.16708262,3.41644018
4.68344007,-1.49160703,1.01642233,1.70333309

>  <Name>
lig.pdb

>  <RI>
0

>  <Rbt.Current_Directory>
/home/itssahil/PROJECTS/Mol_Feturizer/New_Systems/rnas/2mxs

>  <Rbt.Executable>
rbdock ($Id: //depot/dev/client3/rdock/2013.1/src/exe/rbdock.cxx#4 $)

>  <Rbt.Library>
libRbt.so (2013.1, Build901 2013/11/27)

>  <Rbt.Parameter_File>
/export/apps/rDock/src/rDock_2013.1_src/data/scripts/dock_solv.prm

>  <Rbt.Receptor>
prm/pocket_docking_3.prm

>  <SCORE>
-30.4517

>  <SCORE.INTER>
-34.9526

>  <SCORE.INTER.CONST>
1

>  <SCORE.INTER.POLAR>
-5.43879

>  <SCORE.INTER.ROT>
9

>  <SCORE.INTER.SOLV>
19.5221

>  <SCORE.INTER.VDW>
-21.2798

>  <SCORE.INTER.norm>
-0.832205

>  <SCORE.INTRA>
4.47197

>  <SCORE.INTRA.DIHEDRAL>
-3.52175

>  <SCORE.INTRA.DIHEDRAL.0>
30.1357

>  <SCORE.INTRA.POLAR>
-0.0910905

>  <SCORE.INTRA.POLAR.0>
-0.631696

>  <SCORE.INTRA.REPUL>
0.0495746

>  <SCORE.INTRA.REPUL.0>
0

>  <SCORE.INTRA.SOLV>
1.07515

>  <SCORE.INTRA.SOLV.lig_0>
-55.904

>  <SCORE.INTRA.VDW>
5.7571

>  <SCORE.INTRA.VDW.0>
-8.21197

>  <SCORE.INTRA.norm>
0.106476

>  <SCORE.RESTR>
0.0289398

>  <SCORE.RESTR.CAVITY>
0.0289398

>  <SCORE.RESTR.norm>
0.000689044

>  <SCORE.SYSTEM>
0

>  <SCORE.SYSTEM.CONST>
0

>  <SCORE.SYSTEM.DIHEDRAL>
0

>  <SCORE.SYSTEM.SOLV>
0

>  <SCORE.SYSTEM.norm>
0

>  <SCORE.heavy>
42

>  <SCORE.norm>
-0.72504

>  <RMSD>
2.997

$$$$
lig.pdb
 OpenBabel11021811453D
libRbt.so/2013.1/901 2013/11/27
 42 45  0  0  0  0  0  0  0  0999 V2000
   -0.1633    2.5634   -0.7458 C   0  0  2  0  0  0  0  0  0  0  0  0
    0.5648    1.8060    0.2225 O   0  0  0  0  0  0  0  0  0  0  0  0
    0.7049    3.6913   -1.3237 C   0  0  2  0  0  0  0  0  0  0  0  0
    1.9672    3.1601   -1.8703 N   0  0  0  0  0  0  0  0  0  0  0  0
    0.9731    4.7736   -0.2701 C   0  0  1  0  0  0  0  0  0  0  0  0
    1.6416    5.8634   -0.8759 O   0  0  0  0  0  0  0  0  0  0  0  0
   -0.3497    5.2629    0.3389 C   0  0  2  0  0  0  0  0  0  0  0  0
   -0.0743    6.1405    1.4137 O   0  0  0  0  0  0  0  0  0  0  0  0
   -1.2138    4.0856    0.8344 C   0  0  2  0  0  0  0  0  0  0  0  0
   -1.3599    3.0906   -0.1784 O   0  0  0  0  0  0  0  0  0  0  0  0
   -2.5978    4.6382    1.2244 C   0  0  0  0  0  0  0  0  0  0  0  0
   -3.4156    3.6431    1.8962 O   0  0  0  0  0  0  0  0  0  0  0  0
   -1.9979   -1.6167    0.7218 C   0  0  2  0  0  0  0  0  0  0  0  0
   -2.2598   -3.0084    1.1399 N   0  0  0  0  0  0  0  0  0  0  0  0
   -0.9164   -1.5811   -0.3609 C   0  0  0  0  0  0  0  0  0  0  0  0
   -0.5401   -0.1429   -0.6969 C   0  0  2  0  0  0  0  0  0  0  0  0
    0.4247   -0.1165   -1.8034 N   0  0  0  0  0  0  0  0  0  0  0  0
    0.0224    0.5261    0.5788 C   0  0  2  0  0  0  0  0  0  0  0  0
   -1.0812    0.6365    1.5815 C   0  0  2  0  0  0  0  0  0  0  0  0
   -0.5565    1.2881    2.7237 O   0  0  0  0  0  0  0  0  0  0  0  0
   -1.5959   -0.7477    1.9283 C   0  0  1  0  0  0  0  0  0  0  0  0
   -2.7002   -0.6982    2.8122 O   0  0  0  0  0  0  0  0  0  0  0  0
   -1.4274    1.4871    3.8321 C   0  0  1  0  0  0  0  0  0  0  0  0
   -0.6276    1.2198    5.1090 C   0  0  2  0  0  0  0  0  0  0  0  0
   -1.4685    0.6072    6.0684 O   0  0  0  0  0  0  0  0  0  0  0  0
   -0.1807    2.6291    5.5203 C   0  0  2  0  0  0  0  0  0  0  0  0
    0.1617    2.7192    6.9036 O   0  0  0  0  0  0  0  0  0  0  0  0
   -1.4214    3.4317    5.1100 C   0  0  2  0  0  0  0  0  0  0  0  0
   -1.8344    2.8487    3.8820 O   0  0  0  0  0  0  0  0  0  0  0  0
   -1.1636    4.9269    4.8895 C   0  0  0  0  0  0  0  0  0  0  0  0
   -0.2084    5.1456    3.8732 O   0  0  0  0  0  0  0  0  0  0  0  0
    0.4467    4.0399    7.3605 C   0  0  2  0  0  0  0  0  0  0  0  0
    1.8664    4.1504    7.9369 C   0  0  2  0  0  0  0  0  0  0  0  0
    2.8684    3.6948    6.9588 N   0  0  0  0  0  0  0  0  0  0  0  0
    1.9873    3.3854    9.2635 C   0  0  1  0  0  0  0  0  0  0  0  0
    3.2843    3.5934    9.7881 O   0  0  0  0  0  0  0  0  0  0  0  0
    0.9278    3.9296   10.2368 C   0  0  2  0  0  0  0  0  0  0  0  0
    0.9676    3.2268   11.4652 O   0  0  0  0  0  0  0  0  0  0  0  0
   -0.4829    3.8530    9.6175 C   0  0  1  0  0  0  0  0  0  0  0  0
   -0.5194    4.4573    8.3226 O   0  0  0  0  0  0  0  0  0  0  0  0
   -1.0656    2.4320    9.6041 C   0  0  0  0  0  0  0  0  0  0  0  0
   -0.0970    1.4604    9.0712 N   0  0  0  0  0  0  0  0  0  0  0  0
  1  3  1  0  0  0  0
  1  2  1  1  0  0  0
  3  4  1  1  0  0  0
  5  6  1  6  0  0  0
  5  3  1  0  0  0  0
  7  9  1  0  0  0  0
  7  5  1  0  0  0  0
  7  8  1  1  0  0  0
  9 10  1  0  0  0  0
  9 11  1  6  0  0  0
 10  1  1  0  0  0  0
 11 12  1  0  0  0  0
 13 14  1  1  0  0  0
 13 21  1  0  0  0  0
 15 13  1  0  0  0  0
 16 15  1  0  0  0  0
 16 18  1  0  0  0  0
 16 17  1  6  0  0  0
 18  2  1  6  0  0  0
 18 19  1  0  0  0  0
 19 21  1  0  0  0  0
 19 20  1  1  0  0  0
 21 22  1  1  0  0  0
 23 20  1  6  0  0  0
 23 29  1  0  0  0  0
 23 24  1  0  0  0  0
 24 26  1  0  0  0  0
 24 25  1  1  0  0  0
 26 27  1  1  0  0  0
 28 26  1  0  0  0  0
 28 30  1  6  0  0  0
 29 28  1  0  0  0  0
 30 31  1  0  0  0  0
 32 27  1  1  0  0  0
 32 40  1  0  0  0  0
 32 33  1  0  0  0  0
 33 35  1  0  0  0  0
 33 34  1  6  0  0  0
 35 37  1  0  0  0  0
 35 36  1  1  0  0  0
 37 38  1  1  0  0  0
 39 37  1  0  0  0  0
 39 41  1  6  0  0  0
 40 39  1  0  0  0  0
 42 41  1  0  0  0  0
M  END
>  <CHROM.1>
39.04722196,-163.82651320,67.85709763,55.48489514,-66.14470930,61.22819750
-171.12288796,172.91657305,98.80575536,-178.94928251,139.86332963,146.59966136
-58.90287970,-173.69650287,-121.00575166,59.81178522,-66.42094875,-55.92566572
178.05206003,-51.99726379,-48.35950744,-168.85159040,-0.27723136,2.53252574
3.68535839,-1.91879413,1.20118502,1.72425396

>  <Name>
lig.pdb

>  <RI>
224

>  <Rbt.Current_Directory>
/home/itssahil/PROJECTS/Mol_Feturizer/New_Systems/rnas/2mxs

>  <Rbt.Executable>
rbdock ($Id: //depot/dev/client3/rdock/2013.1/src/exe/rbdock.cxx#4 $)

>  <Rbt.Library>
libRbt.so (2013.1, Build901 2013/11/27)

>  <Rbt.Parameter_File>
/export/apps/rDock/src/rDock_2013.1_src/data/scripts/dock_solv.prm

>  <Rbt.Receptor>
prm/pocket_docking_2.prm

>  <SCORE>
-27.2809

>  <SCORE.INTER>
-27.9715

>  <SCORE.INTER.CONST>
1

>  <SCORE.INTER.POLAR>
-4.10527

>  <SCORE.INTER.ROT>
9

>  <SCORE.INTER.SOLV>
12.7544

>  <SCORE.INTER.VDW>
-18.8149

>  <SCORE.INTER.norm>
-0.665988

>  <SCORE.INTRA>
-1.06338

>  <SCORE.INTRA.DIHEDRAL>
-4.69464

>  <SCORE.INTRA.DIHEDRAL.0>
30.1357

>  <SCORE.INTRA.POLAR>
-1.87476

>  <SCORE.INTRA.POLAR.0>
-0.631696

>  <SCORE.INTRA.REPUL>
0.0945739

>  <SCORE.INTRA.REPUL.0>
0

>  <SCORE.INTRA.SOLV>
4.09989

>  <SCORE.INTRA.SOLV.lig_0>
-55.904

>  <SCORE.INTRA.VDW>
5.13532

>  <SCORE.INTRA.VDW.0>
-8.21197

>  <SCORE.INTRA.norm>
-0.0253185

>  <SCORE.RESTR>
1.75398

>  <SCORE.RESTR.CAVITY>
1.75398

>  <SCORE.RESTR.norm>
0.0417615

>  <SCORE.SYSTEM>
0

>  <SCORE.SYSTEM.CONST>
0

>  <SCORE.SYSTEM.DIHEDRAL>
0

>  <SCORE.SYSTEM.SOLV>
0

>  <SCORE.SYSTEM.norm>
0

>  <SCORE.heavy>
42

>  <SCORE.norm>
-0.649545

>  <RMSD>
3.044

$$$$
lig.pdb
 OpenBabel11021811453D
libRbt.so/2013.1/901 2013/11/27
 42 45  0  0  0  0  0  0  0  0999 V2000
    1.2019    4.2941    0.7261 C   0  0  2  0  0  0  0  0  0  0  0  0
    0.1576    3.4533    0.2322 O   0  0  0  0  0  0  0  0  0  0  0  0
    0.6520    5.3149    1.7337 C   0  0  2  0  0  0  0  0  0  0  0  0
   -0.0798    4.6420    2.8228 N   0  0  0  0  0  0  0  0  0  0  0  0
   -0.2337    6.3547    1.0352 C   0  0  1  0  0  0  0  0  0  0  0  0
   -0.5960    7.3611    1.9612 O   0  0  0  0  0  0  0  0  0  0  0  0
    0.5211    6.9928   -0.1407 C   0  0  2  0  0  0  0  0  0  0  0  0
   -0.3610    7.8284   -0.8655 O   0  0  0  0  0  0  0  0  0  0  0  0
    1.1154    5.9227   -1.0787 C   0  0  2  0  0  0  0  0  0  0  0  0
    1.8675    4.9553   -0.3469 O   0  0  0  0  0  0  0  0  0  0  0  0
    2.0297    6.6318   -2.0958 C   0  0  0  0  0  0  0  0  0  0  0  0
    3.2634    7.1013   -1.4892 O   0  0  0  0  0  0  0  0  0  0  0  0
   -0.2333   -0.8274   -0.0008 C   0  0  2  0  0  0  0  0  0  0  0  0
    0.3191   -2.1967    0.0091 N   0  0  0  0  0  0  0  0  0  0  0  0
    0.3718   -0.0179   -1.1505 C   0  0  0  0  0  0  0  0  0  0  0  0
   -0.0852    1.4345   -1.0831 C   0  0  2  0  0  0  0  0  0  0  0  0
    0.4201    2.1792   -2.2433 N   0  0  0  0  0  0  0  0  0  0  0  0
    0.4052    2.0399    0.2527 C   0  0  2  0  0  0  0  0  0  0  0  0
   -0.3090    1.3548    1.3734 C   0  0  2  0  0  0  0  0  0  0  0  0
    0.1227    1.9515    2.5826 O   0  0  0  0  0  0  0  0  0  0  0  0
    0.0090   -0.1283    1.3502 C   0  0  1  0  0  0  0  0  0  0  0  0
   -0.7082   -0.8413    2.3403 O   0  0  0  0  0  0  0  0  0  0  0  0
   -0.2906    1.3483    3.8042 C   0  0  1  0  0  0  0  0  0  0  0  0
    0.1363    2.2701    4.9486 C   0  0  2  0  0  0  0  0  0  0  0  0
    0.5214    1.4862    6.0621 O   0  0  0  0  0  0  0  0  0  0  0  0
   -1.1362    3.0882    5.2063 C   0  0  2  0  0  0  0  0  0  0  0  0
   -1.1652    3.6704    6.5098 O   0  0  0  0  0  0  0  0  0  0  0  0
   -2.1995    2.0113    4.9578 C   0  0  2  0  0  0  0  0  0  0  0  0
   -1.7102    1.2756    3.8453 O   0  0  0  0  0  0  0  0  0  0  0  0
   -3.5899    2.5609    4.6186 C   0  0  0  0  0  0  0  0  0  0  0  0
   -4.5191    1.5221    4.3933 O   0  0  0  0  0  0  0  0  0  0  0  0
   -2.3977    4.3015    6.8516 C   0  0  2  0  0  0  0  0  0  0  0  0
   -2.4210    5.7769    6.4242 C   0  0  2  0  0  0  0  0  0  0  0  0
   -2.1307    5.9132    4.9871 N   0  0  0  0  0  0  0  0  0  0  0  0
   -1.4555    6.6159    7.2749 C   0  0  1  0  0  0  0  0  0  0  0  0
   -1.5829    7.9728    6.8965 O   0  0  0  0  0  0  0  0  0  0  0  0
   -1.8338    6.4402    8.7554 C   0  0  2  0  0  0  0  0  0  0  0  0
   -0.9449    7.1612    9.5888 O   0  0  0  0  0  0  0  0  0  0  0  0
   -1.8508    4.9486    9.1484 C   0  0  1  0  0  0  0  0  0  0  0  0
   -2.6529    4.1797    8.2491 O   0  0  0  0  0  0  0  0  0  0  0  0
   -0.4476    4.3487    9.3216 C   0  0  0  0  0  0  0  0  0  0  0  0
   -0.4785    2.8796    9.2377 N   0  0  0  0  0  0  0  0  0  0  0  0
  1  3  1  0  0  0  0
  1  2  1  6  0  0  0
  3  4  1  1  0  0  0
  5  6  1  1  0  0  0
  5  3  1  0  0  0  0
  7  9  1  0  0  0  0
  7  5  1  0  0  0  0
  7  8  1  6  0  0  0
  9 10  1  0  0  0  0
  9 11  1  6  0  0  0
 10  1  1  0  0  0  0
 11 12  1  0  0  0  0
 13 14  1  1  0  0  0
 13 21  1  0  0  0  0
 15 13  1  0  0  0  0
 16 15  1  0  0  0  0
 16 18  1  0  0  0  0
 16 17  1  6  0  0  0
 18  2  1  6  0  0  0
 18 19  1  0  0  0  0
 19 21  1  0  0  0  0
 19 20  1  1  0  0  0
 21 22  1  1  0  0  0
 23 20  1  6  0  0  0
 23 29  1  0  0  0  0
 23 24  1  0  0  0  0
 24 26  1  0  0  0  0
 24 25  1  1  0  0  0
 26 27  1  1  0  0  0
 28 26  1  0  0  0  0
 28 30  1  6  0  0  0
 29 28  1  0  0  0  0
 30 31  1  0  0  0  0
 32 27  1  1  0  0  0
 32 40  1  0  0  0  0
 32 33  1  0  0  0  0
 33 35  1  0  0  0  0
 33 34  1  6  0  0  0
 35 37  1  0  0  0  0
 35 36  1  6  0  0  0
 37 38  1  1  0  0  0
 39 37  1  0  0  0  0
 39 41  1  6  0  0  0
 40 39  1  0  0  0  0
 42 41  1  0  0  0  0
M  END
>  <CHROM.1>
-136.83148379,-130.92987203,-18.21054992,62.36093181,-163.87162336,179.28494349
72.26193381,-5.22968389,78.83163574,-172.01239624,-172.48279852,70.84814950
62.54468310,-172.70835330,-88.85034956,179.62464364,59.88167871,154.25552386
-59.27653462,174.25576360,-160.60433278,67.30869338,-0.52551532,3.71565230
3.27117756,-0.56417230,1.25094940,0.38149809

>  <Name>
lig.pdb

>  <RI>
0

>  <Rbt.Current_Directory>
/home/itssahil/PROJECTS/Mol_Feturizer/New_Systems/rnas/2mxs

>  <Rbt.Executable>
rbdock ($Id: //depot/dev/client3/rdock/2013.1/src/exe/rbdock.cxx#4 $)

>  <Rbt.Library>
libRbt.so (2013.1, Build901 2013/11/27)

>  <Rbt.Parameter_File>
/export/apps/rDock/src/rDock_2013.1_src/data/scripts/dock_solv.prm

>  <Rbt.Receptor>
prm/pocket_docking_4.prm

>  <SCORE>
-29.3993

>  <SCORE.INTER>
-30.6619

>  <SCORE.INTER.CONST>
1

>  <SCORE.INTER.POLAR>
-3.8168

>  <SCORE.INTER.ROT>
9

>  <SCORE.INTER.SOLV>
14.3548

>  <SCORE.INTER.VDW>
-22.1036

>  <SCORE.INTER.norm>
-0.730045

>  <SCORE.INTRA>
1.26262

>  <SCORE.INTRA.DIHEDRAL>
-0.374299

>  <SCORE.INTRA.DIHEDRAL.0>
30.1357

>  <SCORE.INTRA.POLAR>
-1.0283

>  <SCORE.INTRA.POLAR.0>
-0.631696

>  <SCORE.INTRA.REPUL>
0.0244263

>  <SCORE.INTRA.REPUL.0>
0

>  <SCORE.INTRA.SOLV>
0.681979

>  <SCORE.INTRA.SOLV.lig_0>
-55.904

>  <SCORE.INTRA.VDW>
4.48285

>  <SCORE.INTRA.VDW.0>
-8.21197

>  <SCORE.INTRA.norm>
0.0300624

>  <SCORE.RESTR>
0

>  <SCORE.RESTR.CAVITY>
0

>  <SCORE.RESTR.norm>
0

>  <SCORE.SYSTEM>
0

>  <SCORE.SYSTEM.CONST>
0

>  <SCORE.SYSTEM.DIHEDRAL>
0

>  <SCORE.SYSTEM.SOLV>
0

>  <SCORE.SYSTEM.norm>
0

>  <SCORE.heavy>
42

>  <SCORE.norm>
-0.699983

>  <RMSD>
3.084

$$$$
lig.pdb
 OpenBabel11021811453D
libRbt.so/2013.1/901 2013/11/27
 42 45  0  0  0  0  0  0  0  0999 V2000
    0.9383    4.7219    0.2238 C   0  0  2  0  0  0  0  0  0  0  0  0
   -0.1767    4.2572   -0.5393 O   0  0  0  0  0  0  0  0  0  0  0  0
    1.1805    6.2195   -0.0176 C   0  0  2  0  0  0  0  0  0  0  0  0
   -0.0398    7.0028    0.2503 N   0  0  0  0  0  0  0  0  0  0  0  0
    1.6950    6.4708   -1.4409 C   0  0  1  0  0  0  0  0  0  0  0  0
    2.0508    7.8332   -1.5779 O   0  0  0  0  0  0  0  0  0  0  0  0
    2.9230    5.5930   -1.7256 C   0  0  2  0  0  0  0  0  0  0  0  0
    3.2847    5.7208   -3.0873 O   0  0  0  0  0  0  0  0  0  0  0  0
    2.6483    4.1119   -1.3951 C   0  0  2  0  0  0  0  0  0  0  0  0
    2.1086    3.9677   -0.0818 O   0  0  0  0  0  0  0  0  0  0  0  0
    3.9795    3.3434   -1.4979 C   0  0  0  0  0  0  0  0  0  0  0  0
    3.8265    1.9365   -1.1699 O   0  0  0  0  0  0  0  0  0  0  0  0
   -2.4341    0.5940   -0.4123 C   0  0  2  0  0  0  0  0  0  0  0  0
   -2.7517   -0.7311    0.1564 N   0  0  0  0  0  0  0  0  0  0  0  0
   -0.9895    0.6236   -0.9177 C   0  0  0  0  0  0  0  0  0  0  0  0
   -0.6099    2.0266   -1.3765 C   0  0  2  0  0  0  0  0  0  0  0  0
    0.7418    2.0240   -1.9498 N   0  0  0  0  0  0  0  0  0  0  0  0
   -0.7252    2.9842   -0.1678 C   0  0  2  0  0  0  0  0  0  0  0  0
   -2.1647    3.0794    0.2252 C   0  0  2  0  0  0  0  0  0  0  0  0
   -2.2529    3.9915    1.3045 O   0  0  0  0  0  0  0  0  0  0  0  0
   -2.6766    1.7080    0.6234 C   0  0  1  0  0  0  0  0  0  0  0  0
   -4.0592    1.7238    0.9252 O   0  0  0  0  0  0  0  0  0  0  0  0
   -1.7644    3.5673    2.5727 C   0  0  1  0  0  0  0  0  0  0  0  0
   -0.8328    4.6588    3.1038 C   0  0  2  0  0  0  0  0  0  0  0  0
    0.2357    4.0586    3.8114 O   0  0  0  0  0  0  0  0  0  0  0  0
   -1.7638    5.4761    4.0095 C   0  0  2  0  0  0  0  0  0  0  0  0
   -1.0550    6.2449    4.9818 O   0  0  0  0  0  0  0  0  0  0  0  0
   -2.6303    4.3496    4.5858 C   0  0  2  0  0  0  0  0  0  0  0  0
   -2.8445    3.4682    3.4923 O   0  0  0  0  0  0  0  0  0  0  0  0
   -3.9886    4.8098    5.1278 C   0  0  0  0  0  0  0  0  0  0  0  0
   -4.7052    3.7418    5.7099 O   0  0  0  0  0  0  0  0  0  0  0  0
   -1.8301    6.6298    6.1154 C   0  0  2  0  0  0  0  0  0  0  0  0
   -1.3551    7.9669    6.7042 C   0  0  2  0  0  0  0  0  0  0  0  0
   -1.3492    9.0218    5.6770 N   0  0  0  0  0  0  0  0  0  0  0  0
    0.0221    7.8218    7.3691 C   0  0  1  0  0  0  0  0  0  0  0  0
    0.3677    9.0567    7.9659 O   0  0  0  0  0  0  0  0  0  0  0  0
   -0.0686    6.7218    8.4404 C   0  0  2  0  0  0  0  0  0  0  0  0
    1.1895    6.5171    9.0565 O   0  0  0  0  0  0  0  0  0  0  0  0
   -0.5935    5.4033    7.8357 C   0  0  1  0  0  0  0  0  0  0  0  0
   -1.8075    5.6075    7.1091 O   0  0  0  0  0  0  0  0  0  0  0  0
    0.4565    4.6563    7.0000 C   0  0  0  0  0  0  0  0  0  0  0  0
    1.3040    5.5919    6.2433 N   0  0  0  0  0  0  0  0  0  0  0  0
  1  3  1  0  0  0  0
  1  2  1  6  0  0  0
  3  4  1  6  0  0  0
  5  6  1  1  0  0  0
  5  3  1  0  0  0  0
  7  9  1  0  0  0  0
  7  5  1  0  0  0  0
  7  8  1  6  0  0  0
  9 10  1  0  0  0  0
  9 11  1  1  0  0  0
 10  1  1  0  0  0  0
 11 12  1  0  0  0  0
 13 14  1  1  0  0  0
 13 21  1  0  0  0  0
 15 13  1  0  0  0  0
 16 15  1  0  0  0  0
 16 18  1  0  0  0  0
 16 17  1  1  0  0  0
 18  2  1  6  0  0  0
 18 19  1  0  0  0  0
 19 21  1  0  0  0  0
 19 20  1  1  0  0  0
 21 22  1  6  0  0  0
 23 20  1  6  0  0  0
 23 29  1  0  0  0  0
 23 24  1  0  0  0  0
 24 26  1  0  0  0  0
 24 25  1  1  0  0  0
 26 27  1  1  0  0  0
 28 26  1  0  0  0  0
 28 30  1  6  0  0  0
 29 28  1  0  0  0  0
 30 31  1  0  0  0  0
 32 27  1  6  0  0  0
 32 40  1  0  0  0  0
 32 33  1  0  0  0  0
 33 35  1  0  0  0  0
 33 34  1  6  0  0  0
 35 37  1  0  0  0  0
 35 36  1  1  0  0  0
 37 38  1  6  0  0  0
 39 37  1  0  0  0  0
 39 41  1  6  0  0  0
 40 39  1  0  0  0  0
 42 41  1  0  0  0  0
M  END
>  <CHROM.1>
-119.55404926,-164.81627663,-97.08962208,-171.14047421,65.87672179,-56.07308236
178.59461063,68.00740173,-77.18285962,-72.37421879,130.20121235,68.31500360
166.91480456,-158.75823744,-149.64637950,-176.72270974,-178.48281392,179.56094555
-175.58013982,68.82904949,-37.08046666,-58.55050102,-0.37367855,4.64854577
2.46688580,-1.31888582,0.68161733,1.03111410

>  <Name>
lig.pdb

>  <RI>
3.99633e+07

>  <Rbt.Current_Directory>
/home/itssahil/PROJECTS/Mol_Feturizer/New_Systems/rnas/2mxs

>  <Rbt.Executable>
rbdock ($Id: //depot/dev/client3/rdock/2013.1/src/exe/rbdock.cxx#4 $)

>  <Rbt.Library>
libRbt.so (2013.1, Build901 2013/11/27)

>  <Rbt.Parameter_File>
/export/apps/rDock/src/rDock_2013.1_src/data/scripts/dock_solv.prm

>  <Rbt.Receptor>
prm/pocket_docking_5.prm

>  <SCORE>
-32.8876

>  <SCORE.INTER>
-35.3115

>  <SCORE.INTER.CONST>
1

>  <SCORE.INTER.POLAR>
-3.64794

>  <SCORE.INTER.ROT>
9

>  <SCORE.INTER.SOLV>
19.3226

>  <SCORE.INTER.VDW>
-27.422

>  <SCORE.INTER.norm>
-0.84075

>  <SCORE.INTRA>
2.42389

>  <SCORE.INTRA.DIHEDRAL>
-1.00712

>  <SCORE.INTRA.DIHEDRAL.0>
30.1357

>  <SCORE.INTRA.POLAR>
-0.410242

>  <SCORE.INTRA.POLAR.0>
-0.631696

>  <SCORE.INTRA.REPUL>
0

>  <SCORE.INTRA.REPUL.0>
0

>  <SCORE.INTRA.SOLV>
2.10798

>  <SCORE.INTRA.SOLV.lig_0>
-55.904

>  <SCORE.INTRA.VDW>
3.26829

>  <SCORE.INTRA.VDW.0>
-8.21197

>  <SCORE.INTRA.norm>
0.0577118

>  <SCORE.RESTR>
0

>  <SCORE.RESTR.CAVITY>
0

>  <SCORE.RESTR.norm>
0

>  <SCORE.SYSTEM>
0

>  <SCORE.SYSTEM.CONST>
0

>  <SCORE.SYSTEM.DIHEDRAL>
0

>  <SCORE.SYSTEM.SOLV>
0

>  <SCORE.SYSTEM.norm>
0

>  <SCORE.heavy>
42

>  <SCORE.norm>
-0.783038

>  <RMSD>
3.112

$$$$
lig.pdb
 OpenBabel11021811453D
libRbt.so/2013.1/901 2013/11/27
 42 45  0  0  0  0  0  0  0  0999 V2000
    0.3629    4.0546    2.7182 C   0  0  2  0  0  0  0  0  0  0  0  0
   -0.7247    3.2055    2.3475 O   0  0  0  0  0  0  0  0  0  0  0  0
   -0.1511    5.3678    3.3274 C   0  0  2  0  0  0  0  0  0  0  0  0
   -1.0605    5.1062    4.4583 N   0  0  0  0  0  0  0  0  0  0  0  0
   -0.8317    6.2382    2.2631 C   0  0  1  0  0  0  0  0  0  0  0  0
   -1.1543    7.4972    2.8222 O   0  0  0  0  0  0  0  0  0  0  0  0
    0.1044    6.4396    1.0620 C   0  0  2  0  0  0  0  0  0  0  0  0
   -0.5952    7.1075    0.0296 O   0  0  0  0  0  0  0  0  0  0  0  0
    0.6497    5.0954    0.5384 C   0  0  2  0  0  0  0  0  0  0  0  0
    1.2041    4.3156    1.5975 O   0  0  0  0  0  0  0  0  0  0  0  0
    1.7370    5.3957   -0.5109 C   0  0  0  0  0  0  0  0  0  0  0  0
    1.7178    4.4432   -1.6076 O   0  0  0  0  0  0  0  0  0  0  0  0
   -0.8576   -0.8777    0.9906 C   0  0  2  0  0  0  0  0  0  0  0  0
   -0.2437   -2.0830    0.3984 N   0  0  0  0  0  0  0  0  0  0  0  0
   -0.7983    0.2898    0.0024 C   0  0  0  0  0  0  0  0  0  0  0  0
   -1.3009    1.5719    0.6552 C   0  0  2  0  0  0  0  0  0  0  0  0
   -1.3328    2.6624   -0.3274 N   0  0  0  0  0  0  0  0  0  0  0  0
   -0.3843    1.9007    1.8566 C   0  0  2  0  0  0  0  0  0  0  0  0
   -0.5644    0.8391    2.8940 C   0  0  2  0  0  0  0  0  0  0  0  0
    0.2504    1.1809    4.0002 O   0  0  0  0  0  0  0  0  0  0  0  0
   -0.1707   -0.5083    2.3189 C   0  0  1  0  0  0  0  0  0  0  0  0
   -0.4012   -1.5641    3.2327 O   0  0  0  0  0  0  0  0  0  0  0  0
   -0.1830    0.7740    5.2938 C   0  0  1  0  0  0  0  0  0  0  0  0
    0.8017    1.3434    6.3173 C   0  0  2  0  0  0  0  0  0  0  0  0
    0.9653    0.4173    7.3748 O   0  0  0  0  0  0  0  0  0  0  0  0
    0.1066    2.6380    6.7601 C   0  0  2  0  0  0  0  0  0  0  0  0
    0.5642    3.1055    8.0292 O   0  0  0  0  0  0  0  0  0  0  0  0
   -1.3560    2.1772    6.7323 C   0  0  2  0  0  0  0  0  0  0  0  0
   -1.4497    1.3541    5.5781 O   0  0  0  0  0  0  0  0  0  0  0  0
   -2.3762    3.3157    6.6162 C   0  0  0  0  0  0  0  0  0  0  0  0
   -2.4862    4.0405    7.8227 O   0  0  0  0  0  0  0  0  0  0  0  0
    0.8721    4.4974    8.0741 C   0  0  2  0  0  0  0  0  0  0  0  0
    2.3880    4.7462    8.0891 C   0  0  2  0  0  0  0  0  0  0  0  0
    3.0403    4.0907    6.9432 N   0  0  0  0  0  0  0  0  0  0  0  0
    3.0100    4.3001    9.4209 C   0  0  1  0  0  0  0  0  0  0  0  0
    4.3851    4.6314    9.4105 O   0  0  0  0  0  0  0  0  0  0  0  0
    2.2946    5.0404   10.5638 C   0  0  2  0  0  0  0  0  0  0  0  0
    2.8023    4.6321   11.8207 O   0  0  0  0  0  0  0  0  0  0  0  0
    0.7699    4.8150   10.4993 C   0  0  1  0  0  0  0  0  0  0  0  0
    0.2514    5.1124    9.2009 O   0  0  0  0  0  0  0  0  0  0  0  0
    0.3394    3.4226   10.9839 C   0  0  0  0  0  0  0  0  0  0  0  0
    0.5472    3.2713   12.4331 N   0  0  0  0  0  0  0  0  0  0  0  0
  1  3  1  0  0  0  0
  1  2  1  6  0  0  0
  3  4  1  1  0  0  0
  5  6  1  1  0  0  0
  5  3  1  0  0  0  0
  7  9  1  0  0  0  0
  7  5  1  0  0  0  0
  7  8  1  6  0  0  0
  9 10  1  0  0  0  0
  9 11  1  6  0  0  0
 10  1  1  0  0  0  0
 11 12  1  0  0  0  0
 13 14  1  6  0  0  0
 13 21  1  0  0  0  0
 15 13  1  0  0  0  0
 16 15  1  0  0  0  0
 16 18  1  0  0  0  0
 16 17  1  6  0  0  0
 18  2  1  1  0  0  0
 18 19  1  0  0  0  0
 19 21  1  0  0  0  0
 19 20  1  1  0  0  0
 21 22  1  1  0  0  0
 23 20  1  6  0  0  0
 23 29  1  0  0  0  0
 23 24  1  0  0  0  0
 24 26  1  0  0  0  0
 24 25  1  1  0  0  0
 26 27  1  1  0  0  0
 28 26  1  0  0  0  0
 28 30  1  6  0  0  0
 29 28  1  0  0  0  0
 30 31  1  0  0  0  0
 32 27  1  1  0  0  0
 32 40  1  0  0  0  0
 32 33  1  0  0  0  0
 33 35  1  0  0  0  0
 33 34  1  6  0  0  0
 35 37  1  0  0  0  0
 35 36  1  6  0  0  0
 37 38  1  1  0  0  0
 39 37  1  0  0  0  0
 39 41  1  6  0  0  0
 40 39  1  0  0  0  0
 42 41  1  0  0  0  0
M  END
>  <CHROM.1>
-138.67765618,-175.46740899,-174.85834237,-65.27534049,-51.21747527,51.86175688
-143.31666569,-50.65687040,-163.77229594,149.85754601,-175.97375775,69.86257504
64.14513656,133.14120734,-105.33014701,-73.00574950,167.87390488,67.81079878
-65.40785518,63.25583096,68.73819196,69.97086610,0.26343340,3.22867780,4.84902786
-2.46370566,1.35109212,2.31556564

>  <Name>
lig.pdb

>  <RI>
3.99633e+07

>  <Rbt.Current_Directory>
/home/itssahil/PROJECTS/Mol_Feturizer/New_Systems/rnas/2mxs

>  <Rbt.Executable>
rbdock ($Id: //depot/dev/client3/rdock/2013.1/src/exe/rbdock.cxx#4 $)

>  <Rbt.Library>
libRbt.so (2013.1, Build901 2013/11/27)

>  <Rbt.Parameter_File>
/export/apps/rDock/src/rDock_2013.1_src/data/scripts/dock_solv.prm

>  <Rbt.Receptor>
prm/pocket_docking_5.prm

>  <SCORE>
-37.077

>  <SCORE.INTER>
-37.0671

>  <SCORE.INTER.CONST>
1

>  <SCORE.INTER.POLAR>
-5.88622

>  <SCORE.INTER.ROT>
9

>  <SCORE.INTER.SOLV>
15.317

>  <SCORE.INTER.VDW>
-19.7963

>  <SCORE.INTER.norm>
-0.88255

>  <SCORE.INTRA>
-0.00985369

>  <SCORE.INTRA.DIHEDRAL>
0.329532

>  <SCORE.INTRA.DIHEDRAL.0>
30.1357

>  <SCORE.INTRA.POLAR>
-0.104813

>  <SCORE.INTRA.POLAR.0>
-0.631696

>  <SCORE.INTRA.REPUL>
0

>  <SCORE.INTRA.REPUL.0>
0

>  <SCORE.INTRA.SOLV>
0.127651

>  <SCORE.INTRA.SOLV.lig_0>
-55.904

>  <SCORE.INTRA.VDW>
0.117918

>  <SCORE.INTRA.VDW.0>
-8.21197

>  <SCORE.INTRA.norm>
-0.000234612

>  <SCORE.RESTR>
0

>  <SCORE.RESTR.CAVITY>
0

>  <SCORE.RESTR.norm>
0

>  <SCORE.SYSTEM>
0

>  <SCORE.SYSTEM.CONST>
0

>  <SCORE.SYSTEM.DIHEDRAL>
0

>  <SCORE.SYSTEM.SOLV>
0

>  <SCORE.SYSTEM.norm>
0

>  <SCORE.heavy>
42

>  <SCORE.norm>
-0.882785

>  <RMSD>
3.169

$$$$
lig.pdb
 OpenBabel11021811453D
libRbt.so/2013.1/901 2013/11/27
 42 45  0  0  0  0  0  0  0  0999 V2000
    0.4249    3.3450    1.8549 C   0  0  2  0  0  0  0  0  0  0  0  0
   -0.8670    3.1324    1.2828 O   0  0  0  0  0  0  0  0  0  0  0  0
    1.1333    4.5300    1.1815 C   0  0  2  0  0  0  0  0  0  0  0  0
    0.2979    5.7441    1.2323 N   0  0  0  0  0  0  0  0  0  0  0  0
    1.5227    4.1893   -0.2628 C   0  0  1  0  0  0  0  0  0  0  0  0
    2.3035    5.2401   -0.7990 O   0  0  0  0  0  0  0  0  0  0  0  0
    2.3308    2.8835   -0.3021 C   0  0  2  0  0  0  0  0  0  0  0  0
    2.5431    2.5043   -1.6484 O   0  0  0  0  0  0  0  0  0  0  0  0
    1.6087    1.7486    0.4523 C   0  0  2  0  0  0  0  0  0  0  0  0
    1.2190    2.1650    1.7606 O   0  0  0  0  0  0  0  0  0  0  0  0
    2.5728    0.5513    0.5530 C   0  0  0  0  0  0  0  0  0  0  0  0
    2.4435   -0.3526   -0.5768 O   0  0  0  0  0  0  0  0  0  0  0  0
   -3.8568    0.2190    2.3334 C   0  0  2  0  0  0  0  0  0  0  0  0
   -4.2942   -1.1559    2.6474 N   0  0  0  0  0  0  0  0  0  0  0  0
   -3.2623    0.2792    0.9241 C   0  0  0  0  0  0  0  0  0  0  0  0
   -2.6810    1.6603    0.6452 C   0  0  2  0  0  0  0  0  0  0  0  0
   -2.2022    1.7383   -0.7406 N   0  0  0  0  0  0  0  0  0  0  0  0
   -1.5504    1.9300    1.6653 C   0  0  2  0  0  0  0  0  0  0  0  0
   -2.1567    2.0308    3.0283 C   0  0  2  0  0  0  0  0  0  0  0  0
   -1.1122    2.3189    3.9396 O   0  0  0  0  0  0  0  0  0  0  0  0
   -2.8449    0.7250    3.3785 C   0  0  1  0  0  0  0  0  0  0  0  0
   -3.5095    0.7924    4.6262 O   0  0  0  0  0  0  0  0  0  0  0  0
   -1.4684    2.6007    5.2889 C   0  0  1  0  0  0  0  0  0  0  0  0
   -0.3632    2.0456    6.1900 C   0  0  2  0  0  0  0  0  0  0  0  0
   -0.9384    1.5468    7.3830 O   0  0  0  0  0  0  0  0  0  0  0  0
    0.5223    3.2770    6.4239 C   0  0  2  0  0  0  0  0  0  0  0  0
    1.3354    3.1600    7.5918 O   0  0  0  0  0  0  0  0  0  0  0  0
   -0.5530    4.3682    6.4941 C   0  0  2  0  0  0  0  0  0  0  0  0
   -1.4941    4.0078    5.4927 O   0  0  0  0  0  0  0  0  0  0  0  0
   -0.0382    5.7836    6.2074 C   0  0  0  0  0  0  0  0  0  0  0  0
    0.4417    5.9045    4.8852 O   0  0  0  0  0  0  0  0  0  0  0  0
    0.7275    3.6390    8.7897 C   0  0  2  0  0  0  0  0  0  0  0  0
    1.7220    4.4213    9.6610 C   0  0  2  0  0  0  0  0  0  0  0  0
    2.3394    5.5191    8.8984 N   0  0  0  0  0  0  0  0  0  0  0  0
    2.7835    3.4889   10.2639 C   0  0  1  0  0  0  0  0  0  0  0  0
    3.6153    4.2465   11.1211 O   0  0  0  0  0  0  0  0  0  0  0  0
    2.0659    2.3856   11.0600 C   0  0  2  0  0  0  0  0  0  0  0  0
    3.0002    1.4710   11.6031 O   0  0  0  0  0  0  0  0  0  0  0  0
    1.0386    1.6467   10.1779 C   0  0  1  0  0  0  0  0  0  0  0  0
    0.1540    2.5615    9.5267 O   0  0  0  0  0  0  0  0  0  0  0  0
    1.6815    0.6660    9.1861 C   0  0  0  0  0  0  0  0  0  0  0  0
    0.6980   -0.3036    8.6770 N   0  0  0  0  0  0  0  0  0  0  0  0
  1  3  1  0  0  0  0
  1  2  1  6  0  0  0
  3  4  1  6  0  0  0
  5  6  1  1  0  0  0
  5  3  1  0  0  0  0
  7  9  1  0  0  0  0
  7  5  1  0  0  0  0
  7  8  1  6  0  0  0
  9 10  1  0  0  0  0
  9 11  1  1  0  0  0
 10  1  1  0  0  0  0
 11 12  1  0  0  0  0
 13 14  1  1  0  0  0
 13 21  1  0  0  0  0
 15 13  1  0  0  0  0
 16 15  1  0  0  0  0
 16 18  1  0  0  0  0
 16 17  1  6  0  0  0
 18  2  1  6  0  0  0
 18 19  1  0  0  0  0
 19 21  1  0  0  0  0
 19 20  1  1  0  0  0
 21 22  1  1  0  0  0
 23 20  1  6  0  0  0
 23 29  1  0  0  0  0
 23 24  1  0  0  0  0
 24 26  1  0  0  0  0
 24 25  1  1  0  0  0
 26 27  1  1  0  0  0
 28 26  1  0  0  0  0
 28 30  1  6  0  0  0
 29 28  1  0  0  0  0
 30 31  1  0  0  0  0
 32 27  1  6  0  0  0
 32 40  1  0  0  0  0
 32 33  1  0  0  0  0
 33 35  1  0  0  0  0
 33 34  1  6  0  0  0
 35 37  1  0  0  0  0
 35 36  1  1  0  0  0
 37 38  1  6  0  0  0
 39 37  1  0  0  0  0
 39 41  1  6  0  0  0
 40 39  1  0  0  0  0
 42 41  1  0  0  0  0
M  END
>  <CHROM.1>
-162.55503264,170.27371512,153.99795656,72.41872088,63.82987684,169.81245888
-90.12607038,51.17413564,-87.44649298,173.53296737,145.66134289,-61.71012436
53.73012660,-89.31989382,-138.89899013,63.90865359,-179.59494750,-60.09596489
-174.21151982,63.22948722,162.16466968,172.14689299,0.19725851,2.58721588
4.56587642,-1.80744981,0.65320871,1.63339132

>  <Name>
lig.pdb

>  <RI>
4.11275e+07

>  <Rbt.Current_Directory>
/home/itssahil/PROJECTS/Mol_Feturizer/New_Systems/rnas/2mxs

>  <Rbt.Executable>
rbdock ($Id: //depot/dev/client3/rdock/2013.1/src/exe/rbdock.cxx#4 $)

>  <Rbt.Library>
libRbt.so (2013.1, Build901 2013/11/27)

>  <Rbt.Parameter_File>
/export/apps/rDock/src/rDock_2013.1_src/data/scripts/dock_solv.prm

>  <Rbt.Receptor>
prm/pocket_docking_8.prm

>  <SCORE>
-26.8242

>  <SCORE.INTER>
-27.4811

>  <SCORE.INTER.CONST>
1

>  <SCORE.INTER.POLAR>
-3.8462

>  <SCORE.INTER.ROT>
9

>  <SCORE.INTER.SOLV>
14.8027

>  <SCORE.INTER.VDW>
-20.0343

>  <SCORE.INTER.norm>
-0.654311

>  <SCORE.INTRA>
0.656932

>  <SCORE.INTRA.DIHEDRAL>
-5.18063

>  <SCORE.INTRA.DIHEDRAL.0>
30.1357

>  <SCORE.INTRA.POLAR>
-0.326999

>  <SCORE.INTRA.POLAR.0>
-0.631696

>  <SCORE.INTRA.REPUL>
0

>  <SCORE.INTRA.REPUL.0>
0

>  <SCORE.INTRA.SOLV>
1.36051

>  <SCORE.INTRA.SOLV.lig_0>
-55.904

>  <SCORE.INTRA.VDW>
3.67879

>  <SCORE.INTRA.VDW.0>
-8.21197

>  <SCORE.INTRA.norm>
0.0156412

>  <SCORE.RESTR>
0

>  <SCORE.RESTR.CAVITY>
0

>  <SCORE.RESTR.norm>
0

>  <SCORE.SYSTEM>
0

>  <SCORE.SYSTEM.CONST>
0

>  <SCORE.SYSTEM.DIHEDRAL>
0

>  <SCORE.SYSTEM.SOLV>
0

>  <SCORE.SYSTEM.norm>
0

>  <SCORE.heavy>
42

>  <SCORE.norm>
-0.63867

>  <RMSD>
3.252

$$$$
lig.pdb
 OpenBabel11021811453D
libRbt.so/2013.1/901 2013/11/27
 42 45  0  0  0  0  0  0  0  0999 V2000
    0.1671    3.4162    1.6112 C   0  0  2  0  0  0  0  0  0  0  0  0
   -1.0657    3.2625    0.9055 O   0  0  0  0  0  0  0  0  0  0  0  0
    0.9860    4.5811    1.0348 C   0  0  2  0  0  0  0  0  0  0  0  0
    0.1967    5.8265    1.0202 N   0  0  0  0  0  0  0  0  0  0  0  0
    1.5096    4.2442   -0.3674 C   0  0  1  0  0  0  0  0  0  0  0  0
    2.3812    5.2703   -0.8022 O   0  0  0  0  0  0  0  0  0  0  0  0
    2.2672    2.9081   -0.3457 C   0  0  2  0  0  0  0  0  0  0  0  0
    2.6033    2.5386   -1.6694 O   0  0  0  0  0  0  0  0  0  0  0  0
    1.4283    1.7929    0.3106 C   0  0  2  0  0  0  0  0  0  0  0  0
    0.9213    2.2071    1.5788 O   0  0  0  0  0  0  0  0  0  0  0  0
    2.3306    0.5571    0.4894 C   0  0  0  0  0  0  0  0  0  0  0  0
    1.5972   -0.5870    1.0026 O   0  0  0  0  0  0  0  0  0  0  0  0
   -3.4485   -0.1983   -0.0300 C   0  0  2  0  0  0  0  0  0  0  0  0
   -3.6495   -1.6554   -0.1603 N   0  0  0  0  0  0  0  0  0  0  0  0
   -2.3217    0.2681   -0.9551 C   0  0  0  0  0  0  0  0  0  0  0  0
   -2.0132    1.7427   -0.7243 C   0  0  2  0  0  0  0  0  0  0  0  0
   -1.0012    2.2049   -1.6824 N   0  0  0  0  0  0  0  0  0  0  0  0
   -1.5498    1.9218    0.7402 C   0  0  2  0  0  0  0  0  0  0  0  0
   -2.7034    1.6196    1.6421 C   0  0  2  0  0  0  0  0  0  0  0  0
   -2.2704    1.8298    2.9736 O   0  0  0  0  0  0  0  0  0  0  0  0
   -3.1535    0.1862    1.4320 C   0  0  1  0  0  0  0  0  0  0  0  0
   -4.2986   -0.1294    2.2014 O   0  0  0  0  0  0  0  0  0  0  0  0
   -1.1902    1.0358    3.4527 C   0  0  1  0  0  0  0  0  0  0  0  0
   -0.5117    1.8056    4.5878 C   0  0  2  0  0  0  0  0  0  0  0  0
    0.8830    1.5692    4.5454 O   0  0  0  0  0  0  0  0  0  0  0  0
   -1.1798    1.2121    5.8354 C   0  0  2  0  0  0  0  0  0  0  0  0
   -0.4062    1.4014    7.0204 O   0  0  0  0  0  0  0  0  0  0  0  0
   -1.3275   -0.2476    5.3888 C   0  0  2  0  0  0  0  0  0  0  0  0
   -1.6951   -0.1670    4.0188 O   0  0  0  0  0  0  0  0  0  0  0  0
   -2.4019   -1.0359    6.1470 C   0  0  0  0  0  0  0  0  0  0  0  0
   -3.6932   -0.5181    5.9072 O   0  0  0  0  0  0  0  0  0  0  0  0
   -0.1772    2.7653    7.3692 C   0  0  2  0  0  0  0  0  0  0  0  0
    1.2485    2.9878    7.8965 C   0  0  2  0  0  0  0  0  0  0  0  0
    2.2486    2.5081    6.9282 N   0  0  0  0  0  0  0  0  0  0  0  0
    1.4391    2.3328    9.2728 C   0  0  1  0  0  0  0  0  0  0  0  0
    2.7361    2.6427    9.7446 O   0  0  0  0  0  0  0  0  0  0  0  0
    0.3769    2.8976   10.2314 C   0  0  2  0  0  0  0  0  0  0  0  0
    0.4811    2.2931   11.5074 O   0  0  0  0  0  0  0  0  0  0  0  0
   -1.0424    2.7060    9.6585 C   0  0  1  0  0  0  0  0  0  0  0  0
   -1.1400    3.2074    8.3235 O   0  0  0  0  0  0  0  0  0  0  0  0
   -1.5531    1.2616    9.7675 C   0  0  0  0  0  0  0  0  0  0  0  0
   -2.9048    1.1266    9.2011 N   0  0  0  0  0  0  0  0  0  0  0  0
  1  3  1  0  0  0  0
  1  2  1  6  0  0  0
  3  4  1  6  0  0  0
  5  6  1  1  0  0  0
  5  3  1  0  0  0  0
  7  9  1  0  0  0  0
  7  5  1  0  0  0  0
  7  8  1  6  0  0  0
  9 10  1  0  0  0  0
  9 11  1  1  0  0  0
 10  1  1  0  0  0  0
 11 12  1  0  0  0  0
 13 14  1  1  0  0  0
 13 21  1  0  0  0  0
 15 13  1  0  0  0  0
 16 15  1  0  0  0  0
 16 18  1  0  0  0  0
 16 17  1  6  0  0  0
 18  2  1  6  0  0  0
 18 19  1  0  0  0  0
 19 21  1  0  0  0  0
 19 20  1  1  0  0  0
 21 22  1  1  0  0  0
 23 20  1  1  0  0  0
 23 29  1  0  0  0  0
 23 24  1  0  0  0  0
 24 26  1  0  0  0  0
 24 25  1  1  0  0  0
 26 27  1  1  0  0  0
 28 26  1  0  0  0  0
 28 30  1  1  0  0  0
 29 28  1  0  0  0  0
 30 31  1  0  0  0  0
 32 27  1  1  0  0  0
 32 40  1  0  0  0  0
 32 33  1  0  0  0  0
 33 35  1  0  0  0  0
 33 34  1  6  0  0  0
 35 37  1  0  0  0  0
 35 36  1  1  0  0  0
 37 38  1  1  0  0  0
 39 37  1  0  0  0  0
 39 41  1  6  0  0  0
 40 39  1  0  0  0  0
 42 41  1  0  0  0  0
M  END
>  <CHROM.1>
-134.69658819,145.14125957,-90.84053017,71.79121456,-56.10310530,57.82344899
-175.29028955,55.75895547,59.64969385,-60.92609789,155.31888702,64.76443432
45.53117484,61.29977646,-140.59248767,64.56795731,-58.28746252,24.92710983
62.80067493,179.60885653,-179.62916441,173.36915113,-0.49000445,1.79353252
3.74127374,-1.57614292,0.64277763,1.57784028

>  <Name>
lig.pdb

>  <RI>
0

>  <Rbt.Current_Directory>
/home/itssahil/PROJECTS/Mol_Feturizer/New_Systems/rnas/2mxs

>  <Rbt.Executable>
rbdock ($Id: //depot/dev/client3/rdock/2013.1/src/exe/rbdock.cxx#4 $)

>  <Rbt.Library>
libRbt.so (2013.1, Build901 2013/11/27)

>  <Rbt.Parameter_File>
/export/apps/rDock/src/rDock_2013.1_src/data/scripts/dock_solv.prm

>  <Rbt.Receptor>
prm/pocket_docking_3.prm

>  <SCORE>
-23.3497

>  <SCORE.INTER>
-19.7805

>  <SCORE.INTER.CONST>
1

>  <SCORE.INTER.POLAR>
-2.27493

>  <SCORE.INTER.ROT>
9

>  <SCORE.INTER.SOLV>
13.8575

>  <SCORE.INTER.VDW>
-19.8231

>  <SCORE.INTER.norm>
-0.470965

>  <SCORE.INTRA>
-3.92546

>  <SCORE.INTRA.DIHEDRAL>
-4.50249

>  <SCORE.INTRA.DIHEDRAL.0>
30.1357

>  <SCORE.INTRA.POLAR>
-1.35334

>  <SCORE.INTRA.POLAR.0>
-0.631696

>  <SCORE.INTRA.REPUL>
0.0294075

>  <SCORE.INTRA.REPUL.0>
0

>  <SCORE.INTRA.SOLV>
1.60233

>  <SCORE.INTRA.SOLV.lig_0>
-55.904

>  <SCORE.INTRA.VDW>
1.97892

>  <SCORE.INTRA.VDW.0>
-8.21197

>  <SCORE.INTRA.norm>
-0.0934634

>  <SCORE.RESTR>
0.356345

>  <SCORE.RESTR.CAVITY>
0.356345

>  <SCORE.RESTR.norm>
0.00848441

>  <SCORE.SYSTEM>
0

>  <SCORE.SYSTEM.CONST>
0

>  <SCORE.SYSTEM.DIHEDRAL>
0

>  <SCORE.SYSTEM.SOLV>
0

>  <SCORE.SYSTEM.norm>
0

>  <SCORE.heavy>
42

>  <SCORE.norm>
-0.555944

>  <RMSD>
3.260

$$$$
lig.pdb
 OpenBabel11021811453D
libRbt.so/2013.1/901 2013/11/27
 42 45  0  0  0  0  0  0  0  0999 V2000
    0.8841    3.4428    0.3593 C   0  0  2  0  0  0  0  0  0  0  0  0
   -0.0860    3.2705   -0.6755 O   0  0  0  0  0  0  0  0  0  0  0  0
    1.7891    4.6488    0.0655 C   0  0  2  0  0  0  0  0  0  0  0  0
    0.9904    5.8687   -0.1541 N   0  0  0  0  0  0  0  0  0  0  0  0
    2.7074    4.3687   -1.1311 C   0  0  1  0  0  0  0  0  0  0  0  0
    3.6273    5.4336   -1.2766 O   0  0  0  0  0  0  0  0  0  0  0  0
    3.4772    3.0569   -0.9155 C   0  0  2  0  0  0  0  0  0  0  0  0
    4.1946    2.7360   -2.0918 O   0  0  0  0  0  0  0  0  0  0  0  0
    2.5281    1.8976   -0.5502 C   0  0  2  0  0  0  0  0  0  0  0  0
    1.6613    2.2594    0.5245 O   0  0  0  0  0  0  0  0  0  0  0  0
    3.3872    0.6863   -0.1405 C   0  0  0  0  0  0  0  0  0  0  0  0
    3.1292    0.2692    1.2269 O   0  0  0  0  0  0  0  0  0  0  0  0
   -3.5674    0.7503   -0.9184 C   0  0  2  0  0  0  0  0  0  0  0  0
   -4.3273   -0.4713   -0.5860 N   0  0  0  0  0  0  0  0  0  0  0  0
   -2.2684    0.3882   -1.6428 C   0  0  0  0  0  0  0  0  0  0  0  0
   -1.4129    1.6300   -1.8639 C   0  0  2  0  0  0  0  0  0  0  0  0
   -0.2170    1.2892   -2.6446 N   0  0  0  0  0  0  0  0  0  0  0  0
   -1.0533    2.2280   -0.4838 C   0  0  2  0  0  0  0  0  0  0  0  0
   -2.3081    2.7288    0.1566 C   0  0  2  0  0  0  0  0  0  0  0  0
   -1.9515    3.3088    1.3980 O   0  0  0  0  0  0  0  0  0  0  0  0
   -3.2778    1.5780    0.3479 C   0  0  1  0  0  0  0  0  0  0  0  0
   -4.5182    2.0101    0.8747 O   0  0  0  0  0  0  0  0  0  0  0  0
   -1.5192    2.4370    2.4373 C   0  0  1  0  0  0  0  0  0  0  0  0
   -0.4076    3.1482    3.2119 C   0  0  2  0  0  0  0  0  0  0  0  0
    0.5568    2.1983    3.6247 O   0  0  0  0  0  0  0  0  0  0  0  0
   -1.1712    3.7728    4.3874 C   0  0  2  0  0  0  0  0  0  0  0  0
   -0.3258    4.0773    5.4971 O   0  0  0  0  0  0  0  0  0  0  0  0
   -2.2050    2.6704    4.6485 C   0  0  2  0  0  0  0  0  0  0  0  0
   -2.5841    2.2220    3.3549 O   0  0  0  0  0  0  0  0  0  0  0  0
   -3.4564    3.1411    5.3989 C   0  0  0  0  0  0  0  0  0  0  0  0
   -4.3903    2.0948    5.5603 O   0  0  0  0  0  0  0  0  0  0  0  0
   -0.9746    4.7580    6.5694 C   0  0  2  0  0  0  0  0  0  0  0  0
   -1.3398    6.2015    6.1911 C   0  0  2  0  0  0  0  0  0  0  0  0
   -2.1553    6.2341    4.9655 N   0  0  0  0  0  0  0  0  0  0  0  0
   -0.0828    7.0735    6.0535 C   0  0  1  0  0  0  0  0  0  0  0  0
   -0.4831    8.4045    5.7909 O   0  0  0  0  0  0  0  0  0  0  0  0
    0.7025    7.0066    7.3744 C   0  0  2  0  0  0  0  0  0  0  0  0
    1.8970    7.7615    7.2863 O   0  0  0  0  0  0  0  0  0  0  0  0
    1.0154    5.5455    7.7580 C   0  0  1  0  0  0  0  0  0  0  0  0
   -0.1629    4.7364    7.7414 O   0  0  0  0  0  0  0  0  0  0  0  0
    2.1480    4.9268    6.9254 C   0  0  0  0  0  0  0  0  0  0  0  0
    2.8299    3.8512    7.6633 N   0  0  0  0  0  0  0  0  0  0  0  0
  1  3  1  0  0  0  0
  1  2  1  6  0  0  0
  3  4  1  6  0  0  0
  5  6  1  1  0  0  0
  5  3  1  0  0  0  0
  7  9  1  0  0  0  0
  7  5  1  0  0  0  0
  7  8  1  6  0  0  0
  9 10  1  0  0  0  0
  9 11  1  1  0  0  0
 10  1  1  0  0  0  0
 11 12  1  0  0  0  0
 13 14  1  1  0  0  0
 13 21  1  0  0  0  0
 15 13  1  0  0  0  0
 16 15  1  0  0  0  0
 16 18  1  0  0  0  0
 16 17  1  1  0  0  0
 18  2  1  6  0  0  0
 18 19  1  0  0  0  0
 19 21  1  0  0  0  0
 19 20  1  1  0  0  0
 21 22  1  6  0  0  0
 23 20  1  6  0  0  0
 23 29  1  0  0  0  0
 23 24  1  0  0  0  0
 24 26  1  0  0  0  0
 24 25  1  1  0  0  0
 26 27  1  1  0  0  0
 28 26  1  0  0  0  0
 28 30  1  6  0  0  0
 29 28  1  0  0  0  0
 30 31  1  0  0  0  0
 32 27  1  6  0  0  0
 32 40  1  0  0  0  0
 32 33  1  0  0  0  0
 33 35  1  0  0  0  0
 33 34  1  6  0  0  0
 35 37  1  0  0  0  0
 35 36  1  1  0  0  0
 37 38  1  6  0  0  0
 39 37  1  0  0  0  0
 39 41  1  6  0  0  0
 40 39  1  0  0  0  0
 42 41  1  0  0  0  0
M  END
>  <CHROM.1>
-146.67981585,-176.14110212,-60.44630082,-58.62057353,151.37289425,-55.93376148
119.30848002,144.00947467,176.44407479,-70.07524452,143.22317194,74.43511105
-136.56308825,175.17601137,-70.15632392,177.62580723,-176.18722115,161.44353085
-173.72162885,-179.26151357,153.67747026,-149.81991271,-0.19208356,3.47258606
2.44765927,-1.56236064,0.36117720,1.11371989

>  <Name>
lig.pdb

>  <RI>
4.11275e+07

>  <Rbt.Current_Directory>
/home/itssahil/PROJECTS/Mol_Feturizer/New_Systems/rnas/2mxs

>  <Rbt.Executable>
rbdock ($Id: //depot/dev/client3/rdock/2013.1/src/exe/rbdock.cxx#4 $)

>  <Rbt.Library>
libRbt.so (2013.1, Build901 2013/11/27)

>  <Rbt.Parameter_File>
/export/apps/rDock/src/rDock_2013.1_src/data/scripts/dock_solv.prm

>  <Rbt.Receptor>
prm/pocket_docking_8.prm

>  <SCORE>
-36.4061

>  <SCORE.INTER>
-44.2135

>  <SCORE.INTER.CONST>
1

>  <SCORE.INTER.POLAR>
-5.53573

>  <SCORE.INTER.ROT>
9

>  <SCORE.INTER.SOLV>
22.1352

>  <SCORE.INTER.VDW>
-28.0016

>  <SCORE.INTER.norm>
-1.0527

>  <SCORE.INTRA>
7.80734

>  <SCORE.INTRA.DIHEDRAL>
3.5525

>  <SCORE.INTRA.DIHEDRAL.0>
30.1357

>  <SCORE.INTRA.POLAR>
0.412382

>  <SCORE.INTRA.POLAR.0>
-0.631696

>  <SCORE.INTRA.REPUL>
0

>  <SCORE.INTRA.REPUL.0>
0

>  <SCORE.INTRA.SOLV>
-1.39933

>  <SCORE.INTRA.SOLV.lig_0>
-55.904

>  <SCORE.INTRA.VDW>
5.32866

>  <SCORE.INTRA.VDW.0>
-8.21197

>  <SCORE.INTRA.norm>
0.185889

>  <SCORE.RESTR>
0

>  <SCORE.RESTR.CAVITY>
0

>  <SCORE.RESTR.norm>
0

>  <SCORE.SYSTEM>
0

>  <SCORE.SYSTEM.CONST>
0

>  <SCORE.SYSTEM.DIHEDRAL>
0

>  <SCORE.SYSTEM.SOLV>
0

>  <SCORE.SYSTEM.norm>
0

>  <SCORE.heavy>
42

>  <SCORE.norm>
-0.866812

>  <RMSD>
3.274

$$$$
lig.pdb
 OpenBabel11021811453D
libRbt.so/2013.1/901 2013/11/27
 42 45  0  0  0  0  0  0  0  0999 V2000
    0.3776    3.0014    0.2712 C   0  0  2  0  0  0  0  0  0  0  0  0
   -0.3753    2.4293   -0.7999 O   0  0  0  0  0  0  0  0  0  0  0  0
    1.4357    3.9779   -0.2643 C   0  0  2  0  0  0  0  0  0  0  0  0
    0.8196    5.0079   -1.1210 N   0  0  0  0  0  0  0  0  0  0  0  0
    2.5453    3.2294   -1.0140 C   0  0  1  0  0  0  0  0  0  0  0  0
    3.5743    4.1373   -1.3584 O   0  0  0  0  0  0  0  0  0  0  0  0
    3.1251    2.1140   -0.1312 C   0  0  2  0  0  0  0  0  0  0  0  0
    4.0310    1.3378   -0.8917 O   0  0  0  0  0  0  0  0  0  0  0  0
    2.0141    1.2096    0.4398 C   0  0  2  0  0  0  0  0  0  0  0  0
    0.9872    1.9827    1.0601 O   0  0  0  0  0  0  0  0  0  0  0  0
    2.6514    0.2642    1.4759 C   0  0  0  0  0  0  0  0  0  0  0  0
    3.6498   -0.6073    0.8810 O   0  0  0  0  0  0  0  0  0  0  0  0
   -4.3040    0.6894   -0.5366 C   0  0  2  0  0  0  0  0  0  0  0  0
   -5.2633   -0.3110   -0.0274 N   0  0  0  0  0  0  0  0  0  0  0  0
   -3.1765    0.0001   -1.3091 C   0  0  0  0  0  0  0  0  0  0  0  0
   -2.1097    1.0095   -1.7166 C   0  0  2  0  0  0  0  0  0  0  0  0
   -1.0835    0.3579   -2.5400 N   0  0  0  0  0  0  0  0  0  0  0  0
   -1.5132    1.6349   -0.4342 C   0  0  2  0  0  0  0  0  0  0  0  0
   -2.5770    2.4427    0.2376 C   0  0  2  0  0  0  0  0  0  0  0  0
   -1.9995    3.0392    1.3844 O   0  0  0  0  0  0  0  0  0  0  0  0
   -3.7392    1.5434    0.6141 C   0  0  1  0  0  0  0  0  0  0  0  0
   -4.8132    2.2714    1.1794 O   0  0  0  0  0  0  0  0  0  0  0  0
   -2.8529    3.7884    2.2431 C   0  0  1  0  0  0  0  0  0  0  0  0
   -3.2851    2.8711    3.3890 C   0  0  2  0  0  0  0  0  0  0  0  0
   -4.6202    3.1706    3.7502 O   0  0  0  0  0  0  0  0  0  0  0  0
   -2.2760    3.2210    4.4911 C   0  0  2  0  0  0  0  0  0  0  0  0
   -2.7385    2.8714    5.7960 O   0  0  0  0  0  0  0  0  0  0  0  0
   -2.1235    4.7268    4.2435 C   0  0  2  0  0  0  0  0  0  0  0  0
   -2.1219    4.8583    2.8289 O   0  0  0  0  0  0  0  0  0  0  0  0
   -0.8301    5.3322    4.8013 C   0  0  0  0  0  0  0  0  0  0  0  0
    0.2045    5.3235    3.8409 O   0  0  0  0  0  0  0  0  0  0  0  0
   -1.7271    2.8592    6.8015 C   0  0  2  0  0  0  0  0  0  0  0  0
   -2.1062    1.9509    7.9811 C   0  0  2  0  0  0  0  0  0  0  0  0
   -2.4162    0.5881    7.5176 N   0  0  0  0  0  0  0  0  0  0  0  0
   -3.2681    2.5478    8.7894 C   0  0  1  0  0  0  0  0  0  0  0  0
   -3.5149    1.7163    9.9067 O   0  0  0  0  0  0  0  0  0  0  0  0
   -2.8629    3.9565    9.2556 C   0  0  2  0  0  0  0  0  0  0  0  0
   -3.9188    4.5706    9.9714 O   0  0  0  0  0  0  0  0  0  0  0  0
   -2.4405    4.8344    8.0596 C   0  0  1  0  0  0  0  0  0  0  0  0
   -1.4546    4.1832    7.2550 O   0  0  0  0  0  0  0  0  0  0  0  0
   -3.6269    5.3331    7.2214 C   0  0  0  0  0  0  0  0  0  0  0  0
   -4.4851    6.2442    7.9959 N   0  0  0  0  0  0  0  0  0  0  0  0
  1  3  1  0  0  0  0
  1  2  1  6  0  0  0
  3  4  1  6  0  0  0
  5  6  1  1  0  0  0
  5  3  1  0  0  0  0
  7  9  1  0  0  0  0
  7  5  1  0  0  0  0
  7  8  1  6  0  0  0
  9 10  1  0  0  0  0
  9 11  1  1  0  0  0
 10  1  1  0  0  0  0
 11 12  1  0  0  0  0
 13 14  1  1  0  0  0
 13 21  1  0  0  0  0
 15 13  1  0  0  0  0
 16 15  1  0  0  0  0
 16 18  1  0  0  0  0
 16 17  1  1  0  0  0
 18  2  1  6  0  0  0
 18 19  1  0  0  0  0
 19 21  1  0  0  0  0
 19 20  1  1  0  0  0
 21 22  1  6  0  0  0
 23 20  1  6  0  0  0
 23 29  1  0  0  0  0
 23 24  1  0  0  0  0
 24 26  1  0  0  0  0
 24 25  1  1  0  0  0
 26 27  1  1  0  0  0
 28 26  1  0  0  0  0
 28 30  1  6  0  0  0
 29 28  1  0  0  0  0
 30 31  1  0  0  0  0
 32 27  1  6  0  0  0
 32 40  1  0  0  0  0
 32 33  1  0  0  0  0
 33 35  1  0  0  0  0
 33 34  1  6  0  0  0
 35 37  1  0  0  0  0
 35 36  1  1  0  0  0
 37 38  1  6  0  0  0
 39 37  1  0  0  0  0
 39 41  1  6  0  0  0
 40 39  1  0  0  0  0
 42 41  1  0  0  0  0
M  END
>  <CHROM.1>
-174.99996993,-172.00976709,176.22030040,60.25430390,-49.37852206,42.88079686
-62.08717370,178.40975949,-102.64617286,-175.73236127,96.57948796,68.03664986
55.29607947,164.91460420,-156.09155748,91.66423422,-163.01829786,58.82938919
62.63755531,59.59328836,65.11724697,-164.19167792,-1.38161878,2.75328640
2.90525450,-1.14182628,0.19713668,1.26843989

>  <Name>
lig.pdb

>  <RI>
0

>  <Rbt.Current_Directory>
/home/itssahil/PROJECTS/Mol_Feturizer/New_Systems/rnas/2mxs

>  <Rbt.Executable>
rbdock ($Id: //depot/dev/client3/rdock/2013.1/src/exe/rbdock.cxx#4 $)

>  <Rbt.Library>
libRbt.so (2013.1, Build901 2013/11/27)

>  <Rbt.Parameter_File>
/export/apps/rDock/src/rDock_2013.1_src/data/scripts/dock_solv.prm

>  <Rbt.Receptor>
prm/pocket_docking_7.prm

>  <SCORE>
-43.7498

>  <SCORE.INTER>
-41.5875

>  <SCORE.INTER.CONST>
1

>  <SCORE.INTER.POLAR>
-6.12674

>  <SCORE.INTER.ROT>
9

>  <SCORE.INTER.SOLV>
18.2675

>  <SCORE.INTER.VDW>
-22.9917

>  <SCORE.INTER.norm>
-0.990179

>  <SCORE.INTRA>
-2.16229

>  <SCORE.INTRA.DIHEDRAL>
-10.391

>  <SCORE.INTRA.DIHEDRAL.0>
30.1357

>  <SCORE.INTRA.POLAR>
-1.21825

>  <SCORE.INTRA.POLAR.0>
-0.631696

>  <SCORE.INTRA.REPUL>
0.0191578

>  <SCORE.INTRA.REPUL.0>
0

>  <SCORE.INTRA.SOLV>
0.814158

>  <SCORE.INTRA.SOLV.lig_0>
-55.904

>  <SCORE.INTRA.VDW>
6.6724

>  <SCORE.INTRA.VDW.0>
-8.21197

>  <SCORE.INTRA.norm>
-0.051483

>  <SCORE.RESTR>
0

>  <SCORE.RESTR.CAVITY>
0

>  <SCORE.RESTR.norm>
0

>  <SCORE.SYSTEM>
0

>  <SCORE.SYSTEM.CONST>
0

>  <SCORE.SYSTEM.DIHEDRAL>
0

>  <SCORE.SYSTEM.SOLV>
0

>  <SCORE.SYSTEM.norm>
0

>  <SCORE.heavy>
42

>  <SCORE.norm>
-1.04166

>  <RMSD>
3.276

$$$$
lig.pdb
 OpenBabel11021811453D
libRbt.so/2013.1/901 2013/11/27
 42 45  0  0  0  0  0  0  0  0999 V2000
   -0.5802    3.9823   -0.8893 C   0  0  2  0  0  0  0  0  0  0  0  0
   -0.0021    2.8590   -0.2218 O   0  0  0  0  0  0  0  0  0  0  0  0
    0.4635    5.0892   -1.1018 C   0  0  2  0  0  0  0  0  0  0  0  0
    1.6471    4.5710   -1.8124 N   0  0  0  0  0  0  0  0  0  0  0  0
    0.8606    5.7341    0.2323 C   0  0  1  0  0  0  0  0  0  0  0  0
    1.7021    6.8442   -0.0147 O   0  0  0  0  0  0  0  0  0  0  0  0
   -0.3908    6.2026    0.9902 C   0  0  2  0  0  0  0  0  0  0  0  0
   -0.0179    6.6478    2.2802 O   0  0  0  0  0  0  0  0  0  0  0  0
   -1.4356    5.0745    1.1089 C   0  0  2  0  0  0  0  0  0  0  0  0
   -1.7001    4.4804   -0.1615 O   0  0  0  0  0  0  0  0  0  0  0  0
   -2.7317    5.6803    1.6800 C   0  0  0  0  0  0  0  0  0  0  0  0
   -2.5538    6.1784    3.0330 O   0  0  0  0  0  0  0  0  0  0  0  0
   -3.0663   -0.1093   -0.7968 C   0  0  2  0  0  0  0  0  0  0  0  0
   -3.6101   -1.4754   -0.6611 N   0  0  0  0  0  0  0  0  0  0  0  0
   -1.7716   -0.1308   -1.6133 C   0  0  0  0  0  0  0  0  0  0  0  0
   -1.1300    1.2514   -1.6387 C   0  0  2  0  0  0  0  0  0  0  0  0
    0.0564    1.2437   -2.5038 N   0  0  0  0  0  0  0  0  0  0  0  0
   -0.7862    1.6577   -0.1868 C   0  0  2  0  0  0  0  0  0  0  0  0
   -2.0633    1.8352    0.5702 C   0  0  2  0  0  0  0  0  0  0  0  0
   -1.7277    2.2469    1.8826 O   0  0  0  0  0  0  0  0  0  0  0  0
   -2.8331    0.5282    0.5858 C   0  0  1  0  0  0  0  0  0  0  0  0
   -4.0922    0.6605    1.2185 O   0  0  0  0  0  0  0  0  0  0  0  0
   -1.4132    1.2360    2.8345 C   0  0  1  0  0  0  0  0  0  0  0  0
   -0.2529    1.7459    3.6919 C   0  0  2  0  0  0  0  0  0  0  0  0
    0.5977    0.6635    4.0199 O   0  0  0  0  0  0  0  0  0  0  0  0
   -0.9759    2.3282    4.9140 C   0  0  2  0  0  0  0  0  0  0  0  0
   -0.1305    2.4308    6.0601 O   0  0  0  0  0  0  0  0  0  0  0  0
   -2.1242    1.3206    5.0485 C   0  0  2  0  0  0  0  0  0  0  0  0
   -2.5164    1.0447    3.7111 O   0  0  0  0  0  0  0  0  0  0  0  0
   -3.3379    1.8440    5.8254 C   0  0  0  0  0  0  0  0  0  0  0  0
   -3.8438    3.0343    5.2594 O   0  0  0  0  0  0  0  0  0  0  0  0
   -0.5506    3.3942    7.0242 C   0  0  2  0  0  0  0  0  0  0  0  0
    0.3464    4.6414    7.0128 C   0  0  2  0  0  0  0  0  0  0  0  0
    0.4143    5.2286    5.6642 N   0  0  0  0  0  0  0  0  0  0  0  0
    1.7465    4.3223    7.5583 C   0  0  1  0  0  0  0  0  0  0  0  0
    2.4968    5.5205    7.6048 O   0  0  0  0  0  0  0  0  0  0  0  0
    1.5955    3.7357    8.9722 C   0  0  2  0  0  0  0  0  0  0  0  0
    2.8584    3.3830    9.5061 O   0  0  0  0  0  0  0  0  0  0  0  0
    0.6528    2.5147    8.9662 C   0  0  1  0  0  0  0  0  0  0  0  0
   -0.5897    2.8160    8.3269 O   0  0  0  0  0  0  0  0  0  0  0  0
    1.3017    1.2474    8.3902 C   0  0  0  0  0  0  0  0  0  0  0  0
    2.0200    1.5345    7.1381 N   0  0  0  0  0  0  0  0  0  0  0  0
  1  3  1  0  0  0  0
  1  2  1  1  0  0  0
  3  4  1  1  0  0  0
  5  6  1  6  0  0  0
  5  3  1  0  0  0  0
  7  9  1  0  0  0  0
  7  5  1  0  0  0  0
  7  8  1  1  0  0  0
  9 10  1  0  0  0  0
  9 11  1  6  0  0  0
 10  1  1  0  0  0  0
 11 12  1  0  0  0  0
 13 14  1  1  0  0  0
 13 21  1  0  0  0  0
 15 13  1  0  0  0  0
 16 15  1  0  0  0  0
 16 18  1  0  0  0  0
 16 17  1  6  0  0  0
 18  2  1  6  0  0  0
 18 19  1  0  0  0  0
 19 21  1  0  0  0  0
 19 20  1  1  0  0  0
 21 22  1  6  0  0  0
 23 20  1  6  0  0  0
 23 29  1  0  0  0  0
 23 24  1  0  0  0  0
 24 26  1  0  0  0  0
 24 25  1  1  0  0  0
 26 27  1  1  0  0  0
 28 26  1  0  0  0  0
 28 30  1  1  0  0  0
 29 28  1  0  0  0  0
 30 31  1  0  0  0  0
 32 27  1  6  0  0  0
 32 40  1  0  0  0  0
 32 33  1  0  0  0  0
 33 35  1  0  0  0  0
 33 34  1  6  0  0  0
 35 37  1  0  0  0  0
 35 36  1  1  0  0  0
 37 38  1  6  0  0  0
 39 37  1  0  0  0  0
 39 41  1  6  0  0  0
 40 39  1  0  0  0  0
 42 41  1  0  0  0  0
M  END
>  <CHROM.1>
56.71958294,-168.39946226,-69.34172705,170.82391298,-172.74437308,177.68656267
-64.47688523,-80.44861294,-177.05514930,-84.90751159,140.88410519,174.12232905
53.14782051,157.08147419,-106.75224291,56.04900005,-63.22519106,157.69052342
-172.32004358,61.71191464,-46.01662212,177.00056284,-0.62904681,2.99887059
3.09497672,-2.05209877,1.00539806,1.87058016

>  <Name>
lig.pdb

>  <RI>
0

>  <Rbt.Current_Directory>
/home/itssahil/PROJECTS/Mol_Feturizer/New_Systems/rnas/2mxs

>  <Rbt.Executable>
rbdock ($Id: //depot/dev/client3/rdock/2013.1/src/exe/rbdock.cxx#4 $)

>  <Rbt.Library>
libRbt.so (2013.1, Build901 2013/11/27)

>  <Rbt.Parameter_File>
/export/apps/rDock/src/rDock_2013.1_src/data/scripts/dock_solv.prm

>  <Rbt.Receptor>
prm/pocket_docking_3.prm

>  <SCORE>
-41.458

>  <SCORE.INTER>
-36.8179

>  <SCORE.INTER.CONST>
1

>  <SCORE.INTER.POLAR>
-5.28195

>  <SCORE.INTER.ROT>
9

>  <SCORE.INTER.SOLV>
16.4452

>  <SCORE.INTER.VDW>
-22.0205

>  <SCORE.INTER.norm>
-0.876617

>  <SCORE.INTRA>
-4.64848

>  <SCORE.INTRA.DIHEDRAL>
-7.78665

>  <SCORE.INTRA.DIHEDRAL.0>
30.1357

>  <SCORE.INTRA.POLAR>
-2.06784

>  <SCORE.INTRA.POLAR.0>
-0.631696

>  <SCORE.INTRA.REPUL>
0.0036945

>  <SCORE.INTRA.REPUL.0>
0

>  <SCORE.INTRA.SOLV>
2.2424

>  <SCORE.INTRA.SOLV.lig_0>
-55.904

>  <SCORE.INTRA.VDW>
5.13583

>  <SCORE.INTRA.VDW.0>
-8.21197

>  <SCORE.INTRA.norm>
-0.110678

>  <SCORE.RESTR>
0.00836345

>  <SCORE.RESTR.CAVITY>
0.00836345

>  <SCORE.RESTR.norm>
0.00019913

>  <SCORE.SYSTEM>
0

>  <SCORE.SYSTEM.CONST>
0

>  <SCORE.SYSTEM.DIHEDRAL>
0

>  <SCORE.SYSTEM.SOLV>
0

>  <SCORE.SYSTEM.norm>
0

>  <SCORE.heavy>
42

>  <SCORE.norm>
-0.987096

>  <RMSD>
3.336

$$$$
lig.pdb
 OpenBabel11021811453D
libRbt.so/2013.1/901 2013/11/27
 42 45  0  0  0  0  0  0  0  0999 V2000
   -0.8628    3.1882    0.9053 C   0  0  2  0  0  0  0  0  0  0  0  0
   -1.7787    2.5436    0.0181 O   0  0  0  0  0  0  0  0  0  0  0  0
   -0.5845    4.6294    0.4522 C   0  0  2  0  0  0  0  0  0  0  0  0
   -1.8397    5.3889    0.3034 N   0  0  0  0  0  0  0  0  0  0  0  0
    0.2290    4.6495   -0.8483 C   0  0  1  0  0  0  0  0  0  0  0  0
    0.5960    5.9817   -1.1521 O   0  0  0  0  0  0  0  0  0  0  0  0
    1.4961    3.7945   -0.6967 C   0  0  2  0  0  0  0  0  0  0  0  0
    2.1479    3.6968   -1.9485 O   0  0  0  0  0  0  0  0  0  0  0  0
    1.1664    2.3837   -0.1682 C   0  0  2  0  0  0  0  0  0  0  0  0
    0.3517    2.4483    1.0019 O   0  0  0  0  0  0  0  0  0  0  0  0
    2.4933    1.6731    0.1602 C   0  0  0  0  0  0  0  0  0  0  0  0
    2.2858    0.3117    0.6225 O   0  0  0  0  0  0  0  0  0  0  0  0
   -5.0729   -0.0140    1.0845 C   0  0  2  0  0  0  0  0  0  0  0  0
   -5.6465   -1.2156    1.7229 N   0  0  0  0  0  0  0  0  0  0  0  0
   -4.0703   -0.4152   -0.0003 C   0  0  0  0  0  0  0  0  0  0  0  0
   -3.3707    0.8149   -0.5662 C   0  0  2  0  0  0  0  0  0  0  0  0
   -2.4845    0.4304   -1.6719 N   0  0  0  0  0  0  0  0  0  0  0  0
   -2.5994    1.5094    0.5803 C   0  0  2  0  0  0  0  0  0  0  0  0
   -3.5917    2.0435    1.5629 C   0  0  2  0  0  0  0  0  0  0  0  0
   -2.8679    2.7104    2.5807 O   0  0  0  0  0  0  0  0  0  0  0  0
   -4.4116    0.9012    2.1322 C   0  0  1  0  0  0  0  0  0  0  0  0
   -5.4253    1.3590    3.0073 O   0  0  0  0  0  0  0  0  0  0  0  0
   -2.1522    1.9119    3.5172 C   0  0  1  0  0  0  0  0  0  0  0  0
   -1.0570    2.7841    4.1346 C   0  0  2  0  0  0  0  0  0  0  0  0
    0.0937    1.9943    4.3693 O   0  0  0  0  0  0  0  0  0  0  0  0
   -1.7171    3.2763    5.4296 C   0  0  2  0  0  0  0  0  0  0  0  0
   -0.7678    3.7039    6.4067 O   0  0  0  0  0  0  0  0  0  0  0  0
   -2.5168    2.0250    5.8125 C   0  0  2  0  0  0  0  0  0  0  0  0
   -3.0173    1.5290    4.5788 O   0  0  0  0  0  0  0  0  0  0  0  0
   -3.6949    2.2911    6.7568 C   0  0  0  0  0  0  0  0  0  0  0  0
   -3.2662    2.8605    7.9755 O   0  0  0  0  0  0  0  0  0  0  0  0
   -1.2105    4.7763    7.2362 C   0  0  2  0  0  0  0  0  0  0  0  0
   -1.2228    6.1141    6.4811 C   0  0  2  0  0  0  0  0  0  0  0  0
   -2.0307    6.0184    5.2539 N   0  0  0  0  0  0  0  0  0  0  0  0
    0.2050    6.5930    6.1785 C   0  0  1  0  0  0  0  0  0  0  0  0
    0.1338    7.8644    5.5626 O   0  0  0  0  0  0  0  0  0  0  0  0
    0.9773    6.6888    7.5053 C   0  0  2  0  0  0  0  0  0  0  0  0
    2.3170    7.0861    7.2780 O   0  0  0  0  0  0  0  0  0  0  0  0
    0.9346    5.3484    8.2677 C   0  0  1  0  0  0  0  0  0  0  0  0
   -0.4046    4.8691    8.4088 O   0  0  0  0  0  0  0  0  0  0  0  0
    1.8665    4.2811    7.6750 C   0  0  0  0  0  0  0  0  0  0  0  0
    3.2794    4.5942    7.9432 N   0  0  0  0  0  0  0  0  0  0  0  0
  1  3  1  0  0  0  0
  1  2  1  6  0  0  0
  3  4  1  6  0  0  0
  5  6  1  1  0  0  0
  5  3  1  0  0  0  0
  7  9  1  0  0  0  0
  7  5  1  0  0  0  0
  7  8  1  6  0  0  0
  9 10  1  0  0  0  0
  9 11  1  1  0  0  0
 10  1  1  0  0  0  0
 11 12  1  0  0  0  0
 13 14  1  1  0  0  0
 13 21  1  0  0  0  0
 15 13  1  0  0  0  0
 16 15  1  0  0  0  0
 16 18  1  0  0  0  0
 16 17  1  6  0  0  0
 18  2  1  6  0  0  0
 18 19  1  0  0  0  0
 19 21  1  0  0  0  0
 19 20  1  1  0  0  0
 21 22  1  1  0  0  0
 23 20  1  6  0  0  0
 23 29  1  0  0  0  0
 23 24  1  0  0  0  0
 24 26  1  0  0  0  0
 24 25  1  1  0  0  0
 26 27  1  1  0  0  0
 28 26  1  0  0  0  0
 28 30  1  1  0  0  0
 29 28  1  0  0  0  0
 30 31  1  0  0  0  0
 32 27  1  6  0  0  0
 32 40  1  0  0  0  0
 32 33  1  0  0  0  0
 33 35  1  0  0  0  0
 33 34  1  6  0  0  0
 35 37  1  0  0  0  0
 35 36  1  1  0  0  0
 37 38  1  6  0  0  0
 39 37  1  0  0  0  0
 39 41  1  6  0  0  0
 40 39  1  0  0  0  0
 42 41  1  0  0  0  0
M  END
>  <CHROM.1>
-172.39380468,-151.73121768,-54.69365813,57.27628111,-64.47098789,-65.84278886
-177.92229348,-56.47747432,170.12762775,-73.32937866,158.16610859,-66.48943568
-174.16679917,147.15043472,-73.78352836,-59.95317806,176.63595678,-84.54628811
60.13963690,51.65395936,71.89316967,-171.77355069,-1.10069326,3.24054603
3.23734190,-1.90778349,0.60199811,1.27937522

>  <Name>
lig.pdb

>  <RI>
0

>  <Rbt.Current_Directory>
/home/itssahil/PROJECTS/Mol_Feturizer/New_Systems/rnas/2mxs

>  <Rbt.Executable>
rbdock ($Id: //depot/dev/client3/rdock/2013.1/src/exe/rbdock.cxx#4 $)

>  <Rbt.Library>
libRbt.so (2013.1, Build901 2013/11/27)

>  <Rbt.Parameter_File>
/export/apps/rDock/src/rDock_2013.1_src/data/scripts/dock_solv.prm

>  <Rbt.Receptor>
prm/pocket_docking_4.prm

>  <SCORE>
-33.7934

>  <SCORE.INTER>
-30.5638

>  <SCORE.INTER.CONST>
1

>  <SCORE.INTER.POLAR>
-4.23586

>  <SCORE.INTER.ROT>
9

>  <SCORE.INTER.SOLV>
14.9197

>  <SCORE.INTER.VDW>
-20.8296

>  <SCORE.INTER.norm>
-0.727709

>  <SCORE.INTRA>
-3.22985

>  <SCORE.INTRA.DIHEDRAL>
-14.6389

>  <SCORE.INTRA.DIHEDRAL.0>
30.1357

>  <SCORE.INTRA.POLAR>
-0.0202428

>  <SCORE.INTRA.POLAR.0>
-0.631696

>  <SCORE.INTRA.REPUL>
0

>  <SCORE.INTRA.REPUL.0>
0

>  <SCORE.INTRA.SOLV>
-0.0807294

>  <SCORE.INTRA.SOLV.lig_0>
-55.904

>  <SCORE.INTRA.VDW>
4.19881

>  <SCORE.INTRA.VDW.0>
-8.21197

>  <SCORE.INTRA.norm>
-0.0769012

>  <SCORE.RESTR>
0.000285584

>  <SCORE.RESTR.CAVITY>
0.000285584

>  <SCORE.RESTR.norm>
6.79961e-06

>  <SCORE.SYSTEM>
0

>  <SCORE.SYSTEM.CONST>
0

>  <SCORE.SYSTEM.DIHEDRAL>
0

>  <SCORE.SYSTEM.SOLV>
0

>  <SCORE.SYSTEM.norm>
0

>  <SCORE.heavy>
42

>  <SCORE.norm>
-0.804604

>  <RMSD>
3.349

$$$$
lig.pdb
 OpenBabel11021811453D
libRbt.so/2013.1/901 2013/11/27
 42 45  0  0  0  0  0  0  0  0999 V2000
    1.5398    2.3833   -1.0528 C   0  0  2  0  0  0  0  0  0  0  0  0
    1.6585    2.0102    0.3213 O   0  0  0  0  0  0  0  0  0  0  0  0
    2.8621    2.9618   -1.5788 C   0  0  2  0  0  0  0  0  0  0  0  0
    3.9770    2.0233   -1.3535 N   0  0  0  0  0  0  0  0  0  0  0  0
    3.1554    4.3278   -0.9451 C   0  0  1  0  0  0  0  0  0  0  0  0
    4.2941    4.8970   -1.5622 O   0  0  0  0  0  0  0  0  0  0  0  0
    1.9543    5.2679   -1.1275 C   0  0  2  0  0  0  0  0  0  0  0  0
    2.1798    6.4620   -0.4031 O   0  0  0  0  0  0  0  0  0  0  0  0
    0.6432    4.6090   -0.6530 C   0  0  2  0  0  0  0  0  0  0  0  0
    0.4766    3.3155   -1.2326 O   0  0  0  0  0  0  0  0  0  0  0  0
   -0.5280    5.5198   -1.0676 C   0  0  0  0  0  0  0  0  0  0  0  0
   -1.6704    5.3809   -0.1811 O   0  0  0  0  0  0  0  0  0  0  0  0
   -0.8606   -1.4755    0.5088 C   0  0  2  0  0  0  0  0  0  0  0  0
   -1.5855   -2.5311    1.2440 N   0  0  0  0  0  0  0  0  0  0  0  0
    0.6399   -1.5592    0.7999 C   0  0  0  0  0  0  0  0  0  0  0  0
    1.3772   -0.3895    0.1585 C   0  0  2  0  0  0  0  0  0  0  0  0
    2.8247   -0.5312    0.3596 N   0  0  0  0  0  0  0  0  0  0  0  0
    0.8332    0.9240    0.7668 C   0  0  2  0  0  0  0  0  0  0  0  0
   -0.5927    1.0853    0.3468 C   0  0  2  0  0  0  0  0  0  0  0  0
   -1.0580    2.3122    0.8786 O   0  0  0  0  0  0  0  0  0  0  0  0
   -1.4121   -0.0820    0.8639 C   0  0  1  0  0  0  0  0  0  0  0  0
   -2.7560   -0.0242    0.4240 O   0  0  0  0  0  0  0  0  0  0  0  0
   -2.1250    2.2647    1.8200 C   0  0  1  0  0  0  0  0  0  0  0  0
   -1.5321    2.4989    3.2110 C   0  0  2  0  0  0  0  0  0  0  0  0
   -2.2316    1.7120    4.1566 O   0  0  0  0  0  0  0  0  0  0  0  0
   -1.7468    4.0051    3.4125 C   0  0  2  0  0  0  0  0  0  0  0  0
   -1.7249    4.3879    4.7879 O   0  0  0  0  0  0  0  0  0  0  0  0
   -3.1034    4.1754    2.7178 C   0  0  2  0  0  0  0  0  0  0  0  0
   -3.0275    3.3358    1.5743 O   0  0  0  0  0  0  0  0  0  0  0  0
   -3.4068    5.6082    2.2643 C   0  0  0  0  0  0  0  0  0  0  0  0
   -4.7046    5.7174    1.7194 O   0  0  0  0  0  0  0  0  0  0  0  0
   -0.4336    4.3578    5.3928 C   0  0  2  0  0  0  0  0  0  0  0  0
   -0.5017    4.6562    6.8983 C   0  0  2  0  0  0  0  0  0  0  0  0
   -1.4312    3.7367    7.5755 N   0  0  0  0  0  0  0  0  0  0  0  0
   -0.8746    6.1238    7.1564 C   0  0  1  0  0  0  0  0  0  0  0  0
   -0.8375    6.3607    8.5504 O   0  0  0  0  0  0  0  0  0  0  0  0
    0.1496    7.0192    6.4386 C   0  0  2  0  0  0  0  0  0  0  0  0
   -0.1738    8.3870    6.6092 O   0  0  0  0  0  0  0  0  0  0  0  0
    0.2352    6.6686    4.9388 C   0  0  1  0  0  0  0  0  0  0  0  0
    0.4475    5.2691    4.7399 O   0  0  0  0  0  0  0  0  0  0  0  0
   -0.9571    7.1896    4.1228 C   0  0  0  0  0  0  0  0  0  0  0  0
   -0.6496    8.4822    3.4896 N   0  0  0  0  0  0  0  0  0  0  0  0
  1  3  1  0  0  0  0
  1  2  1  1  0  0  0
  3  4  1  1  0  0  0
  5  6  1  6  0  0  0
  5  3  1  0  0  0  0
  7  9  1  0  0  0  0
  7  5  1  0  0  0  0
  7  8  1  1  0  0  0
  9 10  1  0  0  0  0
  9 11  1  6  0  0  0
 10  1  1  0  0  0  0
 11 12  1  0  0  0  0
 13 14  1  1  0  0  0
 13 21  1  0  0  0  0
 15 13  1  0  0  0  0
 16 15  1  0  0  0  0
 16 18  1  0  0  0  0
 16 17  1  1  0  0  0
 18  2  1  6  0  0  0
 18 19  1  0  0  0  0
 19 21  1  0  0  0  0
 19 20  1  1  0  0  0
 21 22  1  6  0  0  0
 23 20  1  6  0  0  0
 23 29  1  0  0  0  0
 23 24  1  0  0  0  0
 24 26  1  0  0  0  0
 24 25  1  1  0  0  0
 26 27  1  1  0  0  0
 28 26  1  0  0  0  0
 28 30  1  6  0  0  0
 29 28  1  0  0  0  0
 30 31  1  0  0  0  0
 32 27  1  6  0  0  0
 32 40  1  0  0  0  0
 32 33  1  0  0  0  0
 33 35  1  0  0  0  0
 33 34  1  1  0  0  0
 35 37  1  0  0  0  0
 35 36  1  1  0  0  0
 37 38  1  6  0  0  0
 39 37  1  0  0  0  0
 39 41  1  6  0  0  0
 40 39  1  0  0  0  0
 42 41  1  0  0  0  0
M  END
>  <CHROM.1>
71.41193008,-150.46241181,177.99441442,-142.54435187,69.90560270,-59.16882357
-152.38184444,-164.08915437,-151.45947058,-117.15044730,104.04588176,-57.77189005
70.28088457,72.41615302,-174.82918282,-175.82409363,40.22338762,-179.64174049
68.33020031,-49.96372748,95.76792407,-39.03414725,-0.26204914,3.56614270
2.08825303,-1.12912607,0.90100424,0.53619675

>  <Name>
lig.pdb

>  <RI>
0

>  <Rbt.Current_Directory>
/home/itssahil/PROJECTS/Mol_Feturizer/New_Systems/rnas/2mxs

>  <Rbt.Executable>
rbdock ($Id: //depot/dev/client3/rdock/2013.1/src/exe/rbdock.cxx#4 $)

>  <Rbt.Library>
libRbt.so (2013.1, Build901 2013/11/27)

>  <Rbt.Parameter_File>
/export/apps/rDock/src/rDock_2013.1_src/data/scripts/dock_solv.prm

>  <Rbt.Receptor>
prm/pocket_docking_4.prm

>  <SCORE>
-34.944

>  <SCORE.INTER>
-43.8105

>  <SCORE.INTER.CONST>
1

>  <SCORE.INTER.POLAR>
-4.92475

>  <SCORE.INTER.ROT>
9

>  <SCORE.INTER.SOLV>
23.1943

>  <SCORE.INTER.VDW>
-30.1226

>  <SCORE.INTER.norm>
-1.04311

>  <SCORE.INTRA>
8.6225

>  <SCORE.INTRA.DIHEDRAL>
6.12553

>  <SCORE.INTRA.DIHEDRAL.0>
30.1357

>  <SCORE.INTRA.POLAR>
-0.0428204

>  <SCORE.INTRA.POLAR.0>
-0.631696

>  <SCORE.INTRA.REPUL>
0

>  <SCORE.INTRA.REPUL.0>
0

>  <SCORE.INTRA.SOLV>
0.730363

>  <SCORE.INTRA.SOLV.lig_0>
-55.904

>  <SCORE.INTRA.VDW>
5.34014

>  <SCORE.INTRA.VDW.0>
-8.21197

>  <SCORE.INTRA.norm>
0.205298

>  <SCORE.RESTR>
0.24403

>  <SCORE.RESTR.CAVITY>
0.24403

>  <SCORE.RESTR.norm>
0.00581024

>  <SCORE.SYSTEM>
0

>  <SCORE.SYSTEM.CONST>
0

>  <SCORE.SYSTEM.DIHEDRAL>
0

>  <SCORE.SYSTEM.SOLV>
0

>  <SCORE.SYSTEM.norm>
0

>  <SCORE.heavy>
42

>  <SCORE.norm>
-0.831999

>  <RMSD>
3.371

$$$$
lig.pdb
 OpenBabel11021811453D
libRbt.so/2013.1/901 2013/11/27
 42 45  0  0  0  0  0  0  0  0999 V2000
   -1.0576    3.5060    1.7631 C   0  0  2  0  0  0  0  0  0  0  0  0
   -2.3527    3.1348    1.2872 O   0  0  0  0  0  0  0  0  0  0  0  0
   -1.0222    4.9921    2.1503 C   0  0  2  0  0  0  0  0  0  0  0  0
   -2.0828    5.3106    3.1240 N   0  0  0  0  0  0  0  0  0  0  0  0
   -1.1278    5.8866    0.9084 C   0  0  1  0  0  0  0  0  0  0  0  0
   -0.9387    7.2372    1.2849 O   0  0  0  0  0  0  0  0  0  0  0  0
   -0.0609    5.4919   -0.1239 C   0  0  2  0  0  0  0  0  0  0  0  0
   -0.2747    6.2175   -1.3194 O   0  0  0  0  0  0  0  0  0  0  0  0
   -0.0920    3.9786   -0.4190 C   0  0  2  0  0  0  0  0  0  0  0  0
   -0.0595    3.2168    0.7875 O   0  0  0  0  0  0  0  0  0  0  0  0
    1.1347    3.6342   -1.2850 C   0  0  0  0  0  0  0  0  0  0  0  0
    1.1960    2.2196   -1.6100 O   0  0  0  0  0  0  0  0  0  0  0  0
   -4.1444   -0.7158    0.5849 C   0  0  2  0  0  0  0  0  0  0  0  0
   -4.1750   -2.1877    0.6978 N   0  0  0  0  0  0  0  0  0  0  0  0
   -2.8949   -0.2665   -0.1767 C   0  0  0  0  0  0  0  0  0  0  0  0
   -2.7830    1.2534   -0.1755 C   0  0  2  0  0  0  0  0  0  0  0  0
   -1.6377    1.6781   -0.9902 N   0  0  0  0  0  0  0  0  0  0  0  0
   -2.6620    1.7336    1.2895 C   0  0  2  0  0  0  0  0  0  0  0  0
   -3.9480    1.4374    1.9925 C   0  0  2  0  0  0  0  0  0  0  0  0
   -3.8312    1.9217    3.3177 O   0  0  0  0  0  0  0  0  0  0  0  0
   -4.2060   -0.0574    1.9760 C   0  0  1  0  0  0  0  0  0  0  0  0
   -5.4542   -0.3878    2.5555 O   0  0  0  0  0  0  0  0  0  0  0  0
   -2.8324    1.3416    4.1500 C   0  0  1  0  0  0  0  0  0  0  0  0
   -1.8729    2.4554    4.5746 C   0  0  2  0  0  0  0  0  0  0  0  0
   -0.5577    1.9380    4.6468 O   0  0  0  0  0  0  0  0  0  0  0  0
   -2.4287    2.8660    5.9449 C   0  0  2  0  0  0  0  0  0  0  0  0
   -1.4622    3.5341    6.7563 O   0  0  0  0  0  0  0  0  0  0  0  0
   -2.8761    1.4968    6.4713 C   0  0  2  0  0  0  0  0  0  0  0  0
   -3.4315    0.8425    5.3392 O   0  0  0  0  0  0  0  0  0  0  0  0
   -3.9342    1.5595    7.5790 C   0  0  0  0  0  0  0  0  0  0  0  0
   -4.3116    0.2696    8.0113 O   0  0  0  0  0  0  0  0  0  0  0  0
   -2.0097    4.2695    7.8488 C   0  0  2  0  0  0  0  0  0  0  0  0
   -2.5010    5.6582    7.4127 C   0  0  2  0  0  0  0  0  0  0  0  0
   -3.4636    5.5516    6.3037 N   0  0  0  0  0  0  0  0  0  0  0  0
   -1.3227    6.5740    7.0485 C   0  0  1  0  0  0  0  0  0  0  0  0
   -1.8279    7.8586    6.7398 O   0  0  0  0  0  0  0  0  0  0  0  0
   -0.3760    6.6528    8.2582 C   0  0  2  0  0  0  0  0  0  0  0  0
    0.7531    7.4531    7.9598 O   0  0  0  0  0  0  0  0  0  0  0  0
    0.0651    5.2446    8.7076 C   0  0  1  0  0  0  0  0  0  0  0  0
   -1.0580    4.3825    8.9045 O   0  0  0  0  0  0  0  0  0  0  0  0
    1.1182    4.6132    7.7850 C   0  0  0  0  0  0  0  0  0  0  0  0
    2.4024    5.3274    7.8696 N   0  0  0  0  0  0  0  0  0  0  0  0
  1  3  1  0  0  0  0
  1  2  1  6  0  0  0
  3  4  1  1  0  0  0
  5  6  1  1  0  0  0
  5  3  1  0  0  0  0
  7  9  1  0  0  0  0
  7  5  1  0  0  0  0
  7  8  1  6  0  0  0
  9 10  1  0  0  0  0
  9 11  1  6  0  0  0
 10  1  1  0  0  0  0
 11 12  1  0  0  0  0
 13 14  1  1  0  0  0
 13 21  1  0  0  0  0
 15 13  1  0  0  0  0
 16 15  1  0  0  0  0
 16 18  1  0  0  0  0
 16 17  1  6  0  0  0
 18  2  1  6  0  0  0
 18 19  1  0  0  0  0
 19 21  1  0  0  0  0
 19 20  1  1  0  0  0
 21 22  1  6  0  0  0
 23 20  1  6  0  0  0
 23 29  1  0  0  0  0
 23 24  1  0  0  0  0
 24 26  1  0  0  0  0
 24 25  1  1  0  0  0
 26 27  1  1  0  0  0
 28 26  1  0  0  0  0
 28 30  1  1  0  0  0
 29 28  1  0  0  0  0
 30 31  1  0  0  0  0
 32 27  1  6  0  0  0
 32 40  1  0  0  0  0
 32 33  1  0  0  0  0
 33 35  1  0  0  0  0
 33 34  1  6  0  0  0
 35 37  1  0  0  0  0
 35 36  1  1  0  0  0
 37 38  1  6  0  0  0
 39 37  1  0  0  0  0
 39 41  1  6  0  0  0
 40 39  1  0  0  0  0
 42 41  1  0  0  0  0
M  END
>  <CHROM.1>
-112.50107199,-160.96603261,79.24149395,59.72752006,18.23089874,175.07201736
179.66643138,-49.62538227,32.31199815,-62.60625327,119.75093349,67.21701089
-179.01610613,162.55313249,-82.53666582,179.47615611,63.24075681,-62.04805364
-69.40985197,63.24920409,67.94284663,-174.38967422,-1.75483685,3.32858215
3.71045867,-1.81419943,0.96503352,1.32613589

>  <Name>
lig.pdb

>  <RI>
0

>  <Rbt.Current_Directory>
/home/itssahil/PROJECTS/Mol_Feturizer/New_Systems/rnas/2mxs

>  <Rbt.Executable>
rbdock ($Id: //depot/dev/client3/rdock/2013.1/src/exe/rbdock.cxx#4 $)

>  <Rbt.Library>
libRbt.so (2013.1, Build901 2013/11/27)

>  <Rbt.Parameter_File>
/export/apps/rDock/src/rDock_2013.1_src/data/scripts/dock_solv.prm

>  <Rbt.Receptor>
prm/pocket_docking_4.prm

>  <SCORE>
-25.6541

>  <SCORE.INTER>
-28.1028

>  <SCORE.INTER.CONST>
1

>  <SCORE.INTER.POLAR>
-5.26016

>  <SCORE.INTER.ROT>
9

>  <SCORE.INTER.SOLV>
9.80968

>  <SCORE.INTER.VDW>
-14.0712

>  <SCORE.INTER.norm>
-0.669114

>  <SCORE.INTRA>
2.4076

>  <SCORE.INTRA.DIHEDRAL>
-0.512714

>  <SCORE.INTRA.DIHEDRAL.0>
30.1357

>  <SCORE.INTRA.POLAR>
-0.453063

>  <SCORE.INTRA.POLAR.0>
-0.631696

>  <SCORE.INTRA.REPUL>
0

>  <SCORE.INTRA.REPUL.0>
0

>  <SCORE.INTRA.SOLV>
1.19876

>  <SCORE.INTRA.SOLV.lig_0>
-55.904

>  <SCORE.INTRA.VDW>
3.60499

>  <SCORE.INTRA.VDW.0>
-8.21197

>  <SCORE.INTRA.norm>
0.0573238

>  <SCORE.RESTR>
0.0410775

>  <SCORE.RESTR.CAVITY>
0.0410775

>  <SCORE.RESTR.norm>
0.000978036

>  <SCORE.SYSTEM>
0

>  <SCORE.SYSTEM.CONST>
0

>  <SCORE.SYSTEM.DIHEDRAL>
0

>  <SCORE.SYSTEM.SOLV>
0

>  <SCORE.SYSTEM.norm>
0

>  <SCORE.heavy>
42

>  <SCORE.norm>
-0.610812

>  <RMSD>
3.400

$$$$
lig.pdb
 OpenBabel11021811453D
libRbt.so/2013.1/901 2013/11/27
 42 45  0  0  0  0  0  0  0  0999 V2000
    0.8179    2.7711    0.7799 C   0  0  2  0  0  0  0  0  0  0  0  0
   -0.2164    2.6976   -0.2032 O   0  0  0  0  0  0  0  0  0  0  0  0
    1.9930    3.6220    0.2751 C   0  0  2  0  0  0  0  0  0  0  0  0
    1.5352    4.9580   -0.1487 N   0  0  0  0  0  0  0  0  0  0  0  0
    2.7399    2.9098   -0.8600 C   0  0  1  0  0  0  0  0  0  0  0  0
    3.8999    3.6475   -1.1943 O   0  0  0  0  0  0  0  0  0  0  0  0
    3.1454    1.4938   -0.4240 C   0  0  2  0  0  0  0  0  0  0  0  0
    3.6892    0.8005   -1.5308 O   0  0  0  0  0  0  0  0  0  0  0  0
    1.9440    0.7109    0.1434 C   0  0  2  0  0  0  0  0  0  0  0  0
    1.2618    1.4664    1.1439 O   0  0  0  0  0  0  0  0  0  0  0  0
    2.4722   -0.6018    0.7525 C   0  0  0  0  0  0  0  0  0  0  0  0
    3.9172   -0.7108    0.6499 O   0  0  0  0  0  0  0  0  0  0  0  0
   -4.3374    1.5311    0.2297 C   0  0  2  0  0  0  0  0  0  0  0  0
   -5.4026    0.6466    0.7430 N   0  0  0  0  0  0  0  0  0  0  0  0
   -3.3746    0.7426   -0.6616 C   0  0  0  0  0  0  0  0  0  0  0  0
   -2.1959    1.6132   -1.0806 C   0  0  2  0  0  0  0  0  0  0  0  0
   -1.3305    0.8802   -2.0131 N   0  0  0  0  0  0  0  0  0  0  0  0
   -1.4357    2.0525    0.1924 C   0  0  2  0  0  0  0  0  0  0  0  0
   -2.3240    2.9559    0.9863 C   0  0  2  0  0  0  0  0  0  0  0  0
   -1.5952    3.3791    2.1239 O   0  0  0  0  0  0  0  0  0  0  0  0
   -3.5824    2.2099    1.3880 C   0  0  1  0  0  0  0  0  0  0  0  0
   -4.4992    3.0438    2.0715 O   0  0  0  0  0  0  0  0  0  0  0  0
   -1.3102    2.4098    3.1270 C   0  0  1  0  0  0  0  0  0  0  0  0
    0.0620    2.7391    3.7188 C   0  0  2  0  0  0  0  0  0  0  0  0
    0.7372    1.5357    4.0330 O   0  0  0  0  0  0  0  0  0  0  0  0
   -0.3029    3.5607    4.9626 C   0  0  2  0  0  0  0  0  0  0  0  0
    0.7407    3.5830    5.9368 O   0  0  0  0  0  0  0  0  0  0  0  0
   -1.5774    2.8286    5.4003 C   0  0  2  0  0  0  0  0  0  0  0  0
   -2.2514    2.5272    4.1865 O   0  0  0  0  0  0  0  0  0  0  0  0
   -2.5079    3.6568    6.2941 C   0  0  0  0  0  0  0  0  0  0  0  0
   -3.6921    2.9537    6.6048 O   0  0  0  0  0  0  0  0  0  0  0  0
    0.4920    4.4326    7.0550 C   0  0  2  0  0  0  0  0  0  0  0  0
    1.7727    5.1309    7.5371 C   0  0  2  0  0  0  0  0  0  0  0  0
    2.4158    5.8688    6.4371 N   0  0  0  0  0  0  0  0  0  0  0  0
    2.7408    4.1286    8.1835 C   0  0  1  0  0  0  0  0  0  0  0  0
    3.8577    4.8380    8.6835 O   0  0  0  0  0  0  0  0  0  0  0  0
    2.0074    3.4158    9.3323 C   0  0  2  0  0  0  0  0  0  0  0  0
    2.8444    2.4469    9.9367 O   0  0  0  0  0  0  0  0  0  0  0  0
    0.7011    2.7640    8.8340 C   0  0  1  0  0  0  0  0  0  0  0  0
   -0.1102    3.6985    8.1187 O   0  0  0  0  0  0  0  0  0  0  0  0
    0.9314    1.4737    8.0334 C   0  0  0  0  0  0  0  0  0  0  0  0
   -0.2855    0.6472    7.9868 N   0  0  0  0  0  0  0  0  0  0  0  0
  1  3  1  0  0  0  0
  1  2  1  6  0  0  0
  3  4  1  6  0  0  0
  5  6  1  1  0  0  0
  5  3  1  0  0  0  0
  7  9  1  0  0  0  0
  7  5  1  0  0  0  0
  7  8  1  6  0  0  0
  9 10  1  0  0  0  0
  9 11  1  1  0  0  0
 10  1  1  0  0  0  0
 11 12  1  0  0  0  0
 13 14  1  1  0  0  0
 13 21  1  0  0  0  0
 15 13  1  0  0  0  0
 16 15  1  0  0  0  0
 16 18  1  0  0  0  0
 16 17  1  6  0  0  0
 18  2  1  6  0  0  0
 18 19  1  0  0  0  0
 19 21  1  0  0  0  0
 19 20  1  1  0  0  0
 21 22  1  6  0  0  0
 23 20  1  6  0  0  0
 23 29  1  0  0  0  0
 23 24  1  0  0  0  0
 24 26  1  0  0  0  0
 24 25  1  1  0  0  0
 26 27  1  1  0  0  0
 28 26  1  0  0  0  0
 28 30  1  1  0  0  0
 29 28  1  0  0  0  0
 30 31  1  0  0  0  0
 32 27  1  6  0  0  0
 32 40  1  0  0  0  0
 32 33  1  0  0  0  0
 33 35  1  0  0  0  0
 33 34  1  6  0  0  0
 35 37  1  0  0  0  0
 35 36  1  1  0  0  0
 37 38  1  6  0  0  0
 39 37  1  0  0  0  0
 39 41  1  6  0  0  0
 40 39  1  0  0  0  0
 42 41  1  0  0  0  0
M  END
>  <CHROM.1>
-159.57948787,-173.51334824,74.11732626,39.30741565,-170.78072425,-100.76589428
1.33067103,55.97351292,77.97787429,-69.42522827,145.49999707,63.25034315
-55.76929006,174.63773523,-143.18808175,176.94346131,-46.97907935,73.65554696
-101.58377831,79.87700888,159.97272816,-169.58875382,0.12654446,2.54506164
3.28603021,-1.73376317,0.06378873,1.37250704

>  <Name>
lig.pdb

>  <RI>
3.99633e+07

>  <Rbt.Current_Directory>
/home/itssahil/PROJECTS/Mol_Feturizer/New_Systems/rnas/2mxs

>  <Rbt.Executable>
rbdock ($Id: //depot/dev/client3/rdock/2013.1/src/exe/rbdock.cxx#4 $)

>  <Rbt.Library>
libRbt.so (2013.1, Build901 2013/11/27)

>  <Rbt.Parameter_File>
/export/apps/rDock/src/rDock_2013.1_src/data/scripts/dock_solv.prm

>  <Rbt.Receptor>
prm/pocket_docking_5.prm

>  <SCORE>
-13.9699

>  <SCORE.INTER>
-25.0625

>  <SCORE.INTER.CONST>
1

>  <SCORE.INTER.POLAR>
-5.38099

>  <SCORE.INTER.ROT>
9

>  <SCORE.INTER.SOLV>
21.6157

>  <SCORE.INTER.VDW>
-15.5769

>  <SCORE.INTER.norm>
-0.596726

>  <SCORE.INTRA>
11.089

>  <SCORE.INTRA.DIHEDRAL>
7.27631

>  <SCORE.INTRA.DIHEDRAL.0>
30.1357

>  <SCORE.INTRA.POLAR>
0.466717

>  <SCORE.INTRA.POLAR.0>
-0.631696

>  <SCORE.INTRA.REPUL>
0

>  <SCORE.INTRA.REPUL.0>
0

>  <SCORE.INTRA.SOLV>
-0.1069

>  <SCORE.INTRA.SOLV.lig_0>
-55.904

>  <SCORE.INTRA.VDW>
5.91745

>  <SCORE.INTRA.VDW.0>
-8.21197

>  <SCORE.INTRA.norm>
0.264024

>  <SCORE.RESTR>
0.00360253

>  <SCORE.RESTR.CAVITY>
0.00360253

>  <SCORE.RESTR.norm>
8.57745e-05

>  <SCORE.SYSTEM>
0

>  <SCORE.SYSTEM.CONST>
0

>  <SCORE.SYSTEM.DIHEDRAL>
0

>  <SCORE.SYSTEM.SOLV>
0

>  <SCORE.SYSTEM.norm>
0

>  <SCORE.heavy>
42

>  <SCORE.norm>
-0.332616

>  <RMSD>
3.448

$$$$
lig.pdb
 OpenBabel11021811453D
libRbt.so/2013.1/901 2013/11/27
 42 45  0  0  0  0  0  0  0  0999 V2000
   -0.5878    2.7809   -0.6426 C   0  0  2  0  0  0  0  0  0  0  0  0
    0.3037    1.9256    0.0753 O   0  0  0  0  0  0  0  0  0  0  0  0
    0.1004    4.1043   -1.0095 C   0  0  2  0  0  0  0  0  0  0  0  0
    1.3525    3.8621   -1.7498 N   0  0  0  0  0  0  0  0  0  0  0  0
    0.3554    4.9565    0.2404 C   0  0  1  0  0  0  0  0  0  0  0  0
    0.8472    6.2248   -0.1483 O   0  0  0  0  0  0  0  0  0  0  0  0
   -0.9462    5.1373    1.0358 C   0  0  2  0  0  0  0  0  0  0  0  0
   -0.6610    5.7875    2.2595 O   0  0  0  0  0  0  0  0  0  0  0  0
   -1.6332    3.7843    1.3113 C   0  0  2  0  0  0  0  0  0  0  0  0
   -1.7725    3.0227    0.1123 O   0  0  0  0  0  0  0  0  0  0  0  0
   -3.0231    4.0665    1.9128 C   0  0  0  0  0  0  0  0  0  0  0  0
   -3.6493    2.8635    2.4333 O   0  0  0  0  0  0  0  0  0  0  0  0
   -2.0726   -1.6457    0.4354 C   0  0  2  0  0  0  0  0  0  0  0  0
   -2.2959   -3.0310    0.8953 N   0  0  0  0  0  0  0  0  0  0  0  0
   -0.8619   -1.5841   -0.4992 C   0  0  0  0  0  0  0  0  0  0  0  0
   -0.5395   -0.1403   -0.8657 C   0  0  2  0  0  0  0  0  0  0  0  0
    0.5595   -0.0974   -1.8384 N   0  0  0  0  0  0  0  0  0  0  0  0
   -0.1960    0.6284    0.4314 C   0  0  2  0  0  0  0  0  0  0  0  0
   -1.4276    0.7068    1.2756 C   0  0  2  0  0  0  0  0  0  0  0  0
   -1.1027    1.4490    2.4366 O   0  0  0  0  0  0  0  0  0  0  0  0
   -1.8919   -0.6928    1.6319 C   0  0  1  0  0  0  0  0  0  0  0  0
   -3.1044   -0.6809    2.3618 O   0  0  0  0  0  0  0  0  0  0  0  0
   -0.7922    0.7238    3.6218 C   0  0  1  0  0  0  0  0  0  0  0  0
    0.1291    1.5970    4.4763 C   0  0  2  0  0  0  0  0  0  0  0  0
    1.0713    0.7747    5.1388 O   0  0  0  0  0  0  0  0  0  0  0  0
   -0.8558    2.2721    5.4403 C   0  0  2  0  0  0  0  0  0  0  0  0
   -0.2255    2.7541    6.6275 O   0  0  0  0  0  0  0  0  0  0  0  0
   -1.8457    1.1212    5.6582 C   0  0  2  0  0  0  0  0  0  0  0  0
   -1.9775    0.5161    4.3795 O   0  0  0  0  0  0  0  0  0  0  0  0
   -3.2309    1.5615    6.1458 C   0  0  0  0  0  0  0  0  0  0  0  0
   -4.1309    0.4754    6.2049 O   0  0  0  0  0  0  0  0  0  0  0  0
    0.9391    3.5459    6.4026 C   0  0  2  0  0  0  0  0  0  0  0  0
    1.5583    4.0371    7.7200 C   0  0  2  0  0  0  0  0  0  0  0  0
    1.8449    2.9076    8.6201 N   0  0  0  0  0  0  0  0  0  0  0  0
    0.6608    5.0830    8.3984 C   0  0  1  0  0  0  0  0  0  0  0  0
    1.3189    5.5601    9.5560 O   0  0  0  0  0  0  0  0  0  0  0  0
    0.4249    6.2367    7.4088 C   0  0  2  0  0  0  0  0  0  0  0  0
   -0.4345    7.2113    7.9707 O   0  0  0  0  0  0  0  0  0  0  0  0
   -0.1514    5.7134    6.0770 C   0  0  1  0  0  0  0  0  0  0  0  0
    0.6397    4.6470    5.5476 O   0  0  0  0  0  0  0  0  0  0  0  0
   -1.6379    5.3369    6.1630 C   0  0  0  0  0  0  0  0  0  0  0  0
   -2.3207    5.5518    4.8770 N   0  0  0  0  0  0  0  0  0  0  0  0
  1  3  1  0  0  0  0
  1  2  1  1  0  0  0
  3  4  1  1  0  0  0
  5  6  1  6  0  0  0
  5  3  1  0  0  0  0
  7  9  1  0  0  0  0
  7  5  1  0  0  0  0
  7  8  1  1  0  0  0
  9 10  1  0  0  0  0
  9 11  1  6  0  0  0
 10  1  1  0  0  0  0
 11 12  1  0  0  0  0
 13 14  1  1  0  0  0
 13 21  1  0  0  0  0
 15 13  1  0  0  0  0
 16 15  1  0  0  0  0
 16 18  1  0  0  0  0
 16 17  1  6  0  0  0
 18  2  1  6  0  0  0
 18 19  1  0  0  0  0
 19 21  1  0  0  0  0
 19 20  1  1  0  0  0
 21 22  1  6  0  0  0
 23 20  1  6  0  0  0
 23 29  1  0  0  0  0
 23 24  1  0  0  0  0
 24 26  1  0  0  0  0
 24 25  1  1  0  0  0
 26 27  1  1  0  0  0
 28 26  1  0  0  0  0
 28 30  1  6  0  0  0
 29 28  1  0  0  0  0
 30 31  1  0  0  0  0
 32 27  1  1  0  0  0
 32 40  1  0  0  0  0
 32 33  1  0  0  0  0
 33 35  1  0  0  0  0
 33 34  1  1  0  0  0
 35 37  1  0  0  0  0
 35 36  1  1  0  0  0
 37 38  1  1  0  0  0
 39 37  1  0  0  0  0
 39 41  1  1  0  0  0
 40 39  1  0  0  0  0
 42 41  1  0  0  0  0
M  END
>  <CHROM.1>
61.41780291,-177.44220328,165.95176161,-65.45405133,-49.32591029,172.83510047
-169.42031115,48.74452333,-135.71986521,-98.40511198,153.33580535,178.75322068
173.35695398,49.85025003,179.61881126,174.39035177,-172.25665887,-78.87545420
60.59460757,63.36599929,149.11187453,-85.17377346,-0.74658868,2.65420837
3.32195526,-1.95152063,1.22872927,1.43653323

>  <Name>
lig.pdb

>  <RI>
224

>  <Rbt.Current_Directory>
/home/itssahil/PROJECTS/Mol_Feturizer/New_Systems/rnas/2mxs

>  <Rbt.Executable>
rbdock ($Id: //depot/dev/client3/rdock/2013.1/src/exe/rbdock.cxx#4 $)

>  <Rbt.Library>
libRbt.so (2013.1, Build901 2013/11/27)

>  <Rbt.Parameter_File>
/export/apps/rDock/src/rDock_2013.1_src/data/scripts/dock_solv.prm

>  <Rbt.Receptor>
prm/pocket_docking_2.prm

>  <SCORE>
-13.7301

>  <SCORE.INTER>
-15.3075

>  <SCORE.INTER.CONST>
1

>  <SCORE.INTER.POLAR>
-1.93166

>  <SCORE.INTER.ROT>
9

>  <SCORE.INTER.SOLV>
10.7474

>  <SCORE.INTER.VDW>
-16.9486

>  <SCORE.INTER.norm>
-0.364463

>  <SCORE.INTRA>
-2.02515

>  <SCORE.INTRA.DIHEDRAL>
-10.0221

>  <SCORE.INTRA.DIHEDRAL.0>
30.1357

>  <SCORE.INTRA.POLAR>
-1.29129

>  <SCORE.INTRA.POLAR.0>
-0.631696

>  <SCORE.INTRA.REPUL>
0.00591081

>  <SCORE.INTRA.REPUL.0>
0

>  <SCORE.INTRA.SOLV>
2.12127

>  <SCORE.INTRA.SOLV.lig_0>
-55.904

>  <SCORE.INTRA.VDW>
6.28609

>  <SCORE.INTRA.VDW.0>
-8.21197

>  <SCORE.INTRA.norm>
-0.0482178

>  <SCORE.RESTR>
3.60247

>  <SCORE.RESTR.CAVITY>
3.60247

>  <SCORE.RESTR.norm>
0.0857732

>  <SCORE.SYSTEM>
0

>  <SCORE.SYSTEM.CONST>
0

>  <SCORE.SYSTEM.DIHEDRAL>
0

>  <SCORE.SYSTEM.SOLV>
0

>  <SCORE.SYSTEM.norm>
0

>  <SCORE.heavy>
42

>  <SCORE.norm>
-0.326908

>  <RMSD>
3.454

$$$$
lig.pdb
 OpenBabel11021811453D
libRbt.so/2013.1/901 2013/11/27
 42 45  0  0  0  0  0  0  0  0999 V2000
   -0.7426    4.2521    1.3530 C   0  0  2  0  0  0  0  0  0  0  0  0
   -1.9003    3.7630    0.6732 O   0  0  0  0  0  0  0  0  0  0  0  0
   -0.5254    5.7442    1.0596 C   0  0  2  0  0  0  0  0  0  0  0  0
   -1.7313    6.5283    1.3840 N   0  0  0  0  0  0  0  0  0  0  0  0
   -0.1027    5.9620   -0.3990 C   0  0  1  0  0  0  0  0  0  0  0  0
    0.2353    7.3221   -0.5920 O   0  0  0  0  0  0  0  0  0  0  0  0
    1.1105    5.0830   -0.7383 C   0  0  2  0  0  0  0  0  0  0  0  0
    1.3853    5.1780   -2.1229 O   0  0  0  0  0  0  0  0  0  0  0  0
    0.8663    3.6094   -0.3545 C   0  0  2  0  0  0  0  0  0  0  0  0
    0.4109    3.4959    0.9934 O   0  0  0  0  0  0  0  0  0  0  0  0
    2.1933    2.8448   -0.5215 C   0  0  0  0  0  0  0  0  0  0  0  0
    2.7611    3.0163   -1.8475 O   0  0  0  0  0  0  0  0  0  0  0  0
   -4.6318    0.5815    1.6465 C   0  0  2  0  0  0  0  0  0  0  0  0
   -4.9618   -0.7230    2.2547 N   0  0  0  0  0  0  0  0  0  0  0  0
   -3.5586    0.4096    0.5686 C   0  0  0  0  0  0  0  0  0  0  0  0
   -3.1115    1.7655    0.0352 C   0  0  2  0  0  0  0  0  0  0  0  0
   -2.1555    1.5873   -1.0649 N   0  0  0  0  0  0  0  0  0  0  0  0
   -2.5050    2.5752    1.2048 C   0  0  2  0  0  0  0  0  0  0  0  0
   -3.5934    2.8814    2.1831 C   0  0  2  0  0  0  0  0  0  0  0  0
   -3.0266    3.6574    3.2229 O   0  0  0  0  0  0  0  0  0  0  0  0
   -4.1759    1.5877    2.7199 C   0  0  1  0  0  0  0  0  0  0  0  0
   -5.2691    1.8172    3.5890 O   0  0  0  0  0  0  0  0  0  0  0  0
   -2.1065    3.0180    4.1013 C   0  0  1  0  0  0  0  0  0  0  0  0
   -1.0668    4.0571    4.5263 C   0  0  2  0  0  0  0  0  0  0  0  0
    0.1959    3.4309    4.6535 O   0  0  0  0  0  0  0  0  0  0  0  0
   -1.6244    4.5535    5.8671 C   0  0  2  0  0  0  0  0  0  0  0  0
   -0.6277    5.1593    6.6907 O   0  0  0  0  0  0  0  0  0  0  0  0
   -2.2041    3.2437    6.4152 C   0  0  2  0  0  0  0  0  0  0  0  0
   -2.7811    2.6069    5.2837 O   0  0  0  0  0  0  0  0  0  0  0  0
   -3.2846    3.4292    7.4869 C   0  0  0  0  0  0  0  0  0  0  0  0
   -4.4048    4.1238    6.9813 O   0  0  0  0  0  0  0  0  0  0  0  0
   -1.1196    6.1584    7.5817 C   0  0  2  0  0  0  0  0  0  0  0  0
   -0.7150    7.5713    7.1343 C   0  0  2  0  0  0  0  0  0  0  0  0
   -1.1469    7.8290    5.7505 N   0  0  0  0  0  0  0  0  0  0  0  0
    0.7954    7.7948    7.3028 C   0  0  1  0  0  0  0  0  0  0  0  0
    1.0948    9.1338    6.9589 O   0  0  0  0  0  0  0  0  0  0  0  0
    1.1655    7.5289    8.7719 C   0  0  2  0  0  0  0  0  0  0  0  0
    2.5588    7.6797    8.9731 O   0  0  0  0  0  0  0  0  0  0  0  0
    0.7064    6.1235    9.2119 C   0  0  1  0  0  0  0  0  0  0  0  0
   -0.6745    5.9066    8.9127 O   0  0  0  0  0  0  0  0  0  0  0  0
    1.5952    4.9949    8.6688 C   0  0  0  0  0  0  0  0  0  0  0  0
    0.8414    3.7385    8.5298 N   0  0  0  0  0  0  0  0  0  0  0  0
  1  3  1  0  0  0  0
  1  2  1  6  0  0  0
  3  4  1  6  0  0  0
  5  6  1  1  0  0  0
  5  3  1  0  0  0  0
  7  9  1  0  0  0  0
  7  5  1  0  0  0  0
  7  8  1  6  0  0  0
  9 10  1  0  0  0  0
  9 11  1  1  0  0  0
 10  1  1  0  0  0  0
 11 12  1  0  0  0  0
 13 14  1  1  0  0  0
 13 21  1  0  0  0  0
 15 13  1  0  0  0  0
 16 15  1  0  0  0  0
 16 18  1  0  0  0  0
 16 17  1  6  0  0  0
 18  2  1  6  0  0  0
 18 19  1  0  0  0  0
 19 21  1  0  0  0  0
 19 20  1  1  0  0  0
 21 22  1  1  0  0  0
 23 20  1  6  0  0  0
 23 29  1  0  0  0  0
 23 24  1  0  0  0  0
 24 26  1  0  0  0  0
 24 25  1  1  0  0  0
 26 27  1  1  0  0  0
 28 26  1  0  0  0  0
 28 30  1  1  0  0  0
 29 28  1  0  0  0  0
 30 31  1  0  0  0  0
 32 27  1  6  0  0  0
 32 40  1  0  0  0  0
 32 33  1  0  0  0  0
 33 35  1  0  0  0  0
 33 34  1  6  0  0  0
 35 37  1  0  0  0  0
 35 36  1  1  0  0  0
 37 38  1  6  0  0  0
 39 37  1  0  0  0  0
 39 41  1  6  0  0  0
 40 39  1  0  0  0  0
 42 41  1  0  0  0  0
M  END
>  <CHROM.1>
-147.42939677,-158.05469153,-25.66759553,-159.46181204,-174.50186544,-176.44129671
-53.86389920,62.05681612,-66.25293990,-69.23600261,146.90080521,-67.17048185
169.59918504,151.47644320,-107.32351323,61.78496030,64.86591885,-54.03782122
56.83884223,178.98051478,-152.56640973,-172.41240470,-1.07681771,4.32281521
3.67866097,-1.79630054,0.72445367,1.30669176

>  <Name>
lig.pdb

>  <RI>
3.99633e+07

>  <Rbt.Current_Directory>
/home/itssahil/PROJECTS/Mol_Feturizer/New_Systems/rnas/2mxs

>  <Rbt.Executable>
rbdock ($Id: //depot/dev/client3/rdock/2013.1/src/exe/rbdock.cxx#4 $)

>  <Rbt.Library>
libRbt.so (2013.1, Build901 2013/11/27)

>  <Rbt.Parameter_File>
/export/apps/rDock/src/rDock_2013.1_src/data/scripts/dock_solv.prm

>  <Rbt.Receptor>
prm/pocket_docking_5.prm

>  <SCORE>
-30.1137

>  <SCORE.INTER>
-27.99

>  <SCORE.INTER.CONST>
1

>  <SCORE.INTER.POLAR>
-4.58552

>  <SCORE.INTER.ROT>
9

>  <SCORE.INTER.SOLV>
14.8038

>  <SCORE.INTER.VDW>
-17.9095

>  <SCORE.INTER.norm>
-0.666428

>  <SCORE.INTRA>
-2.12371

>  <SCORE.INTRA.DIHEDRAL>
-1.17094

>  <SCORE.INTRA.DIHEDRAL.0>
30.1357

>  <SCORE.INTRA.POLAR>
-1.08204

>  <SCORE.INTRA.POLAR.0>
-0.631696

>  <SCORE.INTRA.REPUL>
0

>  <SCORE.INTRA.REPUL.0>
0

>  <SCORE.INTRA.SOLV>
0.535029

>  <SCORE.INTRA.SOLV.lig_0>
-55.904

>  <SCORE.INTRA.VDW>
1.87318

>  <SCORE.INTRA.VDW.0>
-8.21197

>  <SCORE.INTRA.norm>
-0.0505646

>  <SCORE.RESTR>
0

>  <SCORE.RESTR.CAVITY>
0

>  <SCORE.RESTR.norm>
0

>  <SCORE.SYSTEM>
0

>  <SCORE.SYSTEM.CONST>
0

>  <SCORE.SYSTEM.DIHEDRAL>
0

>  <SCORE.SYSTEM.SOLV>
0

>  <SCORE.SYSTEM.norm>
0

>  <SCORE.heavy>
42

>  <SCORE.norm>
-0.716992

>  <RMSD>
3.473

$$$$
lig.pdb
 OpenBabel11021811453D
libRbt.so/2013.1/901 2013/11/27
 42 45  0  0  0  0  0  0  0  0999 V2000
   -1.0642    3.0247    0.8200 C   0  0  2  0  0  0  0  0  0  0  0  0
   -1.7917    2.4411   -0.2624 O   0  0  0  0  0  0  0  0  0  0  0  0
   -0.7227    4.4924    0.5214 C   0  0  2  0  0  0  0  0  0  0  0  0
   -1.9368    5.2614    0.1910 N   0  0  0  0  0  0  0  0  0  0  0  0
    0.3182    4.5975   -0.6006 C   0  0  1  0  0  0  0  0  0  0  0  0
    0.7204    5.9464   -0.7433 O   0  0  0  0  0  0  0  0  0  0  0  0
    1.5446    3.7329   -0.2714 C   0  0  2  0  0  0  0  0  0  0  0  0
    2.4190    3.7174   -1.3835 O   0  0  0  0  0  0  0  0  0  0  0  0
    1.1382    2.2907    0.0934 C   0  0  2  0  0  0  0  0  0  0  0  0
    0.1194    2.2788    1.0928 O   0  0  0  0  0  0  0  0  0  0  0  0
    2.3887    1.5586    0.6165 C   0  0  0  0  0  0  0  0  0  0  0  0
    3.4292    1.4621   -0.3927 O   0  0  0  0  0  0  0  0  0  0  0  0
   -4.8613   -0.5760   -0.3395 C   0  0  2  0  0  0  0  0  0  0  0  0
   -5.5482   -1.7616    0.2106 N   0  0  0  0  0  0  0  0  0  0  0  0
   -3.4049   -0.9111   -0.6709 C   0  0  0  0  0  0  0  0  0  0  0  0
   -2.6516    0.3404   -1.1060 C   0  0  2  0  0  0  0  0  0  0  0  0
   -1.2850   -0.0071   -1.5153 N   0  0  0  0  0  0  0  0  0  0  0  0
   -2.6671    1.3518    0.0637 C   0  0  2  0  0  0  0  0  0  0  0  0
   -4.0761    1.8017    0.2820 C   0  0  2  0  0  0  0  0  0  0  0  0
   -4.0620    2.7566    1.3273 O   0  0  0  0  0  0  0  0  0  0  0  0
   -4.9427    0.6094    0.6407 C   0  0  1  0  0  0  0  0  0  0  0  0
   -6.3059    0.9648    0.7766 O   0  0  0  0  0  0  0  0  0  0  0  0
   -4.4468    2.3222    2.6273 C   0  0  1  0  0  0  0  0  0  0  0  0
   -3.3401    1.4110    3.1624 C   0  0  2  0  0  0  0  0  0  0  0  0
   -3.9189    0.3742    3.9323 O   0  0  0  0  0  0  0  0  0  0  0  0
   -2.4939    2.3770    4.0026 C   0  0  2  0  0  0  0  0  0  0  0  0
   -1.6958    1.7075    4.9791 O   0  0  0  0  0  0  0  0  0  0  0  0
   -3.6010    3.2693    4.5773 C   0  0  2  0  0  0  0  0  0  0  0  0
   -4.5160    3.4399    3.5039 O   0  0  0  0  0  0  0  0  0  0  0  0
   -3.1227    4.6479    5.0476 C   0  0  0  0  0  0  0  0  0  0  0  0
   -4.2015    5.4599    5.4598 O   0  0  0  0  0  0  0  0  0  0  0  0
   -2.4026    1.3065    6.1511 C   0  0  2  0  0  0  0  0  0  0  0  0
   -1.6756    1.7413    7.4328 C   0  0  2  0  0  0  0  0  0  0  0  0
   -1.4251    3.1922    7.4293 N   0  0  0  0  0  0  0  0  0  0  0  0
   -0.3758    0.9467    7.6295 C   0  0  1  0  0  0  0  0  0  0  0  0
    0.2032    1.3264    8.8629 O   0  0  0  0  0  0  0  0  0  0  0  0
   -0.7198   -0.5524    7.6441 C   0  0  2  0  0  0  0  0  0  0  0  0
    0.4525   -1.3344    7.7803 O   0  0  0  0  0  0  0  0  0  0  0  0
   -1.4912   -0.9550    6.3704 C   0  0  1  0  0  0  0  0  0  0  0  0
   -2.6176   -0.1030    6.1497 O   0  0  0  0  0  0  0  0  0  0  0  0
   -0.5982   -1.0593    5.1252 C   0  0  0  0  0  0  0  0  0  0  0  0
    0.3383   -2.1900    5.2303 N   0  0  0  0  0  0  0  0  0  0  0  0
  1  3  1  0  0  0  0
  1  2  1  6  0  0  0
  3  4  1  6  0  0  0
  5  6  1  1  0  0  0
  5  3  1  0  0  0  0
  7  9  1  0  0  0  0
  7  5  1  0  0  0  0
  7  8  1  6  0  0  0
  9 10  1  0  0  0  0
  9 11  1  1  0  0  0
 10  1  1  0  0  0  0
 11 12  1  0  0  0  0
 13 14  1  1  0  0  0
 13 21  1  0  0  0  0
 15 13  1  0  0  0  0
 16 15  1  0  0  0  0
 16 18  1  0  0  0  0
 16 17  1  1  0  0  0
 18  2  1  6  0  0  0
 18 19  1  0  0  0  0
 19 21  1  0  0  0  0
 19 20  1  1  0  0  0
 21 22  1  6  0  0  0
 23 20  1  6  0  0  0
 23 29  1  0  0  0  0
 23 24  1  0  0  0  0
 24 26  1  0  0  0  0
 24 25  1  1  0  0  0
 26 27  1  1  0  0  0
 28 26  1  0  0  0  0
 28 30  1  6  0  0  0
 29 28  1  0  0  0  0
 30 31  1  0  0  0  0
 32 27  1  6  0  0  0
 32 40  1  0  0  0  0
 32 33  1  0  0  0  0
 33 35  1  0  0  0  0
 33 34  1  6  0  0  0
 35 37  1  0  0  0  0
 35 36  1  1  0  0  0
 37 38  1  6  0  0  0
 39 37  1  0  0  0  0
 39 41  1  6  0  0  0
 40 39  1  0  0  0  0
 42 41  1  0  0  0  0
M  END
>  <CHROM.1>
-144.79281068,-153.17361302,-177.92352552,-175.84682797,-60.14729973,-64.38973819
-62.37594020,-23.54212873,-54.29216297,-100.64445274,70.69511663,59.53859572
-170.33356289,-78.86503932,-130.44838242,175.04529820,-160.97684874,59.72810243
-67.91445283,67.96647180,67.94368498,165.71651436,-1.75588924,1.73544139
2.68512932,-1.50044136,0.30551386,1.78659188

>  <Name>
lig.pdb

>  <RI>
0

>  <Rbt.Current_Directory>
/home/itssahil/PROJECTS/Mol_Feturizer/New_Systems/rnas/2mxs

>  <Rbt.Executable>
rbdock ($Id: //depot/dev/client3/rdock/2013.1/src/exe/rbdock.cxx#4 $)

>  <Rbt.Library>
libRbt.so (2013.1, Build901 2013/11/27)

>  <Rbt.Parameter_File>
/export/apps/rDock/src/rDock_2013.1_src/data/scripts/dock_solv.prm

>  <Rbt.Receptor>
prm/pocket_docking_7.prm

>  <SCORE>
-35.3378

>  <SCORE.INTER>
-39.6708

>  <SCORE.INTER.CONST>
1

>  <SCORE.INTER.POLAR>
-5.388

>  <SCORE.INTER.ROT>
9

>  <SCORE.INTER.SOLV>
21.4297

>  <SCORE.INTER.VDW>
-25.2305

>  <SCORE.INTER.norm>
-0.944543

>  <SCORE.INTRA>
4.333

>  <SCORE.INTRA.DIHEDRAL>
-1.38252

>  <SCORE.INTRA.DIHEDRAL.0>
30.1357

>  <SCORE.INTRA.POLAR>
-0.289954

>  <SCORE.INTRA.POLAR.0>
-0.631696

>  <SCORE.INTRA.REPUL>
7.94573e-05

>  <SCORE.INTRA.REPUL.0>
0

>  <SCORE.INTRA.SOLV>
1.16529

>  <SCORE.INTRA.SOLV.lig_0>
-55.904

>  <SCORE.INTRA.VDW>
5.42706

>  <SCORE.INTRA.VDW.0>
-8.21197

>  <SCORE.INTRA.norm>
0.103167

>  <SCORE.RESTR>
0

>  <SCORE.RESTR.CAVITY>
0

>  <SCORE.RESTR.norm>
0

>  <SCORE.SYSTEM>
0

>  <SCORE.SYSTEM.CONST>
0

>  <SCORE.SYSTEM.DIHEDRAL>
0

>  <SCORE.SYSTEM.SOLV>
0

>  <SCORE.SYSTEM.norm>
0

>  <SCORE.heavy>
42

>  <SCORE.norm>
-0.841377

>  <RMSD>
3.505

$$$$
lig.pdb
 OpenBabel11021811453D
libRbt.so/2013.1/901 2013/11/27
 42 45  0  0  0  0  0  0  0  0999 V2000
   -0.8017    3.2595    3.1465 C   0  0  2  0  0  0  0  0  0  0  0  0
   -1.7646    2.2747    2.7665 O   0  0  0  0  0  0  0  0  0  0  0  0
   -1.4540    4.6452    3.2651 C   0  0  2  0  0  0  0  0  0  0  0  0
   -2.6052    4.6111    4.1860 N   0  0  0  0  0  0  0  0  0  0  0  0
   -1.8665    5.1785    1.8870 C   0  0  1  0  0  0  0  0  0  0  0  0
   -2.3207    6.5122    2.0162 O   0  0  0  0  0  0  0  0  0  0  0  0
   -0.6723    5.1388    0.9217 C   0  0  2  0  0  0  0  0  0  0  0  0
   -1.1096    5.4828   -0.3790 O   0  0  0  0  0  0  0  0  0  0  0  0
   -0.0099    3.7463    0.8986 C   0  0  2  0  0  0  0  0  0  0  0  0
    0.2807    3.2911    2.2197 O   0  0  0  0  0  0  0  0  0  0  0  0
    1.2944    3.8498    0.0852 C   0  0  0  0  0  0  0  0  0  0  0  0
    2.1701    4.8956    0.5851 O   0  0  0  0  0  0  0  0  0  0  0  0
   -1.4688   -1.9907    2.2666 C   0  0  2  0  0  0  0  0  0  0  0  0
   -0.7070   -3.2331    2.0287 N   0  0  0  0  0  0  0  0  0  0  0  0
   -1.3132   -1.0359    1.0804 C   0  0  0  0  0  0  0  0  0  0  0  0
   -1.9789    0.3025    1.3776 C   0  0  2  0  0  0  0  0  0  0  0  0
   -1.9101    1.1757    0.1992 N   0  0  0  0  0  0  0  0  0  0  0  0
   -1.2835    0.9321    2.6070 C   0  0  2  0  0  0  0  0  0  0  0  0
   -1.5714    0.0803    3.8016 C   0  0  2  0  0  0  0  0  0  0  0  0
   -0.9618    0.6958    4.9215 O   0  0  0  0  0  0  0  0  0  0  0  0
   -1.0222   -1.3158    3.5772 C   0  0  1  0  0  0  0  0  0  0  0  0
   -1.3405   -2.1900    4.6437 O   0  0  0  0  0  0  0  0  0  0  0  0
   -1.8053    1.1114    5.9905 C   0  0  1  0  0  0  0  0  0  0  0  0
   -1.3333    0.4018    7.2614 C   0  0  2  0  0  0  0  0  0  0  0  0
   -2.4545    0.0863    8.0652 O   0  0  0  0  0  0  0  0  0  0  0  0
   -0.4146    1.4500    7.9035 C   0  0  2  0  0  0  0  0  0  0  0  0
   -0.2293    1.2400    9.3036 O   0  0  0  0  0  0  0  0  0  0  0  0
   -1.1768    2.7301    7.5394 C   0  0  2  0  0  0  0  0  0  0  0  0
   -1.6405    2.5058    6.2154 O   0  0  0  0  0  0  0  0  0  0  0  0
   -0.3221    4.0028    7.5587 C   0  0  0  0  0  0  0  0  0  0  0  0
   -1.0108    5.1003    6.9981 O   0  0  0  0  0  0  0  0  0  0  0  0
    0.8429    1.9835    9.8794 C   0  0  2  0  0  0  0  0  0  0  0  0
    1.4465    1.2654   11.0960 C   0  0  2  0  0  0  0  0  0  0  0  0
    1.8707   -0.1000   10.7442 N   0  0  0  0  0  0  0  0  0  0  0  0
    0.4679    1.2627   12.2800 C   0  0  1  0  0  0  0  0  0  0  0  0
    1.1072    0.6679   13.3929 O   0  0  0  0  0  0  0  0  0  0  0  0
    0.0892    2.7185   12.6013 C   0  0  2  0  0  0  0  0  0  0  0  0
   -0.8477    2.7704   13.6614 O   0  0  0  0  0  0  0  0  0  0  0  0
   -0.4690    3.4327   11.3532 C   0  0  1  0  0  0  0  0  0  0  0  0
    0.4101    3.2949   10.2344 O   0  0  0  0  0  0  0  0  0  0  0  0
   -1.9070    3.0190   11.0071 C   0  0  0  0  0  0  0  0  0  0  0  0
   -2.5730    4.0368   10.1784 N   0  0  0  0  0  0  0  0  0  0  0  0
  1  3  1  0  0  0  0
  1  2  1  6  0  0  0
  3  4  1  1  0  0  0
  5  6  1  1  0  0  0
  5  3  1  0  0  0  0
  7  9  1  0  0  0  0
  7  5  1  0  0  0  0
  7  8  1  6  0  0  0
  9 10  1  0  0  0  0
  9 11  1  6  0  0  0
 10  1  1  0  0  0  0
 11 12  1  0  0  0  0
 13 14  1  6  0  0  0
 13 21  1  0  0  0  0
 15 13  1  0  0  0  0
 16 15  1  0  0  0  0
 16 18  1  0  0  0  0
 16 17  1  6  0  0  0
 18  2  1  1  0  0  0
 18 19  1  0  0  0  0
 19 21  1  0  0  0  0
 19 20  1  1  0  0  0
 21 22  1  1  0  0  0
 23 20  1  6  0  0  0
 23 29  1  0  0  0  0
 23 24  1  0  0  0  0
 24 26  1  0  0  0  0
 24 25  1  1  0  0  0
 26 27  1  1  0  0  0
 28 26  1  0  0  0  0
 28 30  1  6  0  0  0
 29 28  1  0  0  0  0
 30 31  1  0  0  0  0
 32 27  1  1  0  0  0
 32 40  1  0  0  0  0
 32 33  1  0  0  0  0
 33 35  1  0  0  0  0
 33 34  1  6  0  0  0
 35 37  1  0  0  0  0
 35 36  1  1  0  0  0
 37 38  1  1  0  0  0
 39 37  1  0  0  0  0
 39 41  1  6  0  0  0
 40 39  1  0  0  0  0
 42 41  1  0  0  0  0
M  END
>  <CHROM.1>
-140.34464302,179.42370437,179.29859504,-72.37279666,-176.94245535,-64.19434665
54.31937111,127.60307224,-160.84527417,118.87050001,121.94721584,-64.28600773
88.54456434,166.13743436,-151.46788905,169.84592233,64.99970548,91.07925082
59.87408440,167.63156950,158.42942538,-47.13122158,-0.78032911,2.14619124
5.75666240,-3.02575365,1.49268865,3.09282719

>  <Name>
lig.pdb

>  <RI>
0

>  <Rbt.Current_Directory>
/home/itssahil/PROJECTS/Mol_Feturizer/New_Systems/rnas/2mxs

>  <Rbt.Executable>
rbdock ($Id: //depot/dev/client3/rdock/2013.1/src/exe/rbdock.cxx#4 $)

>  <Rbt.Library>
libRbt.so (2013.1, Build901 2013/11/27)

>  <Rbt.Parameter_File>
/export/apps/rDock/src/rDock_2013.1_src/data/scripts/dock_solv.prm

>  <Rbt.Receptor>
prm/pocket_docking_3.prm

>  <SCORE>
14.364

>  <SCORE.INTER>
5.31006

>  <SCORE.INTER.CONST>
1

>  <SCORE.INTER.POLAR>
-0.767899

>  <SCORE.INTER.ROT>
9

>  <SCORE.INTER.SOLV>
13.3115

>  <SCORE.INTER.VDW>
-7.93747

>  <SCORE.INTER.norm>
0.12643

>  <SCORE.INTRA>
5.17482

>  <SCORE.INTRA.DIHEDRAL>
7.98499

>  <SCORE.INTRA.DIHEDRAL.0>
30.1357

>  <SCORE.INTRA.POLAR>
-0.284256

>  <SCORE.INTRA.POLAR.0>
-0.631696

>  <SCORE.INTRA.REPUL>
0

>  <SCORE.INTRA.REPUL.0>
0

>  <SCORE.INTRA.SOLV>
0.259439

>  <SCORE.INTRA.SOLV.lig_0>
-55.904

>  <SCORE.INTRA.VDW>
2.01907

>  <SCORE.INTRA.VDW.0>
-8.21197

>  <SCORE.INTRA.norm>
0.12321

>  <SCORE.RESTR>
3.87916

>  <SCORE.RESTR.CAVITY>
3.87916

>  <SCORE.RESTR.norm>
0.092361

>  <SCORE.SYSTEM>
0

>  <SCORE.SYSTEM.CONST>
0

>  <SCORE.SYSTEM.DIHEDRAL>
0

>  <SCORE.SYSTEM.SOLV>
0

>  <SCORE.SYSTEM.norm>
0

>  <SCORE.heavy>
42

>  <SCORE.norm>
0.342001

>  <RMSD>
3.510

$$$$
lig.pdb
 OpenBabel11021811453D
libRbt.so/2013.1/901 2013/11/27
 42 45  0  0  0  0  0  0  0  0999 V2000
   -0.3207    5.0424   -0.1707 C   0  0  2  0  0  0  0  0  0  0  0  0
    0.7078    4.4586    0.6311 O   0  0  0  0  0  0  0  0  0  0  0  0
   -0.3805    6.5631    0.0382 C   0  0  2  0  0  0  0  0  0  0  0  0
    0.9343    7.1832   -0.2090 N   0  0  0  0  0  0  0  0  0  0  0  0
   -0.8958    6.9054    1.4420 C   0  0  1  0  0  0  0  0  0  0  0  0
   -1.0825    8.3040    1.5457 O   0  0  0  0  0  0  0  0  0  0  0  0
   -2.2305    6.1928    1.7074 C   0  0  2  0  0  0  0  0  0  0  0  0
   -2.6081    6.3924    3.0561 O   0  0  0  0  0  0  0  0  0  0  0  0
   -2.1342    4.6826    1.4102 C   0  0  2  0  0  0  0  0  0  0  0  0
   -1.5833    4.4457    0.1150 O   0  0  0  0  0  0  0  0  0  0  0  0
   -3.5530    4.0875    1.4889 C   0  0  0  0  0  0  0  0  0  0  0  0
   -4.1710    4.3143    2.7839 O   0  0  0  0  0  0  0  0  0  0  0  0
   -0.0318    0.2583    0.0469 C   0  0  2  0  0  0  0  0  0  0  0  0
    0.3807   -1.1595    0.0582 N   0  0  0  0  0  0  0  0  0  0  0  0
    0.8387    1.0578   -0.9258 C   0  0  0  0  0  0  0  0  0  0  0  0
    0.5140    2.5444   -0.8394 C   0  0  2  0  0  0  0  0  0  0  0  0
    1.2825    3.2904   -1.8438 N   0  0  0  0  0  0  0  0  0  0  0  0
    0.8156    3.0280    0.5981 C   0  0  2  0  0  0  0  0  0  0  0  0
   -0.1452    2.3647    1.5322 C   0  0  2  0  0  0  0  0  0  0  0  0
    0.1204    2.8522    2.8346 O   0  0  0  0  0  0  0  0  0  0  0  0
    0.0328    0.8598    1.4634 C   0  0  1  0  0  0  0  0  0  0  0  0
   -0.9105    0.1757    2.2667 O   0  0  0  0  0  0  0  0  0  0  0  0
   -0.6820    2.3607    3.9030 C   0  0  1  0  0  0  0  0  0  0  0  0
    0.1767    2.3573    5.1694 C   0  0  2  0  0  0  0  0  0  0  0  0
   -0.1656    1.2373    5.9640 O   0  0  0  0  0  0  0  0  0  0  0  0
   -0.1984    3.6923    5.8268 C   0  0  2  0  0  0  0  0  0  0  0  0
    0.0860    3.7193    7.2258 O   0  0  0  0  0  0  0  0  0  0  0  0
   -1.6889    3.7543    5.4710 C   0  0  2  0  0  0  0  0  0  0  0  0
   -1.7603    3.2564    4.1423 O   0  0  0  0  0  0  0  0  0  0  0  0
   -2.2902    5.1641    5.5074 C   0  0  0  0  0  0  0  0  0  0  0  0
   -3.6665    5.1507    5.1929 O   0  0  0  0  0  0  0  0  0  0  0  0
    0.7290    4.9090    7.6788 C   0  0  2  0  0  0  0  0  0  0  0  0
    2.1832    4.6470    8.0994 C   0  0  2  0  0  0  0  0  0  0  0  0
    2.9404    4.0120    7.0079 N   0  0  0  0  0  0  0  0  0  0  0  0
    2.2459    3.8121    9.3872 C   0  0  1  0  0  0  0  0  0  0  0  0
    3.6003    3.6766    9.7720 O   0  0  0  0  0  0  0  0  0  0  0  0
    1.4543    4.5470   10.4823 C   0  0  2  0  0  0  0  0  0  0  0  0
    1.4442    3.7966   11.6828 O   0  0  0  0  0  0  0  0  0  0  0  0
    0.0128    4.8418   10.0188 C   0  0  1  0  0  0  0  0  0  0  0  0
   -0.0046    5.4992    8.7496 O   0  0  0  0  0  0  0  0  0  0  0  0
   -0.8974    3.6049   10.0367 C   0  0  0  0  0  0  0  0  0  0  0  0
   -1.3787    3.3131   11.3967 N   0  0  0  0  0  0  0  0  0  0  0  0
  1  3  1  0  0  0  0
  1  2  1  1  0  0  0
  3  4  1  1  0  0  0
  5  6  1  6  0  0  0
  5  3  1  0  0  0  0
  7  9  1  0  0  0  0
  7  5  1  0  0  0  0
  7  8  1  1  0  0  0
  9 10  1  0  0  0  0
  9 11  1  6  0  0  0
 10  1  1  0  0  0  0
 11 12  1  0  0  0  0
 13 14  1  1  0  0  0
 13 21  1  0  0  0  0
 15 13  1  0  0  0  0
 16 15  1  0  0  0  0
 16 18  1  0  0  0  0
 16 17  1  6  0  0  0
 18  2  1  6  0  0  0
 18 19  1  0  0  0  0
 19 21  1  0  0  0  0
 19 20  1  1  0  0  0
 21 22  1  1  0  0  0
 23 20  1  6  0  0  0
 23 29  1  0  0  0  0
 23 24  1  0  0  0  0
 24 26  1  0  0  0  0
 24 25  1  1  0  0  0
 26 27  1  1  0  0  0
 28 26  1  0  0  0  0
 28 30  1  6  0  0  0
 29 28  1  0  0  0  0
 30 31  1  0  0  0  0
 32 27  1  1  0  0  0
 32 40  1  0  0  0  0
 32 33  1  0  0  0  0
 33 35  1  0  0  0  0
 33 34  1  6  0  0  0
 35 37  1  0  0  0  0
 35 36  1  1  0  0  0
 37 38  1  1  0  0  0
 39 37  1  0  0  0  0
 39 41  1  6  0  0  0
 40 39  1  0  0  0  0
 42 41  1  0  0  0  0
M  END
>  <CHROM.1>
36.94339796,176.05607314,-95.70038024,-71.43987448,65.66258196,-54.95762636
-57.84998146,-172.05934594,17.49501676,179.78537483,149.18130507,-68.50917023
-60.39951715,134.75710822,-110.72750197,-179.02133809,179.07001085,170.51506612
175.95804136,-46.60921153,79.60147621,-165.68113463,-0.29936327,3.84033857
4.12153458,1.84375581,1.10248594,-1.86077883

>  <Name>
lig.pdb

>  <RI>
4.11275e+07

>  <Rbt.Current_Directory>
/home/itssahil/PROJECTS/Mol_Feturizer/New_Systems/rnas/2mxs

>  <Rbt.Executable>
rbdock ($Id: //depot/dev/client3/rdock/2013.1/src/exe/rbdock.cxx#4 $)

>  <Rbt.Library>
libRbt.so (2013.1, Build901 2013/11/27)

>  <Rbt.Parameter_File>
/export/apps/rDock/src/rDock_2013.1_src/data/scripts/dock_solv.prm

>  <Rbt.Receptor>
prm/pocket_docking_8.prm

>  <SCORE>
-41.2435

>  <SCORE.INTER>
-45.3506

>  <SCORE.INTER.CONST>
1

>  <SCORE.INTER.POLAR>
-6.39421

>  <SCORE.INTER.ROT>
9

>  <SCORE.INTER.SOLV>
15.3254

>  <SCORE.INTER.VDW>
-23.6282

>  <SCORE.INTER.norm>
-1.07978

>  <SCORE.INTRA>
4.10713

>  <SCORE.INTRA.DIHEDRAL>
-1.07668

>  <SCORE.INTRA.DIHEDRAL.0>
30.1357

>  <SCORE.INTRA.POLAR>
-0.668499

>  <SCORE.INTRA.POLAR.0>
-0.631696

>  <SCORE.INTRA.REPUL>
0.122489

>  <SCORE.INTRA.REPUL.0>
0

>  <SCORE.INTRA.SOLV>
3.26729

>  <SCORE.INTRA.SOLV.lig_0>
-55.904

>  <SCORE.INTRA.VDW>
4.67227

>  <SCORE.INTRA.VDW.0>
-8.21197

>  <SCORE.INTRA.norm>
0.0977887

>  <SCORE.RESTR>
0

>  <SCORE.RESTR.CAVITY>
0

>  <SCORE.RESTR.norm>
0

>  <SCORE.SYSTEM>
0

>  <SCORE.SYSTEM.CONST>
0

>  <SCORE.SYSTEM.DIHEDRAL>
0

>  <SCORE.SYSTEM.SOLV>
0

>  <SCORE.SYSTEM.norm>
0

>  <SCORE.heavy>
42

>  <SCORE.norm>
-0.981987

>  <RMSD>
3.512

$$$$
lig.pdb
 OpenBabel11021811453D
libRbt.so/2013.1/901 2013/11/27
 42 45  0  0  0  0  0  0  0  0999 V2000
    1.0982    2.2250    0.7443 C   0  0  2  0  0  0  0  0  0  0  0  0
   -0.1744    1.7174    0.3388 O   0  0  0  0  0  0  0  0  0  0  0  0
    0.9545    3.1567    1.9570 C   0  0  2  0  0  0  0  0  0  0  0  0
    0.2492    2.4817    3.0622 N   0  0  0  0  0  0  0  0  0  0  0  0
    0.2473    4.4612    1.5675 C   0  0  1  0  0  0  0  0  0  0  0  0
    0.2689    5.3531    2.6655 O   0  0  0  0  0  0  0  0  0  0  0  0
    0.9540    5.1123    0.3690 C   0  0  2  0  0  0  0  0  0  0  0  0
    0.1985    6.2237   -0.0732 O   0  0  0  0  0  0  0  0  0  0  0  0
    1.1389    4.1121   -0.7902 C   0  0  2  0  0  0  0  0  0  0  0  0
    1.7394    2.9000   -0.3351 O   0  0  0  0  0  0  0  0  0  0  0  0
    2.0384    4.7715   -1.8528 C   0  0  0  0  0  0  0  0  0  0  0  0
    3.4503    4.5706   -1.5764 O   0  0  0  0  0  0  0  0  0  0  0  0
   -2.1365   -2.0232    1.1690 C   0  0  2  0  0  0  0  0  0  0  0  0
   -2.2944   -3.2810    1.9261 N   0  0  0  0  0  0  0  0  0  0  0  0
   -0.7617   -1.9754    0.4977 C   0  0  0  0  0  0  0  0  0  0  0  0
   -0.5359   -0.6229   -0.1677 C   0  0  2  0  0  0  0  0  0  0  0  0
    0.7418   -0.6209   -0.8913 N   0  0  0  0  0  0  0  0  0  0  0  0
   -0.5865    0.4728    0.9223 C   0  0  2  0  0  0  0  0  0  0  0  0
   -1.9774    0.5345    1.4673 C   0  0  2  0  0  0  0  0  0  0  0  0
   -2.0122    1.5701    2.4321 O   0  0  0  0  0  0  0  0  0  0  0  0
   -2.3433   -0.8020    2.0847 C   0  0  1  0  0  0  0  0  0  0  0  0
   -3.6822   -0.8272    2.5427 O   0  0  0  0  0  0  0  0  0  0  0  0
   -3.2803    2.1270    2.7618 C   0  0  1  0  0  0  0  0  0  0  0  0
   -3.1570    2.7899    4.1354 C   0  0  2  0  0  0  0  0  0  0  0  0
   -4.3672    2.6177    4.8485 O   0  0  0  0  0  0  0  0  0  0  0  0
   -2.8819    4.2552    3.7718 C   0  0  2  0  0  0  0  0  0  0  0  0
   -3.1982    5.1572    4.8325 O   0  0  0  0  0  0  0  0  0  0  0  0
   -3.7658    4.3904    2.5258 C   0  0  2  0  0  0  0  0  0  0  0  0
   -3.6046    3.1580    1.8377 O   0  0  0  0  0  0  0  0  0  0  0  0
   -3.3697    5.5386    1.5903 C   0  0  0  0  0  0  0  0  0  0  0  0
   -2.4120    5.1269    0.6383 O   0  0  0  0  0  0  0  0  0  0  0  0
   -2.3570    5.0454    5.9787 C   0  0  2  0  0  0  0  0  0  0  0  0
   -2.9047    5.8475    7.1690 C   0  0  2  0  0  0  0  0  0  0  0  0
   -4.2879    5.4498    7.4798 N   0  0  0  0  0  0  0  0  0  0  0  0
   -2.7975    7.3587    6.9154 C   0  0  1  0  0  0  0  0  0  0  0  0
   -3.2341    8.0430    8.0739 O   0  0  0  0  0  0  0  0  0  0  0  0
   -1.3268    7.6993    6.6207 C   0  0  2  0  0  0  0  0  0  0  0  0
   -1.1788    9.0783    6.3365 O   0  0  0  0  0  0  0  0  0  0  0  0
   -0.7852    6.8474    5.4542 C   0  0  1  0  0  0  0  0  0  0  0  0
   -1.0273    5.4548    5.6669 O   0  0  0  0  0  0  0  0  0  0  0  0
   -1.2836    7.3127    4.0780 C   0  0  0  0  0  0  0  0  0  0  0  0
   -0.5195    8.4746    3.5958 N   0  0  0  0  0  0  0  0  0  0  0  0
  1  3  1  0  0  0  0
  1  2  1  6  0  0  0
  3  4  1  1  0  0  0
  5  6  1  1  0  0  0
  5  3  1  0  0  0  0
  7  9  1  0  0  0  0
  7  5  1  0  0  0  0
  7  8  1  6  0  0  0
  9 10  1  0  0  0  0
  9 11  1  6  0  0  0
 10  1  1  0  0  0  0
 11 12  1  0  0  0  0
 13 14  1  1  0  0  0
 13 21  1  0  0  0  0
 15 13  1  0  0  0  0
 16 15  1  0  0  0  0
 16 18  1  0  0  0  0
 16 17  1  1  0  0  0
 18  2  1  6  0  0  0
 18 19  1  0  0  0  0
 19 21  1  0  0  0  0
 19 20  1  1  0  0  0
 21 22  1  6  0  0  0
 23 20  1  6  0  0  0
 23 29  1  0  0  0  0
 23 24  1  0  0  0  0
 24 26  1  0  0  0  0
 24 25  1  6  0  0  0
 26 27  1  1  0  0  0
 28 26  1  0  0  0  0
 28 30  1  6  0  0  0
 29 28  1  0  0  0  0
 30 31  1  0  0  0  0
 32 27  1  6  0  0  0
 32 40  1  0  0  0  0
 32 33  1  0  0  0  0
 33 35  1  0  0  0  0
 33 34  1  6  0  0  0
 35 37  1  0  0  0  0
 35 36  1  1  0  0  0
 37 38  1  6  0  0  0
 39 37  1  0  0  0  0
 39 41  1  6  0  0  0
 40 39  1  0  0  0  0
 42 41  1  0  0  0  0
M  END
>  <CHROM.1>
-109.27944353,-91.26274658,45.61530975,48.42871008,-53.95401708,-61.97704152
86.47940258,86.17409507,178.69254690,159.20551959,158.56236158,54.31414470
70.89455198,67.47447999,-169.39924044,88.58397012,73.47323826,46.67048921
-67.08483450,170.87988120,79.87387800,-105.30916367,-1.31289763,3.62870180
2.68660512,-1.26165821,0.82396718,0.46540487

>  <Name>
lig.pdb

>  <RI>
3.99633e+07

>  <Rbt.Current_Directory>
/home/itssahil/PROJECTS/Mol_Feturizer/New_Systems/rnas/2mxs

>  <Rbt.Executable>
rbdock ($Id: //depot/dev/client3/rdock/2013.1/src/exe/rbdock.cxx#4 $)

>  <Rbt.Library>
libRbt.so (2013.1, Build901 2013/11/27)

>  <Rbt.Parameter_File>
/export/apps/rDock/src/rDock_2013.1_src/data/scripts/dock_solv.prm

>  <Rbt.Receptor>
prm/pocket_docking_5.prm

>  <SCORE>
-45.4707

>  <SCORE.INTER>
-43.1521

>  <SCORE.INTER.CONST>
1

>  <SCORE.INTER.POLAR>
-5.77203

>  <SCORE.INTER.ROT>
9

>  <SCORE.INTER.SOLV>
18.6806

>  <SCORE.INTER.VDW>
-25.3549

>  <SCORE.INTER.norm>
-1.02743

>  <SCORE.INTRA>
-2.31863

>  <SCORE.INTRA.DIHEDRAL>
0.170678

>  <SCORE.INTRA.DIHEDRAL.0>
30.1357

>  <SCORE.INTRA.POLAR>
-1.07492

>  <SCORE.INTRA.POLAR.0>
-0.631696

>  <SCORE.INTRA.REPUL>
0

>  <SCORE.INTRA.REPUL.0>
0

>  <SCORE.INTRA.SOLV>
3.45371

>  <SCORE.INTRA.SOLV.lig_0>
-55.904

>  <SCORE.INTRA.VDW>
-0.476087

>  <SCORE.INTRA.VDW.0>
-8.21197

>  <SCORE.INTRA.norm>
-0.0552055

>  <SCORE.RESTR>
0

>  <SCORE.RESTR.CAVITY>
0

>  <SCORE.RESTR.norm>
0

>  <SCORE.SYSTEM>
0

>  <SCORE.SYSTEM.CONST>
0

>  <SCORE.SYSTEM.DIHEDRAL>
0

>  <SCORE.SYSTEM.SOLV>
0

>  <SCORE.SYSTEM.norm>
0

>  <SCORE.heavy>
42

>  <SCORE.norm>
-1.08264

>  <RMSD>
3.539

$$$$
lig.pdb
 OpenBabel11021811453D
libRbt.so/2013.1/901 2013/11/27
 42 45  0  0  0  0  0  0  0  0999 V2000
    0.4117    3.6201    0.1675 C   0  0  2  0  0  0  0  0  0  0  0  0
   -0.3881    3.1065   -0.8993 O   0  0  0  0  0  0  0  0  0  0  0  0
    1.5737    4.4643   -0.3773 C   0  0  2  0  0  0  0  0  0  0  0  0
    1.0802    5.5337   -1.2646 N   0  0  0  0  0  0  0  0  0  0  0  0
    2.6035    3.5834   -1.0962 C   0  0  1  0  0  0  0  0  0  0  0  0
    3.7274    4.3671   -1.4488 O   0  0  0  0  0  0  0  0  0  0  0  0
    3.0516    2.4337   -0.1812 C   0  0  2  0  0  0  0  0  0  0  0  0
    3.8760    1.5468   -0.9128 O   0  0  0  0  0  0  0  0  0  0  0  0
    1.8443    1.6676    0.3967 C   0  0  2  0  0  0  0  0  0  0  0  0
    0.9006    2.5611    0.9868 O   0  0  0  0  0  0  0  0  0  0  0  0
    2.3663    0.6845    1.4618 C   0  0  0  0  0  0  0  0  0  0  0  0
    1.2948   -0.0886    2.0656 O   0  0  0  0  0  0  0  0  0  0  0  0
   -3.5944    0.2346   -0.8483 C   0  0  2  0  0  0  0  0  0  0  0  0
   -4.2362   -1.0054   -0.3677 N   0  0  0  0  0  0  0  0  0  0  0  0
   -2.2494   -0.0832   -1.5062 C   0  0  0  0  0  0  0  0  0  0  0  0
   -1.5169    1.2007   -1.8780 C   0  0  2  0  0  0  0  0  0  0  0  0
   -0.2753    0.8863   -2.5957 N   0  0  0  0  0  0  0  0  0  0  0  0
   -1.2509    2.0041   -0.5837 C   0  0  2  0  0  0  0  0  0  0  0  0
   -2.5639    2.4524   -0.0264 C   0  0  2  0  0  0  0  0  0  0  0  0
   -2.2958    3.2199    1.1327 O   0  0  0  0  0  0  0  0  0  0  0  0
   -3.4182    1.2428    0.3028 C   0  0  1  0  0  0  0  0  0  0  0  0
   -4.7075    1.6102    0.7565 O   0  0  0  0  0  0  0  0  0  0  0  0
   -3.2222    4.2440    1.4788 C   0  0  1  0  0  0  0  0  0  0  0  0
   -3.2973    4.3100    3.0057 C   0  0  2  0  0  0  0  0  0  0  0  0
   -4.6233    4.6129    3.3965 O   0  0  0  0  0  0  0  0  0  0  0  0
   -2.3061    5.4337    3.3372 C   0  0  2  0  0  0  0  0  0  0  0  0
   -2.5372    6.0145    4.6210 O   0  0  0  0  0  0  0  0  0  0  0  0
   -2.5608    6.3713    2.1506 C   0  0  2  0  0  0  0  0  0  0  0  0
   -2.7296    5.5032    1.0387 O   0  0  0  0  0  0  0  0  0  0  0  0
   -1.4126    7.3430    1.8539 C   0  0  0  0  0  0  0  0  0  0  0  0
   -0.4139    6.7406    1.0584 O   0  0  0  0  0  0  0  0  0  0  0  0
   -2.3675    5.1188    5.7178 C   0  0  2  0  0  0  0  0  0  0  0  0
   -3.1197    5.5990    6.9683 C   0  0  2  0  0  0  0  0  0  0  0  0
   -4.5453    5.8189    6.6729 N   0  0  0  0  0  0  0  0  0  0  0  0
   -2.4670    6.8581    7.5585 C   0  0  1  0  0  0  0  0  0  0  0  0
   -3.1461    7.2022    8.7506 O   0  0  0  0  0  0  0  0  0  0  0  0
   -0.9915    6.5452    7.8600 C   0  0  2  0  0  0  0  0  0  0  0  0
   -0.3300    7.6893    8.3677 O   0  0  0  0  0  0  0  0  0  0  0  0
   -0.2698    6.0193    6.6021 C   0  0  1  0  0  0  0  0  0  0  0  0
   -0.9831    4.9340    6.0049 O   0  0  0  0  0  0  0  0  0  0  0  0
    0.0575    7.1206    5.5829 C   0  0  0  0  0  0  0  0  0  0  0  0
    0.9907    8.1106    6.1444 N   0  0  0  0  0  0  0  0  0  0  0  0
  1  3  1  0  0  0  0
  1  2  1  6  0  0  0
  3  4  1  6  0  0  0
  5  6  1  1  0  0  0
  5  3  1  0  0  0  0
  7  9  1  0  0  0  0
  7  5  1  0  0  0  0
  7  8  1  6  0  0  0
  9 10  1  0  0  0  0
  9 11  1  1  0  0  0
 10  1  1  0  0  0  0
 11 12  1  0  0  0  0
 13 14  1  1  0  0  0
 13 21  1  0  0  0  0
 15 13  1  0  0  0  0
 16 15  1  0  0  0  0
 16 18  1  0  0  0  0
 16 17  1  1  0  0  0
 18  2  1  6  0  0  0
 18 19  1  0  0  0  0
 19 21  1  0  0  0  0
 19 20  1  1  0  0  0
 21 22  1  6  0  0  0
 23 20  1  1  0  0  0
 23 29  1  0  0  0  0
 23 24  1  0  0  0  0
 24 26  1  0  0  0  0
 24 25  1  6  0  0  0
 26 27  1  1  0  0  0
 28 26  1  0  0  0  0
 28 30  1  6  0  0  0
 29 28  1  0  0  0  0
 30 31  1  0  0  0  0
 32 27  1  6  0  0  0
 32 40  1  0  0  0  0
 32 33  1  0  0  0  0
 33 35  1  0  0  0  0
 33 34  1  6  0  0  0
 35 37  1  0  0  0  0
 35 36  1  1  0  0  0
 37 38  1  6  0  0  0
 39 37  1  0  0  0  0
 39 41  1  6  0  0  0
 40 39  1  0  0  0  0
 42 41  1  0  0  0  0
M  END
>  <CHROM.1>
-154.56354820,162.20683933,-54.12594460,179.63386552,-66.76497894,-70.07696032
-179.92984722,-171.86081433,-165.94913697,150.91709278,144.82540128,-49.71421392
-56.09368212,63.15919419,-158.16246011,83.59165497,-165.90919297,-51.69343757
-173.22411730,67.30788059,62.99725047,78.73430851,-1.03866933,3.99120462
2.18752665,-1.34395827,0.29121154,0.92000287

>  <Name>
lig.pdb

>  <RI>
0

>  <Rbt.Current_Directory>
/home/itssahil/PROJECTS/Mol_Feturizer/New_Systems/rnas/2mxs

>  <Rbt.Executable>
rbdock ($Id: //depot/dev/client3/rdock/2013.1/src/exe/rbdock.cxx#4 $)

>  <Rbt.Library>
libRbt.so (2013.1, Build901 2013/11/27)

>  <Rbt.Parameter_File>
/export/apps/rDock/src/rDock_2013.1_src/data/scripts/dock_solv.prm

>  <Rbt.Receptor>
prm/pocket_docking_6.prm

>  <SCORE>
-54.9801

>  <SCORE.INTER>
-48.224

>  <SCORE.INTER.CONST>
1

>  <SCORE.INTER.POLAR>
-5.61698

>  <SCORE.INTER.ROT>
9

>  <SCORE.INTER.SOLV>
21.1924

>  <SCORE.INTER.VDW>
-30.0902

>  <SCORE.INTER.norm>
-1.14819

>  <SCORE.INTRA>
-6.75612

>  <SCORE.INTRA.DIHEDRAL>
-8.90744

>  <SCORE.INTRA.DIHEDRAL.0>
30.1357

>  <SCORE.INTRA.POLAR>
-1.2444

>  <SCORE.INTRA.POLAR.0>
-0.631696

>  <SCORE.INTRA.REPUL>
0

>  <SCORE.INTRA.REPUL.0>
0

>  <SCORE.INTRA.SOLV>
0.697806

>  <SCORE.INTRA.SOLV.lig_0>
-55.904

>  <SCORE.INTRA.VDW>
1.57964

>  <SCORE.INTRA.VDW.0>
-8.21197

>  <SCORE.INTRA.norm>
-0.16086

>  <SCORE.RESTR>
0

>  <SCORE.RESTR.CAVITY>
0

>  <SCORE.RESTR.norm>
0

>  <SCORE.SYSTEM>
0

>  <SCORE.SYSTEM.CONST>
0

>  <SCORE.SYSTEM.DIHEDRAL>
0

>  <SCORE.SYSTEM.SOLV>
0

>  <SCORE.SYSTEM.norm>
0

>  <SCORE.heavy>
42

>  <SCORE.norm>
-1.30905

>  <RMSD>
3.641

$$$$
lig.pdb
 OpenBabel11021811453D
libRbt.so/2013.1/901 2013/11/27
 42 45  0  0  0  0  0  0  0  0999 V2000
    0.8146    4.0801   -1.0221 C   0  0  2  0  0  0  0  0  0  0  0  0
    1.8425    3.8410   -0.0590 O   0  0  0  0  0  0  0  0  0  0  0  0
    0.9021    5.5119   -1.5717 C   0  0  2  0  0  0  0  0  0  0  0  0
    2.2451    5.7893   -2.1138 N   0  0  0  0  0  0  0  0  0  0  0  0
    0.5191    6.5377   -0.4972 C   0  0  1  0  0  0  0  0  0  0  0  0
    0.4625    7.8267   -1.0776 O   0  0  0  0  0  0  0  0  0  0  0  0
   -0.8504    6.1905    0.1058 C   0  0  2  0  0  0  0  0  0  0  0  0
   -1.1129    7.0504    1.1981 O   0  0  0  0  0  0  0  0  0  0  0  0
   -0.9070    4.7216    0.5723 C   0  0  2  0  0  0  0  0  0  0  0  0
   -0.4717    3.8357   -0.4586 O   0  0  0  0  0  0  0  0  0  0  0  0
   -2.3630    4.3970    0.9569 C   0  0  0  0  0  0  0  0  0  0  0  0
   -2.7666    5.0616    2.1839 O   0  0  0  0  0  0  0  0  0  0  0  0
    2.3272   -0.4323   -0.2465 C   0  0  2  0  0  0  0  0  0  0  0  0
    2.7951   -1.7237    0.2955 N   0  0  0  0  0  0  0  0  0  0  0  0
    3.5105    0.5148   -0.4606 C   0  0  0  0  0  0  0  0  0  0  0  0
    3.0234    1.8950   -0.8856 C   0  0  2  0  0  0  0  0  0  0  0  0
    4.1668    2.7667   -1.1833 N   0  0  0  0  0  0  0  0  0  0  0  0
    2.1352    2.4689    0.2428 C   0  0  2  0  0  0  0  0  0  0  0  0
    0.8991    1.6337    0.3434 C   0  0  2  0  0  0  0  0  0  0  0  0
    0.0824    2.2000    1.3518 O   0  0  0  0  0  0  0  0  0  0  0  0
    1.2756    0.2037    0.6819 C   0  0  1  0  0  0  0  0  0  0  0  0
    0.1479   -0.6511    0.7071 O   0  0  0  0  0  0  0  0  0  0  0  0
    0.7070    2.5867    2.5713 C   0  0  1  0  0  0  0  0  0  0  0  0
   -0.3614    2.5791    3.6667 C   0  0  2  0  0  0  0  0  0  0  0  0
   -0.1081    3.6344    4.5750 O   0  0  0  0  0  0  0  0  0  0  0  0
   -0.1783    1.1922    4.2975 C   0  0  2  0  0  0  0  0  0  0  0  0
   -0.7073    1.1122    5.6213 O   0  0  0  0  0  0  0  0  0  0  0  0
    1.3465    1.0567    4.2036 C   0  0  2  0  0  0  0  0  0  0  0  0
    1.6780    1.6156    2.9403 O   0  0  0  0  0  0  0  0  0  0  0  0
    1.8582   -0.3875    4.2590 C   0  0  0  0  0  0  0  0  0  0  0  0
    1.8510   -0.9911    2.9828 O   0  0  0  0  0  0  0  0  0  0  0  0
   -0.2083    0.0236    6.3960 C   0  0  2  0  0  0  0  0  0  0  0  0
   -1.1090   -0.2774    7.6037 C   0  0  2  0  0  0  0  0  0  0  0  0
   -2.4980   -0.5163    7.1777 N   0  0  0  0  0  0  0  0  0  0  0  0
   -1.0267    0.8443    8.6499 C   0  0  1  0  0  0  0  0  0  0  0  0
   -1.8048    0.4737    9.7714 O   0  0  0  0  0  0  0  0  0  0  0  0
    0.4454    1.0196    9.0601 C   0  0  2  0  0  0  0  0  0  0  0  0
    0.5832    2.0743    9.9945 O   0  0  0  0  0  0  0  0  0  0  0  0
    1.3366    1.2725    7.8266 C   0  0  1  0  0  0  0  0  0  0  0  0
    1.1290    0.2802    6.8189 O   0  0  0  0  0  0  0  0  0  0  0  0
    1.2088    2.6962    7.2648 C   0  0  0  0  0  0  0  0  0  0  0  0
    2.5168    3.2281    6.8495 N   0  0  0  0  0  0  0  0  0  0  0  0
  1  3  1  0  0  0  0
  1  2  1  1  0  0  0
  3  4  1  1  0  0  0
  5  6  1  6  0  0  0
  5  3  1  0  0  0  0
  7  9  1  0  0  0  0
  7  5  1  0  0  0  0
  7  8  1  1  0  0  0
  9 10  1  0  0  0  0
  9 11  1  6  0  0  0
 10  1  1  0  0  0  0
 11 12  1  0  0  0  0
 13 14  1  1  0  0  0
 13 21  1  0  0  0  0
 15 13  1  0  0  0  0
 16 15  1  0  0  0  0
 16 18  1  0  0  0  0
 16 17  1  1  0  0  0
 18  2  1  6  0  0  0
 18 19  1  0  0  0  0
 19 21  1  0  0  0  0
 19 20  1  1  0  0  0
 21 22  1  6  0  0  0
 23 20  1  6  0  0  0
 23 29  1  0  0  0  0
 23 24  1  0  0  0  0
 24 26  1  0  0  0  0
 24 25  1  1  0  0  0
 26 27  1  1  0  0  0
 28 26  1  0  0  0  0
 28 30  1  6  0  0  0
 29 28  1  0  0  0  0
 30 31  1  0  0  0  0
 32 27  1  1  0  0  0
 32 40  1  0  0  0  0
 32 33  1  0  0  0  0
 33 35  1  0  0  0  0
 33 34  1  6  0  0  0
 35 37  1  0  0  0  0
 35 36  1  1  0  0  0
 37 38  1  1  0  0  0
 39 37  1  0  0  0  0
 39 41  1  6  0  0  0
 40 39  1  0  0  0  0
 42 41  1  0  0  0  0
M  END
>  <CHROM.1>
79.15629568,-162.16957292,-142.02285311,-173.30226276,88.91919491,-179.70271285
-70.95031292,-60.10468283,-113.76055464,-44.95151841,-155.76236150,-55.53067638
-29.00132650,-161.20974443,-161.89084331,85.66025988,-61.13224219,47.39069092
-39.49507562,64.84587145,139.88573860,-78.11688181,0.59562220,2.33336706
2.91285064,1.31272826,1.03413009,-0.95075610

>  <Name>
lig.pdb

>  <RI>
0

>  <Rbt.Current_Directory>
/home/itssahil/PROJECTS/Mol_Feturizer/New_Systems/rnas/2mxs

>  <Rbt.Executable>
rbdock ($Id: //depot/dev/client3/rdock/2013.1/src/exe/rbdock.cxx#4 $)

>  <Rbt.Library>
libRbt.so (2013.1, Build901 2013/11/27)

>  <Rbt.Parameter_File>
/export/apps/rDock/src/rDock_2013.1_src/data/scripts/dock_solv.prm

>  <Rbt.Receptor>
prm/blind_docking_80.prm

>  <SCORE>
4.35192

>  <SCORE.INTER>
-22.3865

>  <SCORE.INTER.CONST>
1

>  <SCORE.INTER.POLAR>
-3.78401

>  <SCORE.INTER.ROT>
9

>  <SCORE.INTER.SOLV>
26.0622

>  <SCORE.INTER.VDW>
-20.5984

>  <SCORE.INTER.norm>
-0.533013

>  <SCORE.INTRA>
13.1085

>  <SCORE.INTRA.DIHEDRAL>
3.14544

>  <SCORE.INTRA.DIHEDRAL.0>
30.1357

>  <SCORE.INTRA.POLAR>
-0.132974

>  <SCORE.INTRA.POLAR.0>
-0.631696

>  <SCORE.INTRA.REPUL>
0

>  <SCORE.INTRA.REPUL.0>
0

>  <SCORE.INTRA.SOLV>
3.73462

>  <SCORE.INTRA.SOLV.lig_0>
-55.904

>  <SCORE.INTRA.VDW>
10.1205

>  <SCORE.INTRA.VDW.0>
-8.21197

>  <SCORE.INTRA.norm>
0.312106

>  <SCORE.RESTR>
13.63

>  <SCORE.RESTR.CAVITY>
13.63

>  <SCORE.RESTR.norm>
0.324524

>  <SCORE.SYSTEM>
0

>  <SCORE.SYSTEM.CONST>
0

>  <SCORE.SYSTEM.DIHEDRAL>
0

>  <SCORE.SYSTEM.SOLV>
0

>  <SCORE.SYSTEM.norm>
0

>  <SCORE.heavy>
42

>  <SCORE.norm>
0.103617

>  <RMSD>
3.680

$$$$
lig.pdb
 OpenBabel11021811453D
libRbt.so/2013.1/901 2013/11/27
 42 45  0  0  0  0  0  0  0  0999 V2000
   -0.0579    5.1298    0.1468 C   0  0  2  0  0  0  0  0  0  0  0  0
    1.0395    4.8211    1.0081 O   0  0  0  0  0  0  0  0  0  0  0  0
   -0.2475    6.6493    0.0254 C   0  0  2  0  0  0  0  0  0  0  0  0
    0.9997    7.3051   -0.4092 N   0  0  0  0  0  0  0  0  0  0  0  0
   -0.7538    7.2475    1.3443 C   0  0  1  0  0  0  0  0  0  0  0  0
   -1.0616    8.6150    1.1522 O   0  0  0  0  0  0  0  0  0  0  0  0
   -2.0121    6.5042    1.8174 C   0  0  2  0  0  0  0  0  0  0  0  0
   -2.3699    6.9626    3.1071 O   0  0  0  0  0  0  0  0  0  0  0  0
   -1.7893    4.9785    1.8488 C   0  0  2  0  0  0  0  0  0  0  0  0
   -1.2542    4.5095    0.6116 O   0  0  0  0  0  0  0  0  0  0  0  0
   -3.1468    4.3018    2.1184 C   0  0  0  0  0  0  0  0  0  0  0  0
   -4.1510    4.6789    1.1387 O   0  0  0  0  0  0  0  0  0  0  0  0
    0.5142    0.5804    1.5288 C   0  0  2  0  0  0  0  0  0  0  0  0
    0.9752   -0.7546    1.9595 N   0  0  0  0  0  0  0  0  0  0  0  0
    1.4447    1.1425    0.4512 C   0  0  0  0  0  0  0  0  0  0  0  0
    1.0589    2.5752    0.1028 C   0  0  2  0  0  0  0  0  0  0  0  0
    1.8930    3.0711   -0.9991 N   0  0  0  0  0  0  0  0  0  0  0  0
    1.2023    3.4432    1.3745 C   0  0  2  0  0  0  0  0  0  0  0  0
    0.1807    2.9963    2.3705 C   0  0  2  0  0  0  0  0  0  0  0  0
    0.3012    3.8296    3.5087 O   0  0  0  0  0  0  0  0  0  0  0  0
    0.4195    1.5416    2.7286 C   0  0  1  0  0  0  0  0  0  0  0  0
   -0.5713    1.0408    3.6064 O   0  0  0  0  0  0  0  0  0  0  0  0
   -0.7699    3.8301    4.4466 C   0  0  1  0  0  0  0  0  0  0  0  0
   -0.2568    3.1986    5.7425 C   0  0  2  0  0  0  0  0  0  0  0  0
   -1.2963    2.4472    6.3405 O   0  0  0  0  0  0  0  0  0  0  0  0
    0.1455    4.4257    6.5716 C   0  0  2  0  0  0  0  0  0  0  0  0
    0.2017    4.1530    7.9720 O   0  0  0  0  0  0  0  0  0  0  0  0
   -0.9570    5.4047    6.1495 C   0  0  2  0  0  0  0  0  0  0  0  0
   -1.1311    5.1694    4.7593 O   0  0  0  0  0  0  0  0  0  0  0  0
   -0.6081    6.8820    6.3646 C   0  0  0  0  0  0  0  0  0  0  0  0
   -1.7645    7.6646    6.5725 O   0  0  0  0  0  0  0  0  0  0  0  0
    0.9959    5.0681    8.7243 C   0  0  2  0  0  0  0  0  0  0  0  0
    2.4211    4.5388    8.9452 C   0  0  2  0  0  0  0  0  0  0  0  0
    3.0623    4.2026    7.6631 N   0  0  0  0  0  0  0  0  0  0  0  0
    2.4248    3.3410    9.9069 C   0  0  1  0  0  0  0  0  0  0  0  0
    3.7650    2.9528   10.1394 O   0  0  0  0  0  0  0  0  0  0  0  0
    1.7616    3.7740   11.2255 C   0  0  2  0  0  0  0  0  0  0  0  0
    1.7003    2.6908   12.1351 O   0  0  0  0  0  0  0  0  0  0  0  0
    0.3515    4.3463   10.9731 C   0  0  1  0  0  0  0  0  0  0  0  0
    0.3722    5.3659    9.9715 O   0  0  0  0  0  0  0  0  0  0  0  0
   -0.6985    3.2669   10.6712 C   0  0  0  0  0  0  0  0  0  0  0  0
   -1.8561    3.8297    9.9574 N   0  0  0  0  0  0  0  0  0  0  0  0
  1  3  1  0  0  0  0
  1  2  1  1  0  0  0
  3  4  1  1  0  0  0
  5  6  1  6  0  0  0
  5  3  1  0  0  0  0
  7  9  1  0  0  0  0
  7  5  1  0  0  0  0
  7  8  1  1  0  0  0
  9 10  1  0  0  0  0
  9 11  1  6  0  0  0
 10  1  1  0  0  0  0
 11 12  1  0  0  0  0
 13 14  1  1  0  0  0
 13 21  1  0  0  0  0
 15 13  1  0  0  0  0
 16 15  1  0  0  0  0
 16 18  1  0  0  0  0
 16 17  1  6  0  0  0
 18  2  1  6  0  0  0
 18 19  1  0  0  0  0
 19 21  1  0  0  0  0
 19 20  1  1  0  0  0
 21 22  1  1  0  0  0
 23 20  1  6  0  0  0
 23 29  1  0  0  0  0
 23 24  1  0  0  0  0
 24 26  1  0  0  0  0
 24 25  1  1  0  0  0
 26 27  1  1  0  0  0
 28 26  1  0  0  0  0
 28 30  1  6  0  0  0
 29 28  1  0  0  0  0
 30 31  1  0  0  0  0
 32 27  1  1  0  0  0
 32 40  1  0  0  0  0
 32 33  1  0  0  0  0
 33 35  1  0  0  0  0
 33 34  1  6  0  0  0
 35 37  1  0  0  0  0
 35 36  1  1  0  0  0
 37 38  1  1  0  0  0
 39 37  1  0  0  0  0
 39 41  1  6  0  0  0
 40 39  1  0  0  0  0
 42 41  1  0  0  0  0
M  END
>  <CHROM.1>
46.00152441,170.72536239,-85.29040683,56.36714325,-74.04052974,-176.22631005
56.36614944,62.11856910,-174.84716511,164.33725325,112.62587477,68.06560765
-54.18362521,159.03165557,-96.02009606,-152.36104247,-56.16092370,-67.37764360
165.40407993,173.84474810,-158.54666971,-59.91200143,-0.00278428,4.23705078
4.67210664,1.87688263,1.07160033,-1.77099431

>  <Name>
lig.pdb

>  <RI>
0

>  <Rbt.Current_Directory>
/home/itssahil/PROJECTS/Mol_Feturizer/New_Systems/rnas/2mxs

>  <Rbt.Executable>
rbdock ($Id: //depot/dev/client3/rdock/2013.1/src/exe/rbdock.cxx#4 $)

>  <Rbt.Library>
libRbt.so (2013.1, Build901 2013/11/27)

>  <Rbt.Parameter_File>
/export/apps/rDock/src/rDock_2013.1_src/data/scripts/dock_solv.prm

>  <Rbt.Receptor>
prm/pocket_docking_4.prm

>  <SCORE>
-38.7947

>  <SCORE.INTER>
-36.6852

>  <SCORE.INTER.CONST>
1

>  <SCORE.INTER.POLAR>
-4.57277

>  <SCORE.INTER.ROT>
9

>  <SCORE.INTER.SOLV>
17.1914

>  <SCORE.INTER.VDW>
-24.5447

>  <SCORE.INTER.norm>
-0.873457

>  <SCORE.INTRA>
-2.10953

>  <SCORE.INTRA.DIHEDRAL>
-5.35603

>  <SCORE.INTRA.DIHEDRAL.0>
30.1357

>  <SCORE.INTRA.POLAR>
-1.07694

>  <SCORE.INTRA.POLAR.0>
-0.631696

>  <SCORE.INTRA.REPUL>
0.0174968

>  <SCORE.INTRA.REPUL.0>
0

>  <SCORE.INTRA.SOLV>
1.30212

>  <SCORE.INTRA.SOLV.lig_0>
-55.904

>  <SCORE.INTRA.VDW>
3.49153

>  <SCORE.INTRA.VDW.0>
-8.21197

>  <SCORE.INTRA.norm>
-0.050227

>  <SCORE.RESTR>
0

>  <SCORE.RESTR.CAVITY>
0

>  <SCORE.RESTR.norm>
0

>  <SCORE.SYSTEM>
0

>  <SCORE.SYSTEM.CONST>
0

>  <SCORE.SYSTEM.DIHEDRAL>
0

>  <SCORE.SYSTEM.SOLV>
0

>  <SCORE.SYSTEM.norm>
0

>  <SCORE.heavy>
42

>  <SCORE.norm>
-0.923684

>  <RMSD>
3.723

$$$$
lig.pdb
 OpenBabel11021811453D
libRbt.so/2013.1/901 2013/11/27
 42 45  0  0  0  0  0  0  0  0999 V2000
    0.7785    4.7954    2.3612 C   0  0  2  0  0  0  0  0  0  0  0  0
    0.0354    3.6538    1.9297 O   0  0  0  0  0  0  0  0  0  0  0  0
    0.1839    5.3795    3.6516 C   0  0  2  0  0  0  0  0  0  0  0  0
    0.0884    4.3503    4.7033 N   0  0  0  0  0  0  0  0  0  0  0  0
   -1.1829    6.0232    3.3850 C   0  0  1  0  0  0  0  0  0  0  0  0
   -1.6283    6.6813    4.5555 O   0  0  0  0  0  0  0  0  0  0  0  0
   -1.0777    7.0398    2.2383 C   0  0  2  0  0  0  0  0  0  0  0  0
   -2.3716    7.5036    1.9032 O   0  0  0  0  0  0  0  0  0  0  0  0
   -0.4062    6.4224    0.9948 C   0  0  2  0  0  0  0  0  0  0  0  0
    0.8242    5.7847    1.3360 O   0  0  0  0  0  0  0  0  0  0  0  0
   -0.1431    7.5526   -0.0183 C   0  0  0  0  0  0  0  0  0  0  0  0
    0.3918    7.0507   -1.2722 O   0  0  0  0  0  0  0  0  0  0  0  0
    1.3505   -0.2031    0.5420 C   0  0  2  0  0  0  0  0  0  0  0  0
    2.3562   -1.2763    0.4112 N   0  0  0  0  0  0  0  0  0  0  0  0
    1.8684    1.0912   -0.0901 C   0  0  0  0  0  0  0  0  0  0  0  0
    0.8980    2.2386    0.1641 C   0  0  2  0  0  0  0  0  0  0  0  0
    1.3536    3.4507   -0.5282 N   0  0  0  0  0  0  0  0  0  0  0  0
    0.7825    2.4520    1.6914 C   0  0  2  0  0  0  0  0  0  0  0  0
    0.1274    1.2484    2.2893 C   0  0  2  0  0  0  0  0  0  0  0  0
   -0.0063    1.4817    3.6794 O   0  0  0  0  0  0  0  0  0  0  0  0
    0.9743    0.0192    2.0190 C   0  0  1  0  0  0  0  0  0  0  0  0
    0.3589   -1.1646    2.4911 O   0  0  0  0  0  0  0  0  0  0  0  0
   -1.1202    0.8968    4.3458 C   0  0  1  0  0  0  0  0  0  0  0  0
   -0.7999    0.8529    5.8414 C   0  0  2  0  0  0  0  0  0  0  0  0
   -1.3483   -0.3246    6.4032 O   0  0  0  0  0  0  0  0  0  0  0  0
   -1.4720    2.1310    6.3610 C   0  0  2  0  0  0  0  0  0  0  0  0
   -1.7346    2.0869    7.7638 O   0  0  0  0  0  0  0  0  0  0  0  0
   -2.7214    2.1545    5.4720 C   0  0  2  0  0  0  0  0  0  0  0  0
   -2.2603    1.7333    4.1959 O   0  0  0  0  0  0  0  0  0  0  0  0
   -3.3746    3.5347    5.3347 C   0  0  0  0  0  0  0  0  0  0  0  0
   -4.5787    3.4695    4.6004 O   0  0  0  0  0  0  0  0  0  0  0  0
   -1.9570    3.3599    8.3672 C   0  0  2  0  0  0  0  0  0  0  0  0
   -0.6677    3.9392    8.9690 C   0  0  2  0  0  0  0  0  0  0  0  0
    0.4013    4.0055    7.9586 N   0  0  0  0  0  0  0  0  0  0  0  0
   -0.2250    3.1407   10.2044 C   0  0  1  0  0  0  0  0  0  0  0  0
    0.9123    3.7685   10.7641 O   0  0  0  0  0  0  0  0  0  0  0  0
   -1.3808    3.1344   11.2192 C   0  0  2  0  0  0  0  0  0  0  0  0
   -1.0397    2.3727   12.3628 O   0  0  0  0  0  0  0  0  0  0  0  0
   -2.6760    2.5943   10.5785 C   0  0  1  0  0  0  0  0  0  0  0  0
   -2.9788    3.2739    9.3579 O   0  0  0  0  0  0  0  0  0  0  0  0
   -2.6772    1.0687   10.4013 C   0  0  0  0  0  0  0  0  0  0  0  0
   -3.5095    0.6625    9.2574 N   0  0  0  0  0  0  0  0  0  0  0  0
  1  3  1  0  0  0  0
  1  2  1  6  0  0  0
  3  4  1  1  0  0  0
  5  6  1  1  0  0  0
  5  3  1  0  0  0  0
  7  9  1  0  0  0  0
  7  5  1  0  0  0  0
  7  8  1  6  0  0  0
  9 10  1  0  0  0  0
  9 11  1  6  0  0  0
 10  1  1  0  0  0  0
 11 12  1  0  0  0  0
 13 14  1  1  0  0  0
 13 21  1  0  0  0  0
 15 13  1  0  0  0  0
 16 15  1  0  0  0  0
 16 18  1  0  0  0  0
 16 17  1  6  0  0  0
 18  2  1  6  0  0  0
 18 19  1  0  0  0  0
 19 21  1  0  0  0  0
 19 20  1  1  0  0  0
 21 22  1  6  0  0  0
 23 20  1  6  0  0  0
 23 29  1  0  0  0  0
 23 24  1  0  0  0  0
 24 26  1  0  0  0  0
 24 25  1  1  0  0  0
 26 27  1  1  0  0  0
 28 26  1  0  0  0  0
 28 30  1  6  0  0  0
 29 28  1  0  0  0  0
 30 31  1  0  0  0  0
 32 27  1  1  0  0  0
 32 40  1  0  0  0  0
 32 33  1  0  0  0  0
 33 35  1  0  0  0  0
 33 34  1  6  0  0  0
 35 37  1  0  0  0  0
 35 36  1  1  0  0  0
 37 38  1  1  0  0  0
 39 37  1  0  0  0  0
 39 41  1  6  0  0  0
 40 39  1  0  0  0  0
 42 41  1  0  0  0  0
M  END
>  <CHROM.1>
-105.52823247,-126.75089389,-40.27411237,-179.71495670,172.99586436,157.87241042
-175.34784119,70.27578858,-159.98095761,148.62817622,160.21069147,171.32674338
-177.76559646,161.21977496,-94.35171445,-174.99372398,63.73448230,-175.29104896
-175.24204801,-53.44285946,-151.27942082,-62.08879673,-0.71327024,3.08214158
4.72765579,0.76823044,1.24135271,-0.64060417

>  <Name>
lig.pdb

>  <RI>
4.11275e+07

>  <Rbt.Current_Directory>
/home/itssahil/PROJECTS/Mol_Feturizer/New_Systems/rnas/2mxs

>  <Rbt.Executable>
rbdock ($Id: //depot/dev/client3/rdock/2013.1/src/exe/rbdock.cxx#4 $)

>  <Rbt.Library>
libRbt.so (2013.1, Build901 2013/11/27)

>  <Rbt.Parameter_File>
/export/apps/rDock/src/rDock_2013.1_src/data/scripts/dock_solv.prm

>  <Rbt.Receptor>
prm/pocket_docking_8.prm

>  <SCORE>
-27.0434

>  <SCORE.INTER>
-22.1024

>  <SCORE.INTER.CONST>
1

>  <SCORE.INTER.POLAR>
-3.79385

>  <SCORE.INTER.ROT>
9

>  <SCORE.INTER.SOLV>
15.3283

>  <SCORE.INTER.VDW>
-16.7982

>  <SCORE.INTER.norm>
-0.526248

>  <SCORE.INTRA>
-4.941

>  <SCORE.INTRA.DIHEDRAL>
3.07262

>  <SCORE.INTRA.DIHEDRAL.0>
30.1357

>  <SCORE.INTRA.POLAR>
-1.74947

>  <SCORE.INTRA.POLAR.0>
-0.631696

>  <SCORE.INTRA.REPUL>
0

>  <SCORE.INTRA.REPUL.0>
0

>  <SCORE.INTRA.SOLV>
0.136315

>  <SCORE.INTRA.SOLV.lig_0>
-55.904

>  <SCORE.INTRA.VDW>
-0.597282

>  <SCORE.INTRA.VDW.0>
-8.21197

>  <SCORE.INTRA.norm>
-0.117643

>  <SCORE.RESTR>
0

>  <SCORE.RESTR.CAVITY>
0

>  <SCORE.RESTR.norm>
0

>  <SCORE.SYSTEM>
0

>  <SCORE.SYSTEM.CONST>
0

>  <SCORE.SYSTEM.DIHEDRAL>
0

>  <SCORE.SYSTEM.SOLV>
0

>  <SCORE.SYSTEM.norm>
0

>  <SCORE.heavy>
42

>  <SCORE.norm>
-0.643891

>  <RMSD>
3.729

$$$$
lig.pdb
 OpenBabel11021811453D
libRbt.so/2013.1/901 2013/11/27
 42 45  0  0  0  0  0  0  0  0999 V2000
    0.7880    4.5320   -0.8996 C   0  0  2  0  0  0  0  0  0  0  0  0
    1.9381    4.2930   -0.0862 O   0  0  0  0  0  0  0  0  0  0  0  0
    0.8846    5.8979   -1.5958 C   0  0  2  0  0  0  0  0  0  0  0  0
    2.1392    6.0138   -2.3619 N   0  0  0  0  0  0  0  0  0  0  0  0
    0.7501    7.0422   -0.5828 C   0  0  1  0  0  0  0  0  0  0  0  0
    0.6900    8.2757   -1.2729 O   0  0  0  0  0  0  0  0  0  0  0  0
   -0.5256    6.8647    0.2543 C   0  0  2  0  0  0  0  0  0  0  0  0
   -0.5499    7.8356    1.2829 O   0  0  0  0  0  0  0  0  0  0  0  0
   -0.6075    5.4521    0.8677 C   0  0  2  0  0  0  0  0  0  0  0  0
   -0.4050    4.4462   -0.1243 O   0  0  0  0  0  0  0  0  0  0  0  0
   -2.0019    5.2851    1.5010 C   0  0  0  0  0  0  0  0  0  0  0  0
   -2.8944    4.5038    0.6624 O   0  0  0  0  0  0  0  0  0  0  0  0
    2.4836    0.0292   -0.3175 C   0  0  2  0  0  0  0  0  0  0  0  0
    2.9674   -1.2613    0.2127 N   0  0  0  0  0  0  0  0  0  0  0  0
    3.6543    0.9951   -0.5164 C   0  0  0  0  0  0  0  0  0  0  0  0
    3.1496    2.3728   -0.9286 C   0  0  2  0  0  0  0  0  0  0  0  0
    4.2818    3.2636   -1.2121 N   0  0  0  0  0  0  0  0  0  0  0  0
    2.2488    2.9220    0.2021 C   0  0  2  0  0  0  0  0  0  0  0  0
    1.0242    2.0685    0.2885 C   0  0  2  0  0  0  0  0  0  0  0  0
    0.1956    2.6124    1.2995 O   0  0  0  0  0  0  0  0  0  0  0  0
    1.4194    0.6404    0.6133 C   0  0  1  0  0  0  0  0  0  0  0  0
    0.3038   -0.2304    0.6246 O   0  0  0  0  0  0  0  0  0  0  0  0
    0.7658    2.8102    2.5889 C   0  0  1  0  0  0  0  0  0  0  0  0
   -0.3815    2.9235    3.5951 C   0  0  2  0  0  0  0  0  0  0  0  0
   -0.0352    3.8620    4.5962 O   0  0  0  0  0  0  0  0  0  0  0  0
   -0.4921    1.4906    4.1331 C   0  0  2  0  0  0  0  0  0  0  0  0
   -1.1424    1.4249    5.4026 O   0  0  0  0  0  0  0  0  0  0  0  0
    0.9901    1.0969    4.1473 C   0  0  2  0  0  0  0  0  0  0  0  0
    1.5221    1.6641    2.9583 O   0  0  0  0  0  0  0  0  0  0  0  0
    1.2435   -0.4151    4.1343 C   0  0  0  0  0  0  0  0  0  0  0  0
    0.7372   -1.0173    2.9621 O   0  0  0  0  0  0  0  0  0  0  0  0
   -1.0018    0.1769    6.0786 C   0  0  2  0  0  0  0  0  0  0  0  0
   -2.1355   -0.0557    7.0889 C   0  0  2  0  0  0  0  0  0  0  0  0
   -3.4515    0.0548    6.4379 N   0  0  0  0  0  0  0  0  0  0  0  0
   -2.0174    0.9014    8.2846 C   0  0  1  0  0  0  0  0  0  0  0  0
   -3.0316    0.5845    9.2184 O   0  0  0  0  0  0  0  0  0  0  0  0
   -0.6308    0.7131    8.9231 C   0  0  2  0  0  0  0  0  0  0  0  0
   -0.4530    1.6055   10.0078 O   0  0  0  0  0  0  0  0  0  0  0  0
    0.4889    0.9038    7.8793 C   0  0  1  0  0  0  0  0  0  0  0  0
    0.2682    0.0949    6.7216 O   0  0  0  0  0  0  0  0  0  0  0  0
    0.7355    2.3748    7.5128 C   0  0  0  0  0  0  0  0  0  0  0  0
    2.0050    2.5409    6.7869 N   0  0  0  0  0  0  0  0  0  0  0  0
  1  3  1  0  0  0  0
  1  2  1  1  0  0  0
  3  4  1  1  0  0  0
  5  6  1  6  0  0  0
  5  3  1  0  0  0  0
  7  9  1  0  0  0  0
  7  5  1  0  0  0  0
  7  8  1  1  0  0  0
  9 10  1  0  0  0  0
  9 11  1  6  0  0  0
 10  1  1  0  0  0  0
 11 12  1  0  0  0  0
 13 14  1  1  0  0  0
 13 21  1  0  0  0  0
 15 13  1  0  0  0  0
 16 15  1  0  0  0  0
 16 18  1  0  0  0  0
 16 17  1  1  0  0  0
 18  2  1  6  0  0  0
 18 19  1  0  0  0  0
 19 21  1  0  0  0  0
 19 20  1  1  0  0  0
 21 22  1  6  0  0  0
 23 20  1  6  0  0  0
 23 29  1  0  0  0  0
 23 24  1  0  0  0  0
 24 26  1  0  0  0  0
 24 25  1  1  0  0  0
 26 27  1  1  0  0  0
 28 26  1  0  0  0  0
 28 30  1  6  0  0  0
 29 28  1  0  0  0  0
 30 31  1  0  0  0  0
 32 27  1  1  0  0  0
 32 40  1  0  0  0  0
 32 33  1  0  0  0  0
 33 35  1  0  0  0  0
 33 34  1  6  0  0  0
 35 37  1  0  0  0  0
 35 36  1  1  0  0  0
 37 38  1  1  0  0  0
 39 37  1  0  0  0  0
 39 41  1  6  0  0  0
 40 39  1  0  0  0  0
 42 41  1  0  0  0  0
M  END
>  <CHROM.1>
87.91472567,-156.72646036,-42.67469377,47.59370083,-55.34812961,-45.99163757
101.69554687,-56.62198193,16.72051716,-54.05061380,-160.54276111,80.02045759
-168.88346107,-166.43580326,-156.32565048,62.04959262,-169.26170986,-164.31284334
70.86166918,-176.15021602,165.93200706,158.75006293,0.37333916,2.56751810
2.80371914,1.15205148,0.96613783,-0.75765321

>  <Name>
lig.pdb

>  <RI>
0

>  <Rbt.Current_Directory>
/home/itssahil/PROJECTS/Mol_Feturizer/New_Systems/rnas/2mxs

>  <Rbt.Executable>
rbdock ($Id: //depot/dev/client3/rdock/2013.1/src/exe/rbdock.cxx#4 $)

>  <Rbt.Library>
libRbt.so (2013.1, Build901 2013/11/27)

>  <Rbt.Parameter_File>
/export/apps/rDock/src/rDock_2013.1_src/data/scripts/dock_solv.prm

>  <Rbt.Receptor>
prm/blind_docking_80.prm

>  <SCORE>
-16.8928

>  <SCORE.INTER>
-40.6239

>  <SCORE.INTER.CONST>
1

>  <SCORE.INTER.POLAR>
-6.57696

>  <SCORE.INTER.ROT>
9

>  <SCORE.INTER.SOLV>
24.0995

>  <SCORE.INTER.VDW>
-22.7925

>  <SCORE.INTER.norm>
-0.967235

>  <SCORE.INTRA>
7.28409

>  <SCORE.INTRA.DIHEDRAL>
-3.26868

>  <SCORE.INTRA.DIHEDRAL.0>
30.1357

>  <SCORE.INTRA.POLAR>
-0.0928119

>  <SCORE.INTRA.POLAR.0>
-0.631696

>  <SCORE.INTRA.REPUL>
0

>  <SCORE.INTRA.REPUL.0>
0

>  <SCORE.INTRA.SOLV>
3.34496

>  <SCORE.INTRA.SOLV.lig_0>
-55.904

>  <SCORE.INTRA.VDW>
7.56151

>  <SCORE.INTRA.VDW.0>
-8.21197

>  <SCORE.INTRA.norm>
0.173431

>  <SCORE.RESTR>
16.4469

>  <SCORE.RESTR.CAVITY>
16.4469

>  <SCORE.RESTR.norm>
0.391593

>  <SCORE.SYSTEM>
0

>  <SCORE.SYSTEM.CONST>
0

>  <SCORE.SYSTEM.DIHEDRAL>
0

>  <SCORE.SYSTEM.SOLV>
0

>  <SCORE.SYSTEM.norm>
0

>  <SCORE.heavy>
42

>  <SCORE.norm>
-0.402211

>  <RMSD>
3.794

$$$$
lig.pdb
 OpenBabel11021811453D
libRbt.so/2013.1/901 2013/11/27
 42 45  0  0  0  0  0  0  0  0999 V2000
    2.0033    4.4013    0.5113 C   0  0  2  0  0  0  0  0  0  0  0  0
    1.0179    3.3925    0.2815 O   0  0  0  0  0  0  0  0  0  0  0  0
    1.3945    5.8041    0.3653 C   0  0  2  0  0  0  0  0  0  0  0  0
    0.2208    5.9656    1.2431 N   0  0  0  0  0  0  0  0  0  0  0  0
    1.0336    6.0974   -1.0966 C   0  0  1  0  0  0  0  0  0  0  0  0
    0.6209    7.4453   -1.2171 O   0  0  0  0  0  0  0  0  0  0  0  0
    2.2491    5.8543   -2.0040 C   0  0  2  0  0  0  0  0  0  0  0  0
    1.8552    5.9757   -3.3573 O   0  0  0  0  0  0  0  0  0  0  0  0
    2.8653    4.4614   -1.7626 C   0  0  2  0  0  0  0  0  0  0  0  0
    3.1084    4.2382   -0.3740 O   0  0  0  0  0  0  0  0  0  0  0  0
    4.1917    4.3829   -2.5422 C   0  0  0  0  0  0  0  0  0  0  0  0
    4.8285    3.0838   -2.4104 O   0  0  0  0  0  0  0  0  0  0  0  0
   -0.0872   -0.1283    2.4982 C   0  0  2  0  0  0  0  0  0  0  0  0
    0.1495   -1.1528    3.5349 N   0  0  0  0  0  0  0  0  0  0  0  0
    1.0296   -0.1623    1.4519 C   0  0  0  0  0  0  0  0  0  0  0  0
    0.8691    0.9819    0.4580 C   0  0  2  0  0  0  0  0  0  0  0  0
    1.8857    0.8834   -0.5969 N   0  0  0  0  0  0  0  0  0  0  0  0
    0.9633    2.3179    1.2310 C   0  0  2  0  0  0  0  0  0  0  0  0
   -0.2191    2.4233    2.1401 C   0  0  2  0  0  0  0  0  0  0  0  0
   -0.1354    3.6698    2.8062 O   0  0  0  0  0  0  0  0  0  0  0  0
   -0.2072    1.2721    3.1281 C   0  0  1  0  0  0  0  0  0  0  0  0
   -1.3516    1.2747    3.9609 O   0  0  0  0  0  0  0  0  0  0  0  0
   -1.2227    4.0483    3.6437 C   0  0  1  0  0  0  0  0  0  0  0  0
   -0.6426    4.5163    4.9801 C   0  0  2  0  0  0  0  0  0  0  0  0
   -1.5097    4.1275    6.0287 O   0  0  0  0  0  0  0  0  0  0  0  0
   -0.5741    6.0383    4.7958 C   0  0  2  0  0  0  0  0  0  0  0  0
   -0.5256    6.7442    6.0360 O   0  0  0  0  0  0  0  0  0  0  0  0
   -1.8499    6.2644    3.9753 C   0  0  2  0  0  0  0  0  0  0  0  0
   -1.8968    5.1647    3.0770 O   0  0  0  0  0  0  0  0  0  0  0  0
   -1.8605    7.5677    3.1679 C   0  0  0  0  0  0  0  0  0  0  0  0
   -0.5772    7.8818    2.6705 O   0  0  0  0  0  0  0  0  0  0  0  0
   -0.6252    8.1619    5.9173 C   0  0  2  0  0  0  0  0  0  0  0  0
    0.2059    8.8841    6.9887 C   0  0  2  0  0  0  0  0  0  0  0  0
    1.6098    8.4416    6.9525 N   0  0  0  0  0  0  0  0  0  0  0  0
   -0.4068    8.6973    8.3849 C   0  0  1  0  0  0  0  0  0  0  0  0
    0.3476    9.4516    9.3136 O   0  0  0  0  0  0  0  0  0  0  0  0
   -1.8601    9.1997    8.3494 C   0  0  2  0  0  0  0  0  0  0  0  0
   -2.4870    9.0099    9.6046 O   0  0  0  0  0  0  0  0  0  0  0  0
   -2.6613    8.4956    7.2349 C   0  0  1  0  0  0  0  0  0  0  0  0
   -1.9884    8.5757    5.9763 O   0  0  0  0  0  0  0  0  0  0  0  0
   -3.0526    7.0523    7.5854 C   0  0  0  0  0  0  0  0  0  0  0  0
   -4.0675    7.0156    8.6508 N   0  0  0  0  0  0  0  0  0  0  0  0
  1  3  1  0  0  0  0
  1  2  1  6  0  0  0
  3  4  1  1  0  0  0
  5  6  1  1  0  0  0
  5  3  1  0  0  0  0
  7  9  1  0  0  0  0
  7  5  1  0  0  0  0
  7  8  1  6  0  0  0
  9 10  1  0  0  0  0
  9 11  1  6  0  0  0
 10  1  1  0  0  0  0
 11 12  1  0  0  0  0
 13 14  1  1  0  0  0
 13 21  1  0  0  0  0
 15 13  1  0  0  0  0
 16 15  1  0  0  0  0
 16 18  1  0  0  0  0
 16 17  1  6  0  0  0
 18  2  1  6  0  0  0
 18 19  1  0  0  0  0
 19 21  1  0  0  0  0
 19 20  1  1  0  0  0
 21 22  1  6  0  0  0
 23 20  1  6  0  0  0
 23 29  1  0  0  0  0
 23 24  1  0  0  0  0
 24 26  1  0  0  0  0
 24 25  1  1  0  0  0
 26 27  1  1  0  0  0
 28 26  1  0  0  0  0
 28 30  1  6  0  0  0
 29 28  1  0  0  0  0
 30 31  1  0  0  0  0
 32 27  1  1  0  0  0
 32 40  1  0  0  0  0
 32 33  1  0  0  0  0
 33 35  1  0  0  0  0
 33 34  1  1  0  0  0
 35 37  1  0  0  0  0
 35 36  1  1  0  0  0
 37 38  1  1  0  0  0
 39 37  1  0  0  0  0
 39 41  1  1  0  0  0
 40 39  1  0  0  0  0
 42 41  1  0  0  0  0
M  END
>  <CHROM.1>
-134.09595320,-133.22076151,21.55772977,-164.32818422,62.48495249,-56.02598666
-178.12559329,-43.86076126,-176.73391856,174.56594894,131.67638540,-58.35021186
-56.20302726,-172.73474374,-146.24523157,35.77406595,-61.77236228,-167.92760092
60.06658361,57.59221500,69.61619927,64.89162948,0.06240807,5.20100683,3.14977759
-0.68038721,1.10777520,0.19954077

>  <Name>
lig.pdb

>  <RI>
0

>  <Rbt.Current_Directory>
/home/itssahil/PROJECTS/Mol_Feturizer/New_Systems/rnas/2mxs

>  <Rbt.Executable>
rbdock ($Id: //depot/dev/client3/rdock/2013.1/src/exe/rbdock.cxx#4 $)

>  <Rbt.Library>
libRbt.so (2013.1, Build901 2013/11/27)

>  <Rbt.Parameter_File>
/export/apps/rDock/src/rDock_2013.1_src/data/scripts/dock_solv.prm

>  <Rbt.Receptor>
prm/pocket_docking_6.prm

>  <SCORE>
-32.4767

>  <SCORE.INTER>
-30.6668

>  <SCORE.INTER.CONST>
1

>  <SCORE.INTER.POLAR>
-3.86257

>  <SCORE.INTER.ROT>
9

>  <SCORE.INTER.SOLV>
22.7135

>  <SCORE.INTER.VDW>
-24.7405

>  <SCORE.INTER.norm>
-0.730162

>  <SCORE.INTRA>
-1.80995

>  <SCORE.INTRA.DIHEDRAL>
1.51791

>  <SCORE.INTRA.DIHEDRAL.0>
30.1357

>  <SCORE.INTRA.POLAR>
-1.85666

>  <SCORE.INTRA.POLAR.0>
-0.631696

>  <SCORE.INTRA.REPUL>
0.0506665

>  <SCORE.INTRA.REPUL.0>
0

>  <SCORE.INTRA.SOLV>
2.15609

>  <SCORE.INTRA.SOLV.lig_0>
-55.904

>  <SCORE.INTRA.VDW>
2.41236

>  <SCORE.INTRA.VDW.0>
-8.21197

>  <SCORE.INTRA.norm>
-0.0430941

>  <SCORE.RESTR>
0

>  <SCORE.RESTR.CAVITY>
0

>  <SCORE.RESTR.norm>
0

>  <SCORE.SYSTEM>
0

>  <SCORE.SYSTEM.CONST>
0

>  <SCORE.SYSTEM.DIHEDRAL>
0

>  <SCORE.SYSTEM.SOLV>
0

>  <SCORE.SYSTEM.norm>
0

>  <SCORE.heavy>
42

>  <SCORE.norm>
-0.773256

>  <RMSD>
3.850

$$$$
lig.pdb
 OpenBabel11021811453D
libRbt.so/2013.1/901 2013/11/27
 42 45  0  0  0  0  0  0  0  0999 V2000
    0.0143    3.6836    0.2710 C   0  0  2  0  0  0  0  0  0  0  0  0
   -0.7205    3.1694   -0.8413 O   0  0  0  0  0  0  0  0  0  0  0  0
    1.3697    4.2468   -0.1819 C   0  0  2  0  0  0  0  0  0  0  0  0
    1.1956    5.2542   -1.2446 N   0  0  0  0  0  0  0  0  0  0  0  0
    2.3081    3.1220   -0.6375 C   0  0  1  0  0  0  0  0  0  0  0  0
    3.5907    3.6580   -0.9006 O   0  0  0  0  0  0  0  0  0  0  0  0
    2.4199    2.0472    0.4543 C   0  0  2  0  0  0  0  0  0  0  0  0
    3.1585    0.9483   -0.0439 O   0  0  0  0  0  0  0  0  0  0  0  0
    1.0301    1.5721    0.9245 C   0  0  2  0  0  0  0  0  0  0  0  0
    0.1946    2.6780    1.2650 O   0  0  0  0  0  0  0  0  0  0  0  0
    1.2246    0.6681    2.1567 C   0  0  0  0  0  0  0  0  0  0  0  0
    2.5987    0.2174    2.2940 O   0  0  0  0  0  0  0  0  0  0  0  0
   -3.7112    0.0765   -0.9851 C   0  0  2  0  0  0  0  0  0  0  0  0
   -4.2503   -1.2445   -0.6049 N   0  0  0  0  0  0  0  0  0  0  0  0
   -2.3642   -0.0828   -1.6946 C   0  0  0  0  0  0  0  0  0  0  0  0
   -1.7351    1.2789   -1.9643 C   0  0  2  0  0  0  0  0  0  0  0  0
   -0.4930    1.1206   -2.7310 N   0  0  0  0  0  0  0  0  0  0  0  0
   -1.4939    1.9832   -0.6088 C   0  0  2  0  0  0  0  0  0  0  0  0
   -2.8209    2.2834    0.0114 C   0  0  2  0  0  0  0  0  0  0  0  0
   -2.5785    2.9640    1.2290 O   0  0  0  0  0  0  0  0  0  0  0  0
   -3.5779    0.9902    0.2477 C   0  0  1  0  0  0  0  0  0  0  0  0
   -4.8780    1.2209    0.7571 O   0  0  0  0  0  0  0  0  0  0  0  0
   -3.2334    4.2116    1.4330 C   0  0  1  0  0  0  0  0  0  0  0  0
   -3.3921    4.4152    2.9412 C   0  0  2  0  0  0  0  0  0  0  0  0
   -4.6198    5.0705    3.1984 O   0  0  0  0  0  0  0  0  0  0  0  0
   -2.1711    5.2776    3.2886 C   0  0  2  0  0  0  0  0  0  0  0  0
   -2.3321    5.9978    4.5110 O   0  0  0  0  0  0  0  0  0  0  0  0
   -2.0967    6.1519    2.0307 C   0  0  2  0  0  0  0  0  0  0  0  0
   -2.4064    5.2683    0.9622 O   0  0  0  0  0  0  0  0  0  0  0  0
   -0.7209    6.7785    1.7758 C   0  0  0  0  0  0  0  0  0  0  0  0
   -0.5270    7.0688    0.4079 O   0  0  0  0  0  0  0  0  0  0  0  0
   -2.3987    5.1805    5.6779 C   0  0  2  0  0  0  0  0  0  0  0  0
   -3.5219    5.6289    6.6253 C   0  0  2  0  0  0  0  0  0  0  0  0
   -4.8166    5.6681    5.9251 N   0  0  0  0  0  0  0  0  0  0  0  0
   -3.1926    6.9815    7.2746 C   0  0  1  0  0  0  0  0  0  0  0  0
   -4.2162    7.3006    8.1972 O   0  0  0  0  0  0  0  0  0  0  0  0
   -1.8430    6.8561    8.0018 C   0  0  2  0  0  0  0  0  0  0  0  0
   -1.4704    8.0918    8.5838 O   0  0  0  0  0  0  0  0  0  0  0  0
   -0.7423    6.3585    7.0425 C   0  0  1  0  0  0  0  0  0  0  0  0
   -1.1443    5.1710    6.3558 O   0  0  0  0  0  0  0  0  0  0  0  0
   -0.2446    7.4409    6.0732 C   0  0  0  0  0  0  0  0  0  0  0  0
    1.2235    7.4332    5.9690 N   0  0  0  0  0  0  0  0  0  0  0  0
  1  3  1  0  0  0  0
  1  2  1  6  0  0  0
  3  4  1  6  0  0  0
  5  6  1  1  0  0  0
  5  3  1  0  0  0  0
  7  9  1  0  0  0  0
  7  5  1  0  0  0  0
  7  8  1  6  0  0  0
  9 10  1  0  0  0  0
  9 11  1  1  0  0  0
 10  1  1  0  0  0  0
 11 12  1  0  0  0  0
 13 14  1  1  0  0  0
 13 21  1  0  0  0  0
 15 13  1  0  0  0  0
 16 15  1  0  0  0  0
 16 18  1  0  0  0  0
 16 17  1  1  0  0  0
 18  2  1  6  0  0  0
 18 19  1  0  0  0  0
 19 21  1  0  0  0  0
 19 20  1  1  0  0  0
 21 22  1  6  0  0  0
 23 20  1  1  0  0  0
 23 29  1  0  0  0  0
 23 24  1  0  0  0  0
 24 26  1  0  0  0  0
 24 25  1  6  0  0  0
 26 27  1  1  0  0  0
 28 26  1  0  0  0  0
 28 30  1  6  0  0  0
 29 28  1  0  0  0  0
 30 31  1  0  0  0  0
 32 27  1  6  0  0  0
 32 40  1  0  0  0  0
 32 33  1  0  0  0  0
 33 35  1  0  0  0  0
 33 34  1  6  0  0  0
 35 37  1  0  0  0  0
 35 36  1  1  0  0  0
 37 38  1  6  0  0  0
 39 37  1  0  0  0  0
 39 41  1  6  0  0  0
 40 39  1  0  0  0  0
 42 41  1  0  0  0  0
M  END
>  <CHROM.1>
-157.65350623,142.96955442,-60.59768939,-70.60732458,172.76937557,76.12997469
-16.21155376,-1.43753044,-48.87963433,126.61244329,153.12831433,59.47528838
51.16566646,66.40605080,-135.57613734,154.85445546,55.17626791,-46.45827651
-177.08619875,60.29037560,135.81310101,-166.10671002,-1.25504747,3.92417045
2.22885724,-1.35337794,0.21964094,0.90220754

>  <Name>
lig.pdb

>  <RI>
0

>  <Rbt.Current_Directory>
/home/itssahil/PROJECTS/Mol_Feturizer/New_Systems/rnas/2mxs

>  <Rbt.Executable>
rbdock ($Id: //depot/dev/client3/rdock/2013.1/src/exe/rbdock.cxx#4 $)

>  <Rbt.Library>
libRbt.so (2013.1, Build901 2013/11/27)

>  <Rbt.Parameter_File>
/export/apps/rDock/src/rDock_2013.1_src/data/scripts/dock_solv.prm

>  <Rbt.Receptor>
prm/pocket_docking_4.prm

>  <SCORE>
-45.0779

>  <SCORE.INTER>
-52.2342

>  <SCORE.INTER.CONST>
1

>  <SCORE.INTER.POLAR>
-6.47149

>  <SCORE.INTER.ROT>
9

>  <SCORE.INTER.SOLV>
22.6974

>  <SCORE.INTER.VDW>
-30.417

>  <SCORE.INTER.norm>
-1.24367

>  <SCORE.INTRA>
6.33767

>  <SCORE.INTRA.DIHEDRAL>
11.8085

>  <SCORE.INTRA.DIHEDRAL.0>
30.1357

>  <SCORE.INTRA.POLAR>
-1.32173

>  <SCORE.INTRA.POLAR.0>
-0.631696

>  <SCORE.INTRA.REPUL>
0

>  <SCORE.INTRA.REPUL.0>
0

>  <SCORE.INTRA.SOLV>
1.48785

>  <SCORE.INTRA.SOLV.lig_0>
-55.904

>  <SCORE.INTRA.VDW>
4.18336

>  <SCORE.INTRA.VDW.0>
-8.21197

>  <SCORE.INTRA.norm>
0.150897

>  <SCORE.RESTR>
0.818638

>  <SCORE.RESTR.CAVITY>
0.818638

>  <SCORE.RESTR.norm>
0.0194914

>  <SCORE.SYSTEM>
0

>  <SCORE.SYSTEM.CONST>
0

>  <SCORE.SYSTEM.DIHEDRAL>
0

>  <SCORE.SYSTEM.SOLV>
0

>  <SCORE.SYSTEM.norm>
0

>  <SCORE.heavy>
42

>  <SCORE.norm>
-1.07328

>  <RMSD>
3.888

$$$$
lig.pdb
 OpenBabel11021811453D
libRbt.so/2013.1/901 2013/11/27
 42 45  0  0  0  0  0  0  0  0999 V2000
   -0.9089    3.0253    1.1616 C   0  0  2  0  0  0  0  0  0  0  0  0
   -1.9090    2.4903    0.2925 O   0  0  0  0  0  0  0  0  0  0  0  0
    0.0889    3.8924    0.3791 C   0  0  2  0  0  0  0  0  0  0  0  0
   -0.6082    4.9474   -0.3794 N   0  0  0  0  0  0  0  0  0  0  0  0
    0.9580    3.0313   -0.5464 C   0  0  1  0  0  0  0  0  0  0  0  0
    1.9615    3.8379   -1.1329 O   0  0  0  0  0  0  0  0  0  0  0  0
    1.6185    1.8951    0.2489 C   0  0  2  0  0  0  0  0  0  0  0  0
    2.2845    1.0235   -0.6446 O   0  0  0  0  0  0  0  0  0  0  0  0
    0.5820    1.1052    1.0735 C   0  0  2  0  0  0  0  0  0  0  0  0
   -0.2312    1.9802    1.8546 O   0  0  0  0  0  0  0  0  0  0  0  0
    1.3435    0.1377    1.9995 C   0  0  0  0  0  0  0  0  0  0  0  0
    0.4961   -0.9386    2.4831 O   0  0  0  0  0  0  0  0  0  0  0  0
   -5.6680    0.8457    1.5949 C   0  0  2  0  0  0  0  0  0  0  0  0
   -6.4874   -0.1908    2.2540 N   0  0  0  0  0  0  0  0  0  0  0  0
   -4.9017    0.2463    0.4132 C   0  0  0  0  0  0  0  0  0  0  0  0
   -3.9476    1.2735   -0.1846 C   0  0  2  0  0  0  0  0  0  0  0  0
   -3.2904    0.7219   -1.3761 N   0  0  0  0  0  0  0  0  0  0  0  0
   -2.9273    1.6840    0.9026 C   0  0  2  0  0  0  0  0  0  0  0  0
   -3.6566    2.4136    1.9848 C   0  0  2  0  0  0  0  0  0  0  0  0
   -2.6997    2.8162    2.9476 O   0  0  0  0  0  0  0  0  0  0  0  0
   -4.7024    1.5026    2.5993 C   0  0  1  0  0  0  0  0  0  0  0  0
   -5.4814    2.1695    3.5746 O   0  0  0  0  0  0  0  0  0  0  0  0
   -3.0875    3.8066    3.8939 C   0  0  1  0  0  0  0  0  0  0  0  0
   -2.1913    3.6536    5.1247 C   0  0  2  0  0  0  0  0  0  0  0  0
   -2.9436    3.9362    6.2896 O   0  0  0  0  0  0  0  0  0  0  0  0
   -1.0885    4.6878    4.8612 C   0  0  2  0  0  0  0  0  0  0  0  0
   -0.4055    5.0837    6.0510 O   0  0  0  0  0  0  0  0  0  0  0  0
   -1.9153    5.7941    4.1945 C   0  0  2  0  0  0  0  0  0  0  0  0
   -2.8347    5.1010    3.3622 O   0  0  0  0  0  0  0  0  0  0  0  0
   -1.0976    6.7639    3.3335 C   0  0  0  0  0  0  0  0  0  0  0  0
   -0.3417    6.0809    2.3561 O   0  0  0  0  0  0  0  0  0  0  0  0
    0.9493    5.4832    5.8537 C   0  0  2  0  0  0  0  0  0  0  0  0
    1.7737    5.3622    7.1444 C   0  0  2  0  0  0  0  0  0  0  0  0
    1.6927    3.9989    7.6947 N   0  0  0  0  0  0  0  0  0  0  0  0
    1.3418    6.4127    8.1785 C   0  0  1  0  0  0  0  0  0  0  0  0
    2.1888    6.3105    9.3068 O   0  0  0  0  0  0  0  0  0  0  0  0
    1.4737    7.8061    7.5406 C   0  0  2  0  0  0  0  0  0  0  0  0
    1.0457    8.8119    8.4404 O   0  0  0  0  0  0  0  0  0  0  0  0
    0.6773    7.8880    6.2221 C   0  0  1  0  0  0  0  0  0  0  0  0
    1.0108    6.8125    5.3416 O   0  0  0  0  0  0  0  0  0  0  0  0
   -0.8393    8.0072    6.4334 C   0  0  0  0  0  0  0  0  0  0  0  0
   -1.3957    9.1506    5.6922 N   0  0  0  0  0  0  0  0  0  0  0  0
  1  3  1  0  0  0  0
  1  2  1  6  0  0  0
  3  4  1  6  0  0  0
  5  6  1  1  0  0  0
  5  3  1  0  0  0  0
  7  9  1  0  0  0  0
  7  5  1  0  0  0  0
  7  8  1  6  0  0  0
  9 10  1  0  0  0  0
  9 11  1  1  0  0  0
 10  1  1  0  0  0  0
 11 12  1  0  0  0  0
 13 14  1  1  0  0  0
 13 21  1  0  0  0  0
 15 13  1  0  0  0  0
 16 15  1  0  0  0  0
 16 18  1  0  0  0  0
 16 17  1  6  0  0  0
 18  2  1  6  0  0  0
 18 19  1  0  0  0  0
 19 21  1  0  0  0  0
 19 20  1  1  0  0  0
 21 22  1  1  0  0  0
 23 20  1  6  0  0  0
 23 29  1  0  0  0  0
 23 24  1  0  0  0  0
 24 26  1  0  0  0  0
 24 25  1  1  0  0  0
 26 27  1  1  0  0  0
 28 26  1  0  0  0  0
 28 30  1  6  0  0  0
 29 28  1  0  0  0  0
 30 31  1  0  0  0  0
 32 27  1  1  0  0  0
 32 40  1  0  0  0  0
 32 33  1  0  0  0  0
 33 35  1  0  0  0  0
 33 34  1  1  0  0  0
 35 37  1  0  0  0  0
 35 36  1  1  0  0  0
 37 38  1  1  0  0  0
 39 37  1  0  0  0  0
 39 41  1  1  0  0  0
 40 39  1  0  0  0  0
 42 41  1  0  0  0  0
M  END
>  <CHROM.1>
176.80577575,-178.54463244,-162.87123941,57.03172724,176.04051836,167.16228042
-160.99717395,-52.27005190,49.86707398,164.51019175,156.38968490,-62.63952141
-62.09166133,151.10660793,-157.56482048,54.74763940,-166.46053538,-52.87994426
176.58866662,69.71772610,127.67051452,46.19182173,-1.03664382,3.83871010
3.31549072,-1.92997108,0.25540641,0.94134721

>  <Name>
lig.pdb

>  <RI>
3.99633e+07

>  <Rbt.Current_Directory>
/home/itssahil/PROJECTS/Mol_Feturizer/New_Systems/rnas/2mxs

>  <Rbt.Executable>
rbdock ($Id: //depot/dev/client3/rdock/2013.1/src/exe/rbdock.cxx#4 $)

>  <Rbt.Library>
libRbt.so (2013.1, Build901 2013/11/27)

>  <Rbt.Parameter_File>
/export/apps/rDock/src/rDock_2013.1_src/data/scripts/dock_solv.prm

>  <Rbt.Receptor>
prm/pocket_docking_5.prm

>  <SCORE>
-37.1881

>  <SCORE.INTER>
-35.4297

>  <SCORE.INTER.CONST>
1

>  <SCORE.INTER.POLAR>
-4.17167

>  <SCORE.INTER.ROT>
9

>  <SCORE.INTER.SOLV>
17.8812

>  <SCORE.INTER.VDW>
-25.2746

>  <SCORE.INTER.norm>
-0.843563

>  <SCORE.INTRA>
-1.75848

>  <SCORE.INTRA.DIHEDRAL>
-10.0932

>  <SCORE.INTRA.DIHEDRAL.0>
30.1357

>  <SCORE.INTRA.POLAR>
0.0572883

>  <SCORE.INTRA.POLAR.0>
-0.631696

>  <SCORE.INTRA.REPUL>
0

>  <SCORE.INTRA.REPUL.0>
0

>  <SCORE.INTRA.SOLV>
-0.0726633

>  <SCORE.INTRA.SOLV.lig_0>
-55.904

>  <SCORE.INTRA.VDW>
3.12967

>  <SCORE.INTRA.VDW.0>
-8.21197

>  <SCORE.INTRA.norm>
-0.0418685

>  <SCORE.RESTR>
0

>  <SCORE.RESTR.CAVITY>
0

>  <SCORE.RESTR.norm>
0

>  <SCORE.SYSTEM>
0

>  <SCORE.SYSTEM.CONST>
0

>  <SCORE.SYSTEM.DIHEDRAL>
0

>  <SCORE.SYSTEM.SOLV>
0

>  <SCORE.SYSTEM.norm>
0

>  <SCORE.heavy>
42

>  <SCORE.norm>
-0.885432

>  <RMSD>
3.895

$$$$
lig.pdb
 OpenBabel11021811453D
libRbt.so/2013.1/901 2013/11/27
 42 45  0  0  0  0  0  0  0  0999 V2000
    0.1618    3.5386    1.8156 C   0  0  2  0  0  0  0  0  0  0  0  0
   -1.2610    3.4188    1.7630 O   0  0  0  0  0  0  0  0  0  0  0  0
    0.6479    4.6859    0.9172 C   0  0  2  0  0  0  0  0  0  0  0  0
   -0.0279    5.9504    1.2618 N   0  0  0  0  0  0  0  0  0  0  0  0
    0.4534    4.3436   -0.5655 C   0  0  1  0  0  0  0  0  0  0  0  0
    1.0485    5.3501   -1.3619 O   0  0  0  0  0  0  0  0  0  0  0  0
    1.1023    2.9891   -0.8885 C   0  0  2  0  0  0  0  0  0  0  0  0
    0.7773    2.6183   -2.2145 O   0  0  0  0  0  0  0  0  0  0  0  0
    0.6367    1.8915    0.0896 C   0  0  2  0  0  0  0  0  0  0  0  0
    0.7856    2.3115    1.4455 O   0  0  0  0  0  0  0  0  0  0  0  0
    1.4889    0.6330   -0.1619 C   0  0  0  0  0  0  0  0  0  0  0  0
    2.9063    0.8830    0.0353 O   0  0  0  0  0  0  0  0  0  0  0  0
   -3.8633    0.4720    3.5167 C   0  0  2  0  0  0  0  0  0  0  0  0
   -4.2144   -0.9143    3.8840 N   0  0  0  0  0  0  0  0  0  0  0  0
   -3.7083    0.5972    1.9990 C   0  0  0  0  0  0  0  0  0  0  0  0
   -3.2092    1.9874    1.6231 C   0  0  2  0  0  0  0  0  0  0  0  0
   -3.1577    2.1298    0.1627 N   0  0  0  0  0  0  0  0  0  0  0  0
   -1.8239    2.2025    2.2758 C   0  0  2  0  0  0  0  0  0  0  0  0
   -2.0006    2.2404    3.7600 C   0  0  2  0  0  0  0  0  0  0  0  0
   -0.7291    2.4796    4.3351 O   0  0  0  0  0  0  0  0  0  0  0  0
   -2.5795    0.9225    4.2388 C   0  0  1  0  0  0  0  0  0  0  0  0
   -2.8465    0.9329    5.6287 O   0  0  0  0  0  0  0  0  0  0  0  0
   -0.6388    2.5088    5.7556 C   0  0  1  0  0  0  0  0  0  0  0  0
    0.7176    3.1128    6.1255 C   0  0  2  0  0  0  0  0  0  0  0  0
    1.2145    2.4723    7.2855 O   0  0  0  0  0  0  0  0  0  0  0  0
    0.3690    4.5886    6.3617 C   0  0  2  0  0  0  0  0  0  0  0  0
    1.3348    5.2630    7.1686 O   0  0  0  0  0  0  0  0  0  0  0  0
   -1.0144    4.4351    7.0058 C   0  0  2  0  0  0  0  0  0  0  0  0
   -1.6318    3.3812    6.2801 O   0  0  0  0  0  0  0  0  0  0  0  0
   -1.8969    5.6855    6.9155 C   0  0  0  0  0  0  0  0  0  0  0  0
   -3.0962    5.5293    7.6438 O   0  0  0  0  0  0  0  0  0  0  0  0
    0.7895    6.2258    8.0684 C   0  0  2  0  0  0  0  0  0  0  0  0
    1.0408    7.6630    7.5874 C   0  0  2  0  0  0  0  0  0  0  0  0
    0.5285    7.8577    6.2208 N   0  0  0  0  0  0  0  0  0  0  0  0
    2.5293    8.0288    7.6874 C   0  0  1  0  0  0  0  0  0  0  0  0
    2.6872    9.3842    7.3152 O   0  0  0  0  0  0  0  0  0  0  0  0
    2.9843    7.8216    9.1420 C   0  0  2  0  0  0  0  0  0  0  0  0
    4.3646    8.1045    9.2806 O   0  0  0  0  0  0  0  0  0  0  0  0
    2.6779    6.3867    9.6180 C   0  0  1  0  0  0  0  0  0  0  0  0
    1.3120    6.0375    9.3817 O   0  0  0  0  0  0  0  0  0  0  0  0
    3.6448    5.3373    9.0500 C   0  0  0  0  0  0  0  0  0  0  0  0
    3.8530    5.5265    7.6053 N   0  0  0  0  0  0  0  0  0  0  0  0
  1  3  1  0  0  0  0
  1  2  1  6  0  0  0
  3  4  1  1  0  0  0
  5  6  1  6  0  0  0
  5  3  1  0  0  0  0
  7  9  1  0  0  0  0
  7  5  1  0  0  0  0
  7  8  1  6  0  0  0
  9 10  1  0  0  0  0
  9 11  1  1  0  0  0
 10  1  1  0  0  0  0
 11 12  1  0  0  0  0
 13 14  1  6  0  0  0
 13 21  1  0  0  0  0
 15 13  1  0  0  0  0
 16 15  1  0  0  0  0
 16 18  1  0  0  0  0
 16 17  1  6  0  0  0
 18  2  1  6  0  0  0
 18 19  1  0  0  0  0
 19 21  1  0  0  0  0
 19 20  1  1  0  0  0
 21 22  1  1  0  0  0
 23 20  1  6  0  0  0
 23 29  1  0  0  0  0
 23 24  1  0  0  0  0
 24 26  1  0  0  0  0
 24 25  1  1  0  0  0
 26 27  1  1  0  0  0
 28 26  1  0  0  0  0
 28 30  1  6  0  0  0
 29 28  1  0  0  0  0
 30 31  1  0  0  0  0
 32 27  1  6  0  0  0
 32 40  1  0  0  0  0
 32 33  1  0  0  0  0
 33 35  1  0  0  0  0
 33 34  1  6  0  0  0
 35 37  1  0  0  0  0
 35 36  1  1  0  0  0
 37 38  1  6  0  0  0
 39 37  1  0  0  0  0
 39 41  1  6  0  0  0
 40 39  1  0  0  0  0
 42 41  1  0  0  0  0
M  END
>  <CHROM.1>
-156.40930046,164.93026207,140.21125213,-160.69756579,74.97292682,97.67452641
59.39470552,-173.29683910,166.90464910,-177.73622251,-166.29026865,62.73177198
65.58689939,-143.27189545,-105.16348946,-173.85403271,-74.18736466,68.66914342
-75.60460000,60.36720209,-45.90768088,-176.72359664,0.07225136,3.99102400
4.38849374,-2.00123190,0.70304799,1.28842816

>  <Name>
lig.pdb

>  <RI>
0

>  <Rbt.Current_Directory>
/home/itssahil/PROJECTS/Mol_Feturizer/New_Systems/rnas/2mxs

>  <Rbt.Executable>
rbdock ($Id: //depot/dev/client3/rdock/2013.1/src/exe/rbdock.cxx#4 $)

>  <Rbt.Library>
libRbt.so (2013.1, Build901 2013/11/27)

>  <Rbt.Parameter_File>
/export/apps/rDock/src/rDock_2013.1_src/data/scripts/dock_solv.prm

>  <Rbt.Receptor>
prm/pocket_docking_6.prm

>  <SCORE>
-22.9903

>  <SCORE.INTER>
-28.4436

>  <SCORE.INTER.CONST>
1

>  <SCORE.INTER.POLAR>
-4.82247

>  <SCORE.INTER.ROT>
9

>  <SCORE.INTER.SOLV>
14.6289

>  <SCORE.INTER.VDW>
-17.3638

>  <SCORE.INTER.norm>
-0.677228

>  <SCORE.INTRA>
5.45323

>  <SCORE.INTRA.DIHEDRAL>
0.0271783

>  <SCORE.INTRA.DIHEDRAL.0>
30.1357

>  <SCORE.INTRA.POLAR>
-0.353411

>  <SCORE.INTRA.POLAR.0>
-0.631696

>  <SCORE.INTRA.REPUL>
0.0591412

>  <SCORE.INTRA.REPUL.0>
0

>  <SCORE.INTRA.SOLV>
0.546855

>  <SCORE.INTRA.SOLV.lig_0>
-55.904

>  <SCORE.INTRA.VDW>
6.0721

>  <SCORE.INTRA.VDW.0>
-8.21197

>  <SCORE.INTRA.norm>
0.129839

>  <SCORE.RESTR>
0

>  <SCORE.RESTR.CAVITY>
0

>  <SCORE.RESTR.norm>
0

>  <SCORE.SYSTEM>
0

>  <SCORE.SYSTEM.CONST>
0

>  <SCORE.SYSTEM.DIHEDRAL>
0

>  <SCORE.SYSTEM.SOLV>
0

>  <SCORE.SYSTEM.norm>
0

>  <SCORE.heavy>
42

>  <SCORE.norm>
-0.547389

>  <RMSD>
3.935

$$$$
lig.pdb
 OpenBabel11021811453D
libRbt.so/2013.1/901 2013/11/27
 42 45  0  0  0  0  0  0  0  0999 V2000
   -0.3184    2.6321    1.7622 C   0  0  2  0  0  0  0  0  0  0  0  0
   -1.5695    1.9480    1.6716 O   0  0  0  0  0  0  0  0  0  0  0  0
    0.2442    2.9310    0.3645 C   0  0  2  0  0  0  0  0  0  0  0  0
   -0.7346    3.6717   -0.4526 N   0  0  0  0  0  0  0  0  0  0  0  0
    0.6845    1.6405   -0.3386 C   0  0  1  0  0  0  0  0  0  0  0  0
    1.3344    1.9653   -1.5526 O   0  0  0  0  0  0  0  0  0  0  0  0
    1.6475    0.8479    0.5581 C   0  0  2  0  0  0  0  0  0  0  0  0
    1.9160   -0.4071   -0.0371 O   0  0  0  0  0  0  0  0  0  0  0  0
    1.0645    0.6418    1.9708 C   0  0  2  0  0  0  0  0  0  0  0  0
    0.6157    1.8763    2.5290 O   0  0  0  0  0  0  0  0  0  0  0  0
    2.1679    0.0389    2.8610 C   0  0  0  0  0  0  0  0  0  0  0  0
    1.6495   -0.4286    4.1350 O   0  0  0  0  0  0  0  0  0  0  0  0
   -2.6072   -2.1988    2.1794 C   0  0  2  0  0  0  0  0  0  0  0  0
   -2.2896   -3.6408    2.1665 N   0  0  0  0  0  0  0  0  0  0  0  0
   -2.3931   -1.5946    0.7893 C   0  0  0  0  0  0  0  0  0  0  0  0
   -2.5823   -0.0827    0.8262 C   0  0  2  0  0  0  0  0  0  0  0  0
   -2.4721    0.4751   -0.5275 N   0  0  0  0  0  0  0  0  0  0  0  0
   -1.5312    0.5182    1.7882 C   0  0  2  0  0  0  0  0  0  0  0  0
   -1.8389    0.0535    3.1757 C   0  0  2  0  0  0  0  0  0  0  0  0
   -0.8918    0.6475    4.0444 O   0  0  0  0  0  0  0  0  0  0  0  0
   -1.7632   -1.4605    3.2352 C   0  0  1  0  0  0  0  0  0  0  0  0
   -2.1283   -1.9612    4.5076 O   0  0  0  0  0  0  0  0  0  0  0  0
   -1.0794    0.4778    5.4455 C   0  0  1  0  0  0  0  0  0  0  0  0
    0.1406    1.0684    6.1555 C   0  0  2  0  0  0  0  0  0  0  0  0
    0.4423    0.2868    7.2960 O   0  0  0  0  0  0  0  0  0  0  0  0
   -0.3362    2.4831    6.5107 C   0  0  2  0  0  0  0  0  0  0  0  0
    0.4128    3.0682    7.5763 O   0  0  0  0  0  0  0  0  0  0  0  0
   -1.8059    2.1935    6.8395 C   0  0  2  0  0  0  0  0  0  0  0  0
   -2.2062    1.2332    5.8720 O   0  0  0  0  0  0  0  0  0  0  0  0
   -2.7289    3.4137    6.7413 C   0  0  0  0  0  0  0  0  0  0  0  0
   -4.0405    3.1092    7.1655 O   0  0  0  0  0  0  0  0  0  0  0  0
   -0.0683    4.3375    8.0140 C   0  0  2  0  0  0  0  0  0  0  0  0
    0.6422    5.4953    7.2964 C   0  0  2  0  0  0  0  0  0  0  0  0
    0.5310    5.3560    5.8348 N   0  0  0  0  0  0  0  0  0  0  0  0
    2.1084    5.6066    7.7407 C   0  0  1  0  0  0  0  0  0  0  0  0
    2.6850    6.7370    7.1159 O   0  0  0  0  0  0  0  0  0  0  0  0
    2.1420    5.7708    9.2697 C   0  0  2  0  0  0  0  0  0  0  0  0
    3.4767    5.8351    9.7377 O   0  0  0  0  0  0  0  0  0  0  0  0
    1.3816    4.6232    9.9657 C   0  0  1  0  0  0  0  0  0  0  0  0
    0.0667    4.4648    9.4277 O   0  0  0  0  0  0  0  0  0  0  0  0
    2.1588    3.2987    9.9804 C   0  0  0  0  0  0  0  0  0  0  0  0
    1.2655    2.1556   10.2287 N   0  0  0  0  0  0  0  0  0  0  0  0
  1  3  1  0  0  0  0
  1  2  1  6  0  0  0
  3  4  1  6  0  0  0
  5  6  1  6  0  0  0
  5  3  1  0  0  0  0
  7  9  1  0  0  0  0
  7  5  1  0  0  0  0
  7  8  1  6  0  0  0
  9 10  1  0  0  0  0
  9 11  1  1  0  0  0
 10  1  1  0  0  0  0
 11 12  1  0  0  0  0
 13 14  1  6  0  0  0
 13 21  1  0  0  0  0
 15 13  1  0  0  0  0
 16 15  1  0  0  0  0
 16 18  1  0  0  0  0
 16 17  1  6  0  0  0
 18  2  1  1  0  0  0
 18 19  1  0  0  0  0
 19 21  1  0  0  0  0
 19 20  1  1  0  0  0
 21 22  1  1  0  0  0
 23 20  1  6  0  0  0
 23 29  1  0  0  0  0
 23 24  1  0  0  0  0
 24 26  1  0  0  0  0
 24 25  1  1  0  0  0
 26 27  1  1  0  0  0
 28 26  1  0  0  0  0
 28 30  1  6  0  0  0
 29 28  1  0  0  0  0
 30 31  1  0  0  0  0
 32 27  1  6  0  0  0
 32 40  1  0  0  0  0
 32 33  1  0  0  0  0
 33 35  1  0  0  0  0
 33 34  1  6  0  0  0
 35 37  1  0  0  0  0
 35 36  1  6  0  0  0
 37 38  1  1  0  0  0
 39 37  1  0  0  0  0
 39 41  1  6  0  0  0
 40 39  1  0  0  0  0
 42 41  1  0  0  0  0
M  END
>  <CHROM.1>
-143.13409504,96.75908103,136.90783544,177.82517691,-60.43927193,-174.98991578
-168.99187918,172.93202992,-174.15638544,172.70793174,173.80785226,-59.25625337
-72.26273303,-174.99882018,-93.26063685,-174.91998451,56.77959466,31.23980125
179.36764286,175.04621092,-161.05224041,-52.50020577,-0.14934712,1.87689773
4.52448283,-1.93922801,0.92401905,1.34916210

>  <Name>
lig.pdb

>  <RI>
0

>  <Rbt.Current_Directory>
/home/itssahil/PROJECTS/Mol_Feturizer/New_Systems/rnas/2mxs

>  <Rbt.Executable>
rbdock ($Id: //depot/dev/client3/rdock/2013.1/src/exe/rbdock.cxx#4 $)

>  <Rbt.Library>
libRbt.so (2013.1, Build901 2013/11/27)

>  <Rbt.Parameter_File>
/export/apps/rDock/src/rDock_2013.1_src/data/scripts/dock_solv.prm

>  <Rbt.Receptor>
prm/pocket_docking_6.prm

>  <SCORE>
-17.2276

>  <SCORE.INTER>
-19.7471

>  <SCORE.INTER.CONST>
1

>  <SCORE.INTER.POLAR>
-3.34769

>  <SCORE.INTER.ROT>
9

>  <SCORE.INTER.SOLV>
10.4464

>  <SCORE.INTER.VDW>
-15.0879

>  <SCORE.INTER.norm>
-0.470168

>  <SCORE.INTRA>
2.51951

>  <SCORE.INTRA.DIHEDRAL>
-7.31875

>  <SCORE.INTRA.DIHEDRAL.0>
30.1357

>  <SCORE.INTRA.POLAR>
-0.0510916

>  <SCORE.INTRA.POLAR.0>
-0.631696

>  <SCORE.INTRA.REPUL>
0.0135701

>  <SCORE.INTRA.REPUL.0>
0

>  <SCORE.INTRA.SOLV>
1.73686

>  <SCORE.INTRA.SOLV.lig_0>
-55.904

>  <SCORE.INTRA.VDW>
5.41631

>  <SCORE.INTRA.VDW.0>
-8.21197

>  <SCORE.INTRA.norm>
0.0599882

>  <SCORE.RESTR>
0

>  <SCORE.RESTR.CAVITY>
0

>  <SCORE.RESTR.norm>
0

>  <SCORE.SYSTEM>
0

>  <SCORE.SYSTEM.CONST>
0

>  <SCORE.SYSTEM.DIHEDRAL>
0

>  <SCORE.SYSTEM.SOLV>
0

>  <SCORE.SYSTEM.norm>
0

>  <SCORE.heavy>
42

>  <SCORE.norm>
-0.41018

>  <RMSD>
3.944

$$$$
lig.pdb
 OpenBabel11021811453D
libRbt.so/2013.1/901 2013/11/27
 42 45  0  0  0  0  0  0  0  0999 V2000
    0.0560    1.8197    2.1802 C   0  0  2  0  0  0  0  0  0  0  0  0
   -0.9296    1.1999    1.3519 O   0  0  0  0  0  0  0  0  0  0  0  0
    0.5273    3.1480    1.5694 C   0  0  2  0  0  0  0  0  0  0  0  0
   -0.6144    4.0422    1.3025 N   0  0  0  0  0  0  0  0  0  0  0  0
    1.3478    2.9071    0.2957 C   0  0  1  0  0  0  0  0  0  0  0  0
    1.8913    4.1342   -0.1519 O   0  0  0  0  0  0  0  0  0  0  0  0
    2.4886    1.9175    0.5769 C   0  0  2  0  0  0  0  0  0  0  0  0
    3.1328    1.5876   -0.6387 O   0  0  0  0  0  0  0  0  0  0  0  0
    1.9697    0.6348    1.2577 C   0  0  2  0  0  0  0  0  0  0  0  0
    1.1604    0.9438    2.3920 O   0  0  0  0  0  0  0  0  0  0  0  0
    3.1874   -0.1994    1.6990 C   0  0  0  0  0  0  0  0  0  0  0  0
    4.1543   -0.3662    0.6278 O   0  0  0  0  0  0  0  0  0  0  0  0
   -3.3627   -2.2730    2.0931 C   0  0  2  0  0  0  0  0  0  0  0  0
   -3.5634   -3.6550    2.5729 N   0  0  0  0  0  0  0  0  0  0  0  0
   -2.3332   -2.2473    0.9606 C   0  0  0  0  0  0  0  0  0  0  0  0
   -2.0161   -0.8125    0.5558 C   0  0  2  0  0  0  0  0  0  0  0  0
   -1.1039   -0.8002   -0.5947 N   0  0  0  0  0  0  0  0  0  0  0  0
   -1.4164   -0.0807    1.7790 C   0  0  2  0  0  0  0  0  0  0  0  0
   -2.4760    0.0358    2.8274 C   0  0  2  0  0  0  0  0  0  0  0  0
   -1.9196    0.7443    3.9196 O   0  0  0  0  0  0  0  0  0  0  0  0
   -2.9325   -1.3485    3.2475 C   0  0  1  0  0  0  0  0  0  0  0  0
   -3.9964   -1.2973    4.1795 O   0  0  0  0  0  0  0  0  0  0  0  0
   -2.8157    1.2867    4.8838 C   0  0  1  0  0  0  0  0  0  0  0  0
   -2.0097    2.2008    5.8091 C   0  0  2  0  0  0  0  0  0  0  0  0
   -2.5209    2.1030    7.1251 O   0  0  0  0  0  0  0  0  0  0  0  0
   -2.2328    3.5842    5.1835 C   0  0  2  0  0  0  0  0  0  0  0  0
   -1.9968    4.6515    6.1023 O   0  0  0  0  0  0  0  0  0  0  0  0
   -3.6895    3.4376    4.7268 C   0  0  2  0  0  0  0  0  0  0  0  0
   -3.7776    2.1081    4.2338 O   0  0  0  0  0  0  0  0  0  0  0  0
   -4.1054    4.4090    3.6160 C   0  0  0  0  0  0  0  0  0  0  0  0
   -4.9197    5.4497    4.1132 O   0  0  0  0  0  0  0  0  0  0  0  0
   -2.1068    5.9567    5.5381 C   0  0  2  0  0  0  0  0  0  0  0  0
   -0.7411    6.5048    5.0972 C   0  0  2  0  0  0  0  0  0  0  0  0
   -0.0757    5.5753    4.1692 N   0  0  0  0  0  0  0  0  0  0  0  0
    0.1472    6.8208    6.3099 C   0  0  1  0  0  0  0  0  0  0  0  0
    1.3522    7.4001    5.8482 O   0  0  0  0  0  0  0  0  0  0  0  0
   -0.6032    7.8099    7.2179 C   0  0  2  0  0  0  0  0  0  0  0  0
    0.1564    8.1022    8.3763 O   0  0  0  0  0  0  0  0  0  0  0  0
   -1.9904    7.2591    7.6077 C   0  0  1  0  0  0  0  0  0  0  0  0
   -2.7329    6.8493    6.4570 O   0  0  0  0  0  0  0  0  0  0  0  0
   -1.9295    6.1556    8.6741 C   0  0  0  0  0  0  0  0  0  0  0  0
   -3.1096    5.2786    8.6062 N   0  0  0  0  0  0  0  0  0  0  0  0
  1  3  1  0  0  0  0
  1  2  1  6  0  0  0
  3  4  1  6  0  0  0
  5  6  1  1  0  0  0
  5  3  1  0  0  0  0
  7  9  1  0  0  0  0
  7  5  1  0  0  0  0
  7  8  1  6  0  0  0
  9 10  1  0  0  0  0
  9 11  1  1  0  0  0
 10  1  1  0  0  0  0
 11 12  1  0  0  0  0
 13 14  1  1  0  0  0
 13 21  1  0  0  0  0
 15 13  1  0  0  0  0
 16 15  1  0  0  0  0
 16 18  1  0  0  0  0
 16 17  1  6  0  0  0
 18  2  1  6  0  0  0
 18 19  1  0  0  0  0
 19 21  1  0  0  0  0
 19 20  1  1  0  0  0
 21 22  1  1  0  0  0
 23 20  1  6  0  0  0
 23 29  1  0  0  0  0
 23 24  1  0  0  0  0
 24 26  1  0  0  0  0
 24 25  1  1  0  0  0
 26 27  1  1  0  0  0
 28 26  1  0  0  0  0
 28 30  1  6  0  0  0
 29 28  1  0  0  0  0
 30 31  1  0  0  0  0
 32 27  1  1  0  0  0
 32 40  1  0  0  0  0
 32 33  1  0  0  0  0
 33 35  1  0  0  0  0
 33 34  1  6  0  0  0
 35 37  1  0  0  0  0
 35 36  1  6  0  0  0
 37 38  1  1  0  0  0
 39 37  1  0  0  0  0
 39 41  1  1  0  0  0
 40 39  1  0  0  0  0
 42 41  1  0  0  0  0
M  END
>  <CHROM.1>
-158.53722327,177.46119812,-70.21955931,-56.33287836,174.44597765,-65.57553238
-49.54254914,64.14396505,-157.98302393,163.80188447,-170.13576586,-61.27219878
62.46989437,176.05697411,-95.04030489,-105.08391668,73.69698888,-155.86088978
62.48617975,-50.41767427,-155.44389412,177.24835906,-1.09265551,2.70070793
3.65599308,-1.38904532,0.57091536,0.59690050

>  <Name>
lig.pdb

>  <RI>
4.11275e+07

>  <Rbt.Current_Directory>
/home/itssahil/PROJECTS/Mol_Feturizer/New_Systems/rnas/2mxs

>  <Rbt.Executable>
rbdock ($Id: //depot/dev/client3/rdock/2013.1/src/exe/rbdock.cxx#4 $)

>  <Rbt.Library>
libRbt.so (2013.1, Build901 2013/11/27)

>  <Rbt.Parameter_File>
/export/apps/rDock/src/rDock_2013.1_src/data/scripts/dock_solv.prm

>  <Rbt.Receptor>
prm/pocket_docking_8.prm

>  <SCORE>
-30.3187

>  <SCORE.INTER>
-27.0151

>  <SCORE.INTER.CONST>
1

>  <SCORE.INTER.POLAR>
-4.40636

>  <SCORE.INTER.ROT>
9

>  <SCORE.INTER.SOLV>
16.8313

>  <SCORE.INTER.VDW>
-18.5327

>  <SCORE.INTER.norm>
-0.643218

>  <SCORE.INTRA>
-3.33811

>  <SCORE.INTRA.DIHEDRAL>
-9.9216

>  <SCORE.INTRA.DIHEDRAL.0>
30.1357

>  <SCORE.INTRA.POLAR>
-0.582407

>  <SCORE.INTRA.POLAR.0>
-0.631696

>  <SCORE.INTRA.REPUL>
0

>  <SCORE.INTRA.REPUL.0>
0

>  <SCORE.INTRA.SOLV>
0.350012

>  <SCORE.INTRA.SOLV.lig_0>
-55.904

>  <SCORE.INTRA.VDW>
3.42786

>  <SCORE.INTRA.VDW.0>
-8.21197

>  <SCORE.INTRA.norm>
-0.0794788

>  <SCORE.RESTR>
0.0345778

>  <SCORE.RESTR.CAVITY>
0.0345778

>  <SCORE.RESTR.norm>
0.000823282

>  <SCORE.SYSTEM>
0

>  <SCORE.SYSTEM.CONST>
0

>  <SCORE.SYSTEM.DIHEDRAL>
0

>  <SCORE.SYSTEM.SOLV>
0

>  <SCORE.SYSTEM.norm>
0

>  <SCORE.heavy>
42

>  <SCORE.norm>
-0.721873

>  <RMSD>
3.964

$$$$
lig.pdb
 OpenBabel11021811453D
libRbt.so/2013.1/901 2013/11/27
 42 45  0  0  0  0  0  0  0  0999 V2000
   -0.8430    5.5871    0.5802 C   0  0  2  0  0  0  0  0  0  0  0  0
    0.2967    4.9374    1.1462 O   0  0  0  0  0  0  0  0  0  0  0  0
   -0.6612    7.1125    0.5839 C   0  0  2  0  0  0  0  0  0  0  0  0
    0.5903    7.4978   -0.0942 N   0  0  0  0  0  0  0  0  0  0  0  0
   -0.7069    7.6682    2.0131 C   0  0  1  0  0  0  0  0  0  0  0  0
   -0.6903    9.0822    1.9679 O   0  0  0  0  0  0  0  0  0  0  0  0
   -1.9829    7.1968    2.7268 C   0  0  2  0  0  0  0  0  0  0  0  0
   -1.9304    7.5857    4.0860 O   0  0  0  0  0  0  0  0  0  0  0  0
   -2.1542    5.6674    2.6276 C   0  0  2  0  0  0  0  0  0  0  0  0
   -2.0309    5.2208    1.2776 O   0  0  0  0  0  0  0  0  0  0  0  0
   -3.5499    5.3055    3.1699 C   0  0  0  0  0  0  0  0  0  0  0  0
   -3.6697    5.5692    4.5935 O   0  0  0  0  0  0  0  0  0  0  0  0
    0.3789    1.1576   -0.9123 C   0  0  2  0  0  0  0  0  0  0  0  0
    0.7822   -0.2570   -1.0402 N   0  0  0  0  0  0  0  0  0  0  0  0
    1.6141    2.0595   -0.8510 C   0  0  0  0  0  0  0  0  0  0  0  0
    1.2113    3.5039   -0.5779 C   0  0  2  0  0  0  0  0  0  0  0  0
    2.3920    4.3758   -0.6186 N   0  0  0  0  0  0  0  0  0  0  0  0
    0.4952    3.5611    0.7915 C   0  0  2  0  0  0  0  0  0  0  0  0
   -0.7939    2.8113    0.6833 C   0  0  2  0  0  0  0  0  0  0  0  0
   -1.4518    2.9114    1.9330 O   0  0  0  0  0  0  0  0  0  0  0  0
   -0.5137    1.3639    0.3259 C   0  0  1  0  0  0  0  0  0  0  0  0
   -1.7047    0.6252    0.1279 O   0  0  0  0  0  0  0  0  0  0  0  0
   -1.2394    1.8693    2.8795 C   0  0  1  0  0  0  0  0  0  0  0  0
    0.0492    2.1856    3.6417 C   0  0  2  0  0  0  0  0  0  0  0  0
    0.7311    0.9793    3.9291 O   0  0  0  0  0  0  0  0  0  0  0  0
   -0.4756    2.8890    4.9007 C   0  0  2  0  0  0  0  0  0  0  0  0
    0.4573    2.8581    5.9812 O   0  0  0  0  0  0  0  0  0  0  0  0
   -1.7615    2.0873    5.1365 C   0  0  2  0  0  0  0  0  0  0  0  0
   -2.2914    1.8706    3.8363 O   0  0  0  0  0  0  0  0  0  0  0  0
   -2.8114    2.8109    5.9878 C   0  0  0  0  0  0  0  0  0  0  0  0
   -3.7680    1.9125    6.5084 O   0  0  0  0  0  0  0  0  0  0  0  0
    0.3206    3.9272    6.9153 C   0  0  2  0  0  0  0  0  0  0  0  0
    1.5726    4.0827    7.7919 C   0  0  2  0  0  0  0  0  0  0  0  0
    2.7783    4.2474    6.9629 N   0  0  0  0  0  0  0  0  0  0  0  0
    1.7169    2.9041    8.7664 C   0  0  1  0  0  0  0  0  0  0  0  0
    2.8326    3.1433    9.6022 O   0  0  0  0  0  0  0  0  0  0  0  0
    0.4335    2.8096    9.6088 C   0  0  2  0  0  0  0  0  0  0  0  0
    0.4967    1.7091   10.4971 O   0  0  0  0  0  0  0  0  0  0  0  0
   -0.8133    2.7031    8.7066 C   0  0  1  0  0  0  0  0  0  0  0  0
   -0.8386    3.7413    7.7244 O   0  0  0  0  0  0  0  0  0  0  0  0
   -0.9924    1.3135    8.0774 C   0  0  0  0  0  0  0  0  0  0  0  0
   -2.2245    0.6642    8.5535 N   0  0  0  0  0  0  0  0  0  0  0  0
  1  3  1  0  0  0  0
  1  2  1  1  0  0  0
  3  4  1  1  0  0  0
  5  6  1  6  0  0  0
  5  3  1  0  0  0  0
  7  9  1  0  0  0  0
  7  5  1  0  0  0  0
  7  8  1  1  0  0  0
  9 10  1  0  0  0  0
  9 11  1  6  0  0  0
 10  1  1  0  0  0  0
 11 12  1  0  0  0  0
 13 14  1  1  0  0  0
 13 21  1  0  0  0  0
 15 13  1  0  0  0  0
 16 15  1  0  0  0  0
 16 18  1  0  0  0  0
 16 17  1  1  0  0  0
 18  2  1  6  0  0  0
 18 19  1  0  0  0  0
 19 21  1  0  0  0  0
 19 20  1  1  0  0  0
 21 22  1  6  0  0  0
 23 20  1  6  0  0  0
 23 29  1  0  0  0  0
 23 24  1  0  0  0  0
 24 26  1  0  0  0  0
 24 25  1  1  0  0  0
 26 27  1  1  0  0  0
 28 26  1  0  0  0  0
 28 30  1  1  0  0  0
 29 28  1  0  0  0  0
 30 31  1  0  0  0  0
 32 27  1  6  0  0  0
 32 40  1  0  0  0  0
 32 33  1  0  0  0  0
 33 35  1  0  0  0  0
 33 34  1  6  0  0  0
 35 37  1  0  0  0  0
 35 36  1  1  0  0  0
 37 38  1  1  0  0  0
 39 37  1  0  0  0  0
 39 41  1  6  0  0  0
 40 39  1  0  0  0  0
 42 41  1  0  0  0  0
M  END
>  <CHROM.1>
82.71408200,-158.44834383,154.73160720,-177.44055555,65.82955135,70.20489336
-66.49385636,-168.26606606,-174.82725023,-93.39567587,84.59458986,59.36122911
-57.38866506,153.83345116,-163.03570519,-162.02517476,-167.73678602,35.60026362
170.04159905,65.86252104,115.90057754,-35.37456816,-0.49186565,3.59868777
3.85790259,1.64715977,1.39284855,-1.43326752

>  <Name>
lig.pdb

>  <RI>
3.99633e+07

>  <Rbt.Current_Directory>
/home/itssahil/PROJECTS/Mol_Feturizer/New_Systems/rnas/2mxs

>  <Rbt.Executable>
rbdock ($Id: //depot/dev/client3/rdock/2013.1/src/exe/rbdock.cxx#4 $)

>  <Rbt.Library>
libRbt.so (2013.1, Build901 2013/11/27)

>  <Rbt.Parameter_File>
/export/apps/rDock/src/rDock_2013.1_src/data/scripts/dock_solv.prm

>  <Rbt.Receptor>
prm/pocket_docking_5.prm

>  <SCORE>
-27.1573

>  <SCORE.INTER>
-31.4203

>  <SCORE.INTER.CONST>
1

>  <SCORE.INTER.POLAR>
-4.29254

>  <SCORE.INTER.ROT>
9

>  <SCORE.INTER.SOLV>
19.7864

>  <SCORE.INTER.VDW>
-22.8339

>  <SCORE.INTER.norm>
-0.748103

>  <SCORE.INTRA>
4.26308

>  <SCORE.INTRA.DIHEDRAL>
-1.50856

>  <SCORE.INTRA.DIHEDRAL.0>
30.1357

>  <SCORE.INTRA.POLAR>
-0.499512

>  <SCORE.INTRA.POLAR.0>
-0.631696

>  <SCORE.INTRA.REPUL>
0

>  <SCORE.INTRA.REPUL.0>
0

>  <SCORE.INTRA.SOLV>
1.90259

>  <SCORE.INTRA.SOLV.lig_0>
-55.904

>  <SCORE.INTRA.VDW>
5.7644

>  <SCORE.INTRA.VDW.0>
-8.21197

>  <SCORE.INTRA.norm>
0.101502

>  <SCORE.RESTR>
0

>  <SCORE.RESTR.CAVITY>
0

>  <SCORE.RESTR.norm>
0

>  <SCORE.SYSTEM>
0

>  <SCORE.SYSTEM.CONST>
0

>  <SCORE.SYSTEM.DIHEDRAL>
0

>  <SCORE.SYSTEM.SOLV>
0

>  <SCORE.SYSTEM.norm>
0

>  <SCORE.heavy>
42

>  <SCORE.norm>
-0.646601

>  <RMSD>
3.995

$$$$
lig.pdb
 OpenBabel11021811453D
libRbt.so/2013.1/901 2013/11/27
 42 45  0  0  0  0  0  0  0  0999 V2000
   -0.9885    4.1428    2.9871 C   0  0  2  0  0  0  0  0  0  0  0  0
   -2.2416    3.8601    2.3615 O   0  0  0  0  0  0  0  0  0  0  0  0
   -0.9519    5.5864    3.5109 C   0  0  2  0  0  0  0  0  0  0  0  0
   -2.0918    5.8529    4.4076 N   0  0  0  0  0  0  0  0  0  0  0  0
   -0.9160    6.5911    2.3521 C   0  0  1  0  0  0  0  0  0  0  0  0
   -0.7289    7.8955    2.8671 O   0  0  0  0  0  0  0  0  0  0  0  0
    0.2337    6.2538    1.3908 C   0  0  2  0  0  0  0  0  0  0  0  0
    0.1532    7.0900    0.2525 O   0  0  0  0  0  0  0  0  0  0  0  0
    0.1920    4.7747    0.9562 C   0  0  2  0  0  0  0  0  0  0  0  0
    0.0901    3.9078    2.0853 O   0  0  0  0  0  0  0  0  0  0  0  0
    1.4861    4.4672    0.1791 C   0  0  0  0  0  0  0  0  0  0  0  0
    1.5305    3.0927   -0.2890 O   0  0  0  0  0  0  0  0  0  0  0  0
   -5.1389    0.8013    3.2450 C   0  0  2  0  0  0  0  0  0  0  0  0
   -5.5203   -0.5831    3.5888 N   0  0  0  0  0  0  0  0  0  0  0  0
   -4.3930    0.8314    1.9087 C   0  0  0  0  0  0  0  0  0  0  0  0
   -3.8734    2.2338    1.6153 C   0  0  2  0  0  0  0  0  0  0  0  0
   -3.2461    2.2747    0.2884 N   0  0  0  0  0  0  0  0  0  0  0  0
   -2.8857    2.6336    2.7361 C   0  0  2  0  0  0  0  0  0  0  0  0
   -3.6482    2.7609    4.0159 C   0  0  2  0  0  0  0  0  0  0  0  0
   -2.7347    3.1675    5.0182 O   0  0  0  0  0  0  0  0  0  0  0  0
   -4.2868    1.4295    4.3638 C   0  0  1  0  0  0  0  0  0  0  0  0
   -5.0920    1.5135    5.5247 O   0  0  0  0  0  0  0  0  0  0  0  0
   -1.8264    2.1938    5.5219 C   0  0  1  0  0  0  0  0  0  0  0  0
   -0.5235    2.9114    5.8809 C   0  0  2  0  0  0  0  0  0  0  0  0
    0.5726    2.0646    5.5905 O   0  0  0  0  0  0  0  0  0  0  0  0
   -0.6935    3.1734    7.3834 C   0  0  2  0  0  0  0  0  0  0  0  0
    0.5496    3.3915    8.0511 O   0  0  0  0  0  0  0  0  0  0  0  0
   -1.4299    1.8926    7.7949 C   0  0  2  0  0  0  0  0  0  0  0  0
   -2.3365    1.6435    6.7298 O   0  0  0  0  0  0  0  0  0  0  0  0
   -2.2194    2.0091    9.1039 C   0  0  0  0  0  0  0  0  0  0  0  0
   -3.1460    0.9538    9.2481 O   0  0  0  0  0  0  0  0  0  0  0  0
    0.9734    4.7528    8.0887 C   0  0  2  0  0  0  0  0  0  0  0  0
    2.5040    4.8727    8.1435 C   0  0  2  0  0  0  0  0  0  0  0  0
    3.1290    4.1486    7.0241 N   0  0  0  0  0  0  0  0  0  0  0  0
    3.0494    4.3940    9.4973 C   0  0  1  0  0  0  0  0  0  0  0  0
    4.4475    4.6076    9.5218 O   0  0  0  0  0  0  0  0  0  0  0  0
    2.3688    5.2079   10.6110 C   0  0  2  0  0  0  0  0  0  0  0  0
    2.8058    4.7755   11.8864 O   0  0  0  0  0  0  0  0  0  0  0  0
    0.8328    5.1114   10.5063 C   0  0  1  0  0  0  0  0  0  0  0  0
    0.3769    5.4336    9.1904 O   0  0  0  0  0  0  0  0  0  0  0  0
    0.2726    3.7673   10.9945 C   0  0  0  0  0  0  0  0  0  0  0  0
    0.2225    3.7094   12.4643 N   0  0  0  0  0  0  0  0  0  0  0  0
  1  3  1  0  0  0  0
  1  2  1  6  0  0  0
  3  4  1  6  0  0  0
  5  6  1  1  0  0  0
  5  3  1  0  0  0  0
  7  9  1  0  0  0  0
  7  5  1  0  0  0  0
  7  8  1  6  0  0  0
  9 10  1  0  0  0  0
  9 11  1  1  0  0  0
 10  1  1  0  0  0  0
 11 12  1  0  0  0  0
 13 14  1  1  0  0  0
 13 21  1  0  0  0  0
 15 13  1  0  0  0  0
 16 15  1  0  0  0  0
 16 18  1  0  0  0  0
 16 17  1  6  0  0  0
 18  2  1  6  0  0  0
 18 19  1  0  0  0  0
 19 21  1  0  0  0  0
 19 20  1  1  0  0  0
 21 22  1  1  0  0  0
 23 20  1  1  0  0  0
 23 29  1  0  0  0  0
 23 24  1  0  0  0  0
 24 26  1  0  0  0  0
 24 25  1  1  0  0  0
 26 27  1  1  0  0  0
 28 26  1  0  0  0  0
 28 30  1  1  0  0  0
 29 28  1  0  0  0  0
 30 31  1  0  0  0  0
 32 27  1  1  0  0  0
 32 40  1  0  0  0  0
 32 33  1  0  0  0  0
 33 35  1  0  0  0  0
 33 34  1  6  0  0  0
 35 37  1  0  0  0  0
 35 36  1  6  0  0  0
 37 38  1  1  0  0  0
 39 37  1  0  0  0  0
 39 41  1  6  0  0  0
 40 39  1  0  0  0  0
 42 41  1  0  0  0  0
M  END
>  <CHROM.1>
-158.03740172,-132.58096015,-121.63046351,179.36241638,76.47492996,-169.71256192
-179.26002863,62.68522600,159.01246664,-74.80718379,147.14929396,70.31652507
-178.79347905,89.61378076,-151.42699776,164.19745068,60.47133101,-59.89254284
-64.38378026,-39.03415134,78.13298629,59.03009557,-0.81559801,3.60085089
5.45636773,-2.09753688,0.63421884,1.79723911

>  <Name>
lig.pdb

>  <RI>
0

>  <Rbt.Current_Directory>
/home/itssahil/PROJECTS/Mol_Feturizer/New_Systems/rnas/2mxs

>  <Rbt.Executable>
rbdock ($Id: //depot/dev/client3/rdock/2013.1/src/exe/rbdock.cxx#4 $)

>  <Rbt.Library>
libRbt.so (2013.1, Build901 2013/11/27)

>  <Rbt.Parameter_File>
/export/apps/rDock/src/rDock_2013.1_src/data/scripts/dock_solv.prm

>  <Rbt.Receptor>
prm/pocket_docking_4.prm

>  <SCORE>
-22.3813

>  <SCORE.INTER>
-24.6739

>  <SCORE.INTER.CONST>
1

>  <SCORE.INTER.POLAR>
-4.38446

>  <SCORE.INTER.ROT>
9

>  <SCORE.INTER.SOLV>
12.9359

>  <SCORE.INTER.VDW>
-15.7464

>  <SCORE.INTER.norm>
-0.587473

>  <SCORE.INTRA>
2.27691

>  <SCORE.INTRA.DIHEDRAL>
1.79431

>  <SCORE.INTRA.DIHEDRAL.0>
30.1357

>  <SCORE.INTRA.POLAR>
-0.422972

>  <SCORE.INTRA.POLAR.0>
-0.631696

>  <SCORE.INTRA.REPUL>
0

>  <SCORE.INTRA.REPUL.0>
0

>  <SCORE.INTRA.SOLV>
-0.630688

>  <SCORE.INTRA.SOLV.lig_0>
-55.904

>  <SCORE.INTRA.VDW>
3.13321

>  <SCORE.INTRA.VDW.0>
-8.21197

>  <SCORE.INTRA.norm>
0.0542123

>  <SCORE.RESTR>
0.0156865

>  <SCORE.RESTR.CAVITY>
0.0156865

>  <SCORE.RESTR.norm>
0.000373487

>  <SCORE.SYSTEM>
0

>  <SCORE.SYSTEM.CONST>
0

>  <SCORE.SYSTEM.DIHEDRAL>
0

>  <SCORE.SYSTEM.SOLV>
0

>  <SCORE.SYSTEM.norm>
0

>  <SCORE.heavy>
42

>  <SCORE.norm>
-0.532888

>  <RMSD>
4.076

$$$$
lig.pdb
 OpenBabel11021811453D
libRbt.so/2013.1/901 2013/11/27
 42 45  0  0  0  0  0  0  0  0999 V2000
   -0.9305    4.3701   -0.0792 C   0  0  2  0  0  0  0  0  0  0  0  0
    0.2365    3.8124    0.5279 O   0  0  0  0  0  0  0  0  0  0  0  0
   -0.6443    5.7773   -0.6245 C   0  0  2  0  0  0  0  0  0  0  0  0
    0.5071    5.7638   -1.5456 N   0  0  0  0  0  0  0  0  0  0  0  0
   -0.4231    6.7757    0.5191 C   0  0  1  0  0  0  0  0  0  0  0  0
   -0.3152    8.0824   -0.0125 O   0  0  0  0  0  0  0  0  0  0  0  0
   -1.5991    6.7234    1.5061 C   0  0  2  0  0  0  0  0  0  0  0  0
   -1.3038    7.5306    2.6298 O   0  0  0  0  0  0  0  0  0  0  0  0
   -1.8903    5.2794    1.9627 C   0  0  2  0  0  0  0  0  0  0  0  0
   -2.0150    4.4001    0.8453 O   0  0  0  0  0  0  0  0  0  0  0  0
   -3.2038    5.2873    2.7676 C   0  0  0  0  0  0  0  0  0  0  0  0
   -4.3739    5.2718    1.9068 O   0  0  0  0  0  0  0  0  0  0  0  0
   -0.1267   -0.4032   -0.2639 C   0  0  2  0  0  0  0  0  0  0  0  0
    0.1520   -1.8221    0.0351 N   0  0  0  0  0  0  0  0  0  0  0  0
    1.1783    0.3497   -0.5345 C   0  0  0  0  0  0  0  0  0  0  0  0
    0.9125    1.8407   -0.7048 C   0  0  2  0  0  0  0  0  0  0  0  0
    2.1538    2.5395   -1.0608 N   0  0  0  0  0  0  0  0  0  0  0  0
    0.2990    2.3810    0.6079 C   0  0  2  0  0  0  0  0  0  0  0  0
   -1.0505    1.7633    0.7892 C   0  0  2  0  0  0  0  0  0  0  0  0
   -1.6109    2.3020    1.9725 O   0  0  0  0  0  0  0  0  0  0  0  0
   -0.9127    0.2556    0.8852 C   0  0  1  0  0  0  0  0  0  0  0  0
   -2.1699   -0.3884    0.9737 O   0  0  0  0  0  0  0  0  0  0  0  0
   -0.9829    1.9814    3.2092 C   0  0  1  0  0  0  0  0  0  0  0  0
   -1.0067    3.2361    4.0848 C   0  0  2  0  0  0  0  0  0  0  0  0
    0.1824    3.2955    4.8499 O   0  0  0  0  0  0  0  0  0  0  0  0
   -2.2588    3.0158    4.9443 C   0  0  2  0  0  0  0  0  0  0  0  0
   -2.2448    3.7820    6.1490 O   0  0  0  0  0  0  0  0  0  0  0  0
   -2.1794    1.4974    5.1454 C   0  0  2  0  0  0  0  0  0  0  0  0
   -1.7450    0.9928    3.8904 O   0  0  0  0  0  0  0  0  0  0  0  0
   -3.5133    0.8370    5.5129 C   0  0  0  0  0  0  0  0  0  0  0  0
   -4.4611    0.9662    4.4746 O   0  0  0  0  0  0  0  0  0  0  0  0
   -3.5352    4.0877    6.6740 C   0  0  2  0  0  0  0  0  0  0  0  0
   -3.4989    5.3135    7.5994 C   0  0  2  0  0  0  0  0  0  0  0  0
   -2.9124    6.4754    6.9110 N   0  0  0  0  0  0  0  0  0  0  0  0
   -2.7552    4.9998    8.9063 C   0  0  1  0  0  0  0  0  0  0  0  0
   -2.8284    6.1323    9.7505 O   0  0  0  0  0  0  0  0  0  0  0  0
   -3.4360    3.7940    9.5758 C   0  0  2  0  0  0  0  0  0  0  0  0
   -2.7608    3.4349   10.7673 O   0  0  0  0  0  0  0  0  0  0  0  0
   -3.5040    2.5918    8.6116 C   0  0  1  0  0  0  0  0  0  0  0  0
   -4.0794    2.9600    7.3560 O   0  0  0  0  0  0  0  0  0  0  0  0
   -2.1572    1.8745    8.4371 C   0  0  0  0  0  0  0  0  0  0  0  0
   -1.8741    0.9818    9.5726 N   0  0  0  0  0  0  0  0  0  0  0  0
  1  3  1  0  0  0  0
  1  2  1  1  0  0  0
  3  4  1  6  0  0  0
  5  6  1  6  0  0  0
  5  3  1  0  0  0  0
  7  9  1  0  0  0  0
  7  5  1  0  0  0  0
  7  8  1  1  0  0  0
  9 10  1  0  0  0  0
  9 11  1  6  0  0  0
 10  1  1  0  0  0  0
 11 12  1  0  0  0  0
 13 14  1  1  0  0  0
 13 21  1  0  0  0  0
 15 13  1  0  0  0  0
 16 15  1  0  0  0  0
 16 18  1  0  0  0  0
 16 17  1  1  0  0  0
 18  2  1  6  0  0  0
 18 19  1  0  0  0  0
 19 21  1  0  0  0  0
 19 20  1  1  0  0  0
 21 22  1  6  0  0  0
 23 20  1  6  0  0  0
 23 29  1  0  0  0  0
 23 24  1  0  0  0  0
 24 26  1  0  0  0  0
 24 25  1  1  0  0  0
 26 27  1  1  0  0  0
 28 26  1  0  0  0  0
 28 30  1  6  0  0  0
 29 28  1  0  0  0  0
 30 31  1  0  0  0  0
 32 27  1  1  0  0  0
 32 40  1  0  0  0  0
 32 33  1  0  0  0  0
 33 35  1  0  0  0  0
 33 34  1  6  0  0  0
 35 37  1  0  0  0  0
 35 36  1  1  0  0  0
 37 38  1  1  0  0  0
 39 37  1  0  0  0  0
 39 41  1  6  0  0  0
 40 39  1  0  0  0  0
 42 41  1  0  0  0  0
M  END
>  <CHROM.1>
87.07985539,-156.47498299,168.06195262,61.46155513,63.25291056,168.75852439
81.47465204,179.72002841,-178.64145630,-66.23073894,140.92336623,-61.04445878
-60.41524206,153.82741533,-157.87252017,63.79471083,-177.36269735,-55.61159778
-67.62355509,166.17489457,79.05032187,-49.55637221,-1.63760795,3.35092119
3.57830318,0.14906476,1.24120098,-0.22288073

>  <Name>
lig.pdb

>  <RI>
3.99633e+07

>  <Rbt.Current_Directory>
/home/itssahil/PROJECTS/Mol_Feturizer/New_Systems/rnas/2mxs

>  <Rbt.Executable>
rbdock ($Id: //depot/dev/client3/rdock/2013.1/src/exe/rbdock.cxx#4 $)

>  <Rbt.Library>
libRbt.so (2013.1, Build901 2013/11/27)

>  <Rbt.Parameter_File>
/export/apps/rDock/src/rDock_2013.1_src/data/scripts/dock_solv.prm

>  <Rbt.Receptor>
prm/pocket_docking_5.prm

>  <SCORE>
-34.2684

>  <SCORE.INTER>
-35.61

>  <SCORE.INTER.CONST>
1

>  <SCORE.INTER.POLAR>
-5.24733

>  <SCORE.INTER.ROT>
9

>  <SCORE.INTER.SOLV>
15.4672

>  <SCORE.INTER.VDW>
-21.0046

>  <SCORE.INTER.norm>
-0.847857

>  <SCORE.INTRA>
1.34162

>  <SCORE.INTRA.DIHEDRAL>
-8.33439

>  <SCORE.INTRA.DIHEDRAL.0>
30.1357

>  <SCORE.INTRA.POLAR>
0.414659

>  <SCORE.INTRA.POLAR.0>
-0.631696

>  <SCORE.INTRA.REPUL>
0.00014594

>  <SCORE.INTRA.REPUL.0>
0

>  <SCORE.INTRA.SOLV>
0.44247

>  <SCORE.INTRA.SOLV.lig_0>
-55.904

>  <SCORE.INTRA.VDW>
3.877

>  <SCORE.INTRA.VDW.0>
-8.21197

>  <SCORE.INTRA.norm>
0.0319432

>  <SCORE.RESTR>
0

>  <SCORE.RESTR.CAVITY>
0

>  <SCORE.RESTR.norm>
0

>  <SCORE.SYSTEM>
0

>  <SCORE.SYSTEM.CONST>
0

>  <SCORE.SYSTEM.DIHEDRAL>
0

>  <SCORE.SYSTEM.SOLV>
0

>  <SCORE.SYSTEM.norm>
0

>  <SCORE.heavy>
42

>  <SCORE.norm>
-0.815913

>  <RMSD>
4.119

$$$$
lig.pdb
 OpenBabel11021811453D
libRbt.so/2013.1/901 2013/11/27
 42 45  0  0  0  0  0  0  0  0999 V2000
    1.0148    2.5560    2.0293 C   0  0  2  0  0  0  0  0  0  0  0  0
   -0.3673    2.3343    2.3160 O   0  0  0  0  0  0  0  0  0  0  0  0
    1.1981    3.8018    1.1495 C   0  0  2  0  0  0  0  0  0  0  0  0
    0.5633    4.9820    1.7647 N   0  0  0  0  0  0  0  0  0  0  0  0
    0.6570    3.5601   -0.2656 C   0  0  1  0  0  0  0  0  0  0  0  0
    0.9788    4.6663   -1.0867 O   0  0  0  0  0  0  0  0  0  0  0  0
    1.2759    2.2868   -0.8616 C   0  0  2  0  0  0  0  0  0  0  0  0
    0.6495    1.9950   -2.0961 O   0  0  0  0  0  0  0  0  0  0  0  0
    1.1298    1.0858    0.0947 C   0  0  2  0  0  0  0  0  0  0  0  0
    1.5909    1.4110    1.4057 O   0  0  0  0  0  0  0  0  0  0  0  0
    1.9581   -0.0823   -0.4733 C   0  0  0  0  0  0  0  0  0  0  0  0
    2.1911   -1.1205    0.5157 O   0  0  0  0  0  0  0  0  0  0  0  0
   -2.9636   -0.9390    1.2788 C   0  0  2  0  0  0  0  0  0  0  0  0
   -3.4341   -2.0011    0.3672 N   0  0  0  0  0  0  0  0  0  0  0  0
   -3.1058    0.4331    0.6153 C   0  0  0  0  0  0  0  0  0  0  0  0
   -2.4934    1.5193    1.4916 C   0  0  2  0  0  0  0  0  0  0  0  0
   -2.7215    2.8410    0.8943 N   0  0  0  0  0  0  0  0  0  0  0  0
   -0.9876    1.2145    1.6674 C   0  0  2  0  0  0  0  0  0  0  0  0
   -0.8490   -0.0473    2.4575 C   0  0  2  0  0  0  0  0  0  0  0  0
    0.5344   -0.2852    2.6424 O   0  0  0  0  0  0  0  0  0  0  0  0
   -1.5068   -1.1920    1.7104 C   0  0  1  0  0  0  0  0  0  0  0  0
   -1.4790   -2.3967    2.4526 O   0  0  0  0  0  0  0  0  0  0  0  0
    0.9784   -0.6335    3.9495 C   0  0  1  0  0  0  0  0  0  0  0  0
    0.6238    0.5226    4.8872 C   0  0  2  0  0  0  0  0  0  0  0  0
    1.6416    0.6651    5.8602 O   0  0  0  0  0  0  0  0  0  0  0  0
   -0.7134    0.0650    5.4852 C   0  0  2  0  0  0  0  0  0  0  0  0
   -1.0180    0.7136    6.7202 O   0  0  0  0  0  0  0  0  0  0  0  0
   -0.4531   -1.4423    5.5960 C   0  0  2  0  0  0  0  0  0  0  0  0
    0.2597   -1.7701    4.4116 O   0  0  0  0  0  0  0  0  0  0  0  0
   -1.7218   -2.3002    5.6673 C   0  0  0  0  0  0  0  0  0  0  0  0
   -2.0219   -2.6755    6.9947 O   0  0  0  0  0  0  0  0  0  0  0  0
   -1.1047    2.1349    6.6397 C   0  0  2  0  0  0  0  0  0  0  0  0
   -0.5996    2.8110    7.9234 C   0  0  2  0  0  0  0  0  0  0  0  0
    0.7702    2.3758    8.2434 N   0  0  0  0  0  0  0  0  0  0  0  0
   -1.5583    2.5590    9.0968 C   0  0  1  0  0  0  0  0  0  0  0  0
   -1.0897    3.2734   10.2241 O   0  0  0  0  0  0  0  0  0  0  0  0
   -2.9576    3.0571    8.6971 C   0  0  2  0  0  0  0  0  0  0  0  0
   -3.8924    2.8086    9.7309 O   0  0  0  0  0  0  0  0  0  0  0  0
   -3.4227    2.4011    7.3807 C   0  0  1  0  0  0  0  0  0  0  0  0
   -2.4408    2.5404    6.3512 O   0  0  0  0  0  0  0  0  0  0  0  0
   -3.8704    0.9421    7.5526 C   0  0  0  0  0  0  0  0  0  0  0  0
   -4.3022    0.3592    6.2719 N   0  0  0  0  0  0  0  0  0  0  0  0
  1  3  1  0  0  0  0
  1  2  1  6  0  0  0
  3  4  1  1  0  0  0
  5  6  1  6  0  0  0
  5  3  1  0  0  0  0
  7  9  1  0  0  0  0
  7  5  1  0  0  0  0
  7  8  1  6  0  0  0
  9 10  1  0  0  0  0
  9 11  1  6  0  0  0
 10  1  1  0  0  0  0
 11 12  1  0  0  0  0
 13 14  1  6  0  0  0
 13 21  1  0  0  0  0
 15 13  1  0  0  0  0
 16 15  1  0  0  0  0
 16 18  1  0  0  0  0
 16 17  1  6  0  0  0
 18  2  1  1  0  0  0
 18 19  1  0  0  0  0
 19 21  1  0  0  0  0
 19 20  1  6  0  0  0
 21 22  1  1  0  0  0
 23 20  1  6  0  0  0
 23 29  1  0  0  0  0
 23 24  1  0  0  0  0
 24 26  1  0  0  0  0
 24 25  1  1  0  0  0
 26 27  1  1  0  0  0
 28 26  1  0  0  0  0
 28 30  1  6  0  0  0
 29 28  1  0  0  0  0
 30 31  1  0  0  0  0
 32 27  1  1  0  0  0
 32 40  1  0  0  0  0
 32 33  1  0  0  0  0
 33 35  1  0  0  0  0
 33 34  1  1  0  0  0
 35 37  1  0  0  0  0
 35 36  1  1  0  0  0
 37 38  1  1  0  0  0
 39 37  1  0  0  0  0
 39 41  1  1  0  0  0
 40 39  1  0  0  0  0
 42 41  1  0  0  0  0
M  END
>  <CHROM.1>
-151.66221989,108.55790345,52.02602208,-174.41463483,60.95119645,40.11393423
164.03021243,64.80497708,-72.60745819,133.43839810,-60.44686848,-167.02113730
-56.02552359,59.31047751,-145.75949159,-99.59054116,63.22120832,26.75557069
-68.98690343,173.56436347,-179.90299092,60.95349486,-0.79052592,1.06915509
3.76696316,-0.81949493,1.15347674,0.85010488

>  <Name>
lig.pdb

>  <RI>
3.99633e+07

>  <Rbt.Current_Directory>
/home/itssahil/PROJECTS/Mol_Feturizer/New_Systems/rnas/2mxs

>  <Rbt.Executable>
rbdock ($Id: //depot/dev/client3/rdock/2013.1/src/exe/rbdock.cxx#4 $)

>  <Rbt.Library>
libRbt.so (2013.1, Build901 2013/11/27)

>  <Rbt.Parameter_File>
/export/apps/rDock/src/rDock_2013.1_src/data/scripts/dock_solv.prm

>  <Rbt.Receptor>
prm/pocket_docking_5.prm

>  <SCORE>
-16.8874

>  <SCORE.INTER>
-17.6525

>  <SCORE.INTER.CONST>
1

>  <SCORE.INTER.POLAR>
-2.34729

>  <SCORE.INTER.ROT>
9

>  <SCORE.INTER.SOLV>
15.0225

>  <SCORE.INTER.VDW>
-18.5515

>  <SCORE.INTER.norm>
-0.420297

>  <SCORE.INTRA>
0.765064

>  <SCORE.INTRA.DIHEDRAL>
2.07987

>  <SCORE.INTRA.DIHEDRAL.0>
30.1357

>  <SCORE.INTRA.POLAR>
-1.75949

>  <SCORE.INTRA.POLAR.0>
-0.631696

>  <SCORE.INTRA.REPUL>
0.0750442

>  <SCORE.INTRA.REPUL.0>
0

>  <SCORE.INTRA.SOLV>
1.91711

>  <SCORE.INTRA.SOLV.lig_0>
-55.904

>  <SCORE.INTRA.VDW>
4.3736

>  <SCORE.INTRA.VDW.0>
-8.21197

>  <SCORE.INTRA.norm>
0.0182158

>  <SCORE.RESTR>
0

>  <SCORE.RESTR.CAVITY>
0

>  <SCORE.RESTR.norm>
0

>  <SCORE.SYSTEM>
0

>  <SCORE.SYSTEM.CONST>
0

>  <SCORE.SYSTEM.DIHEDRAL>
0

>  <SCORE.SYSTEM.SOLV>
0

>  <SCORE.SYSTEM.norm>
0

>  <SCORE.heavy>
42

>  <SCORE.norm>
-0.402082

>  <RMSD>
4.126

$$$$
lig.pdb
 OpenBabel11021811453D
libRbt.so/2013.1/901 2013/11/27
 42 45  0  0  0  0  0  0  0  0999 V2000
    2.3291    4.7763   -1.7151 C   0  0  2  0  0  0  0  0  0  0  0  0
    2.9654    4.5428   -0.4573 O   0  0  0  0  0  0  0  0  0  0  0  0
    1.7684    6.2046   -1.7878 C   0  0  2  0  0  0  0  0  0  0  0  0
    2.8186    7.2003   -1.5046 N   0  0  0  0  0  0  0  0  0  0  0  0
    0.5760    6.3762   -0.8380 C   0  0  1  0  0  0  0  0  0  0  0  0
   -0.0077    7.6487   -1.0422 O   0  0  0  0  0  0  0  0  0  0  0  0
   -0.4745    5.2865   -1.1004 C   0  0  2  0  0  0  0  0  0  0  0  0
   -1.4868    5.3648   -0.1152 O   0  0  0  0  0  0  0  0  0  0  0  0
    0.1560    3.8791   -1.0904 C   0  0  2  0  0  0  0  0  0  0  0  0
    1.2980    3.8192   -1.9444 O   0  0  0  0  0  0  0  0  0  0  0  0
   -0.9076    2.8744   -1.5725 C   0  0  0  0  0  0  0  0  0  0  0  0
   -0.3144    1.6455   -2.0706 O   0  0  0  0  0  0  0  0  0  0  0  0
    2.8384    0.2446   -0.2567 C   0  0  2  0  0  0  0  0  0  0  0  0
    3.2112   -1.0513    0.3449 N   0  0  0  0  0  0  0  0  0  0  0  0
    4.0871    0.9838   -0.7439 C   0  0  0  0  0  0  0  0  0  0  0  0
    3.7263    2.3800   -1.2370 C   0  0  2  0  0  0  0  0  0  0  0  0
    4.9124    3.0437   -1.7925 N   0  0  0  0  0  0  0  0  0  0  0  0
    3.1173    3.1730   -0.0573 C   0  0  2  0  0  0  0  0  0  0  0  0
    1.8135    2.5423    0.3141 C   0  0  2  0  0  0  0  0  0  0  0  0
    1.2540    3.3071    1.3661 O   0  0  0  0  0  0  0  0  0  0  0  0
    2.0455    1.1062    0.7440 C   0  0  1  0  0  0  0  0  0  0  0  0
    0.8329    0.4336    1.0274 O   0  0  0  0  0  0  0  0  0  0  0  0
    0.3049    2.6714    2.2158 C   0  0  1  0  0  0  0  0  0  0  0  0
    0.2781    3.4358    3.5411 C   0  0  2  0  0  0  0  0  0  0  0  0
    0.0772    2.5231    4.6039 O   0  0  0  0  0  0  0  0  0  0  0  0
   -0.9044    4.3943    3.3461 C   0  0  2  0  0  0  0  0  0  0  0  0
   -1.4391    4.8718    4.5809 O   0  0  0  0  0  0  0  0  0  0  0  0
   -1.8480    3.4919    2.5414 C   0  0  2  0  0  0  0  0  0  0  0  0
   -0.9951    2.7862    1.6510 O   0  0  0  0  0  0  0  0  0  0  0  0
   -2.9038    4.2473    1.7258 C   0  0  0  0  0  0  0  0  0  0  0  0
   -2.7799    5.6449    1.8824 O   0  0  0  0  0  0  0  0  0  0  0  0
   -2.3114    5.9933    4.4568 C   0  0  2  0  0  0  0  0  0  0  0  0
   -1.5336    7.2990    4.2322 C   0  0  2  0  0  0  0  0  0  0  0  0
   -0.6395    7.1853    3.0679 N   0  0  0  0  0  0  0  0  0  0  0  0
   -0.7623    7.7092    5.4956 C   0  0  1  0  0  0  0  0  0  0  0  0
   -0.1384    8.9564    5.2588 O   0  0  0  0  0  0  0  0  0  0  0  0
   -1.7620    7.8283    6.6585 C   0  0  2  0  0  0  0  0  0  0  0  0
   -1.0944    8.1636    7.8611 O   0  0  0  0  0  0  0  0  0  0  0  0
   -2.5645    6.5226    6.8335 C   0  0  1  0  0  0  0  0  0  0  0  0
   -3.1546    6.1020    5.6014 O   0  0  0  0  0  0  0  0  0  0  0  0
   -1.7579    5.3966    7.4971 C   0  0  0  0  0  0  0  0  0  0  0  0
   -1.2650    5.8003    8.8239 N   0  0  0  0  0  0  0  0  0  0  0  0
  1  3  1  0  0  0  0
  1  2  1  1  0  0  0
  3  4  1  1  0  0  0
  5  6  1  6  0  0  0
  5  3  1  0  0  0  0
  7  9  1  0  0  0  0
  7  5  1  0  0  0  0
  7  8  1  1  0  0  0
  9 10  1  0  0  0  0
  9 11  1  6  0  0  0
 10  1  1  0  0  0  0
 11 12  1  0  0  0  0
 13 14  1  1  0  0  0
 13 21  1  0  0  0  0
 15 13  1  0  0  0  0
 16 15  1  0  0  0  0
 16 18  1  0  0  0  0
 16 17  1  1  0  0  0
 18  2  1  6  0  0  0
 18 19  1  0  0  0  0
 19 21  1  0  0  0  0
 19 20  1  1  0  0  0
 21 22  1  6  0  0  0
 23 20  1  6  0  0  0
 23 29  1  0  0  0  0
 23 24  1  0  0  0  0
 24 26  1  0  0  0  0
 24 25  1  1  0  0  0
 26 27  1  1  0  0  0
 28 26  1  0  0  0  0
 28 30  1  6  0  0  0
 29 28  1  0  0  0  0
 30 31  1  0  0  0  0
 32 27  1  1  0  0  0
 32 40  1  0  0  0  0
 32 33  1  0  0  0  0
 33 35  1  0  0  0  0
 33 34  1  6  0  0  0
 35 37  1  0  0  0  0
 35 36  1  6  0  0  0
 37 38  1  1  0  0  0
 39 37  1  0  0  0  0
 39 41  1  6  0  0  0
 40 39  1  0  0  0  0
 42 41  1  0  0  0  0
M  END
>  <CHROM.1>
49.05714700,158.97846930,-15.48161923,42.45916097,55.48898531,-179.82481721
158.58764501,74.02264635,110.25825285,-157.14755391,157.41487749,69.76571285
59.28469207,165.68493881,-77.22616609,0.35146089,-160.48824028,-69.68995415
-176.94853128,70.01832916,58.36421571,-39.19424307,0.22487075,4.46663981
1.83406928,0.11036238,1.11804122,-0.64600261

>  <Name>
lig.pdb

>  <RI>
3.17932e+07

>  <Rbt.Current_Directory>
/home/itssahil/PROJECTS/Mol_Feturizer/New_Systems/rnas/2mxs

>  <Rbt.Executable>
rbdock ($Id: //depot/dev/client3/rdock/2013.1/src/exe/rbdock.cxx#4 $)

>  <Rbt.Library>
libRbt.so (2013.1, Build901 2013/11/27)

>  <Rbt.Parameter_File>
/export/apps/rDock/src/rDock_2013.1_src/data/scripts/dock_solv.prm

>  <Rbt.Receptor>
prm/blind_docking_100.prm

>  <SCORE>
19.2258

>  <SCORE.INTER>
-17.5509

>  <SCORE.INTER.CONST>
1

>  <SCORE.INTER.POLAR>
-3.90123

>  <SCORE.INTER.ROT>
9

>  <SCORE.INTER.SOLV>
26.1909

>  <SCORE.INTER.VDW>
-17.0268

>  <SCORE.INTER.norm>
-0.417878

>  <SCORE.INTRA>
14.3991

>  <SCORE.INTRA.DIHEDRAL>
-1.03635

>  <SCORE.INTRA.DIHEDRAL.0>
30.1357

>  <SCORE.INTRA.POLAR>
-1.07092

>  <SCORE.INTRA.POLAR.0>
-0.631696

>  <SCORE.INTRA.REPUL>
0

>  <SCORE.INTRA.REPUL.0>
0

>  <SCORE.INTRA.SOLV>
5.78135

>  <SCORE.INTRA.SOLV.lig_0>
-55.904

>  <SCORE.INTRA.VDW>
15.6677

>  <SCORE.INTRA.VDW.0>
-8.21197

>  <SCORE.INTRA.norm>
0.342836

>  <SCORE.RESTR>
22.3775

>  <SCORE.RESTR.CAVITY>
22.3775

>  <SCORE.RESTR.norm>
0.532798

>  <SCORE.SYSTEM>
0

>  <SCORE.SYSTEM.CONST>
0

>  <SCORE.SYSTEM.DIHEDRAL>
0

>  <SCORE.SYSTEM.SOLV>
0

>  <SCORE.SYSTEM.norm>
0

>  <SCORE.heavy>
42

>  <SCORE.norm>
0.457756

>  <RMSD>
4.247

$$$$
lig.pdb
 OpenBabel11021811453D
libRbt.so/2013.1/901 2013/11/27
 42 45  0  0  0  0  0  0  0  0999 V2000
   -1.5848    5.1246    1.1298 C   0  0  2  0  0  0  0  0  0  0  0  0
   -0.3229    4.4579    1.1975 O   0  0  0  0  0  0  0  0  0  0  0  0
   -1.4487    6.5970    1.5458 C   0  0  2  0  0  0  0  0  0  0  0  0
   -0.4171    7.2803    0.7437 N   0  0  0  0  0  0  0  0  0  0  0  0
   -1.1509    6.7194    3.0457 C   0  0  1  0  0  0  0  0  0  0  0  0
   -1.1840    8.0830    3.4214 O   0  0  0  0  0  0  0  0  0  0  0  0
   -2.1951    5.9416    3.8607 C   0  0  2  0  0  0  0  0  0  0  0  0
   -1.8152    5.9342    5.2235 O   0  0  0  0  0  0  0  0  0  0  0  0
   -2.3447    4.4932    3.3526 C   0  0  2  0  0  0  0  0  0  0  0  0
   -2.5506    4.4603    1.9407 O   0  0  0  0  0  0  0  0  0  0  0  0
   -3.5506    3.8564    4.0693 C   0  0  0  0  0  0  0  0  0  0  0  0
   -4.3698    3.0664    3.1664 O   0  0  0  0  0  0  0  0  0  0  0  0
   -0.5245    1.5746   -1.9926 C   0  0  2  0  0  0  0  0  0  0  0  0
   -0.1308    0.3082   -2.6420 N   0  0  0  0  0  0  0  0  0  0  0  0
    0.6950    2.4823   -1.8138 C   0  0  0  0  0  0  0  0  0  0  0  0
    0.3243    3.7291   -1.0193 C   0  0  2  0  0  0  0  0  0  0  0  0
    1.4741    4.6385   -0.9375 N   0  0  0  0  0  0  0  0  0  0  0  0
   -0.1676    3.2893    0.3793 C   0  0  2  0  0  0  0  0  0  0  0  0
   -1.4493    2.5369    0.2153 C   0  0  2  0  0  0  0  0  0  0  0  0
   -1.9031    2.1803    1.5081 O   0  0  0  0  0  0  0  0  0  0  0  0
   -1.2130    1.3071   -0.6410 C   0  0  1  0  0  0  0  0  0  0  0  0
   -2.4120    0.6009   -0.8991 O   0  0  0  0  0  0  0  0  0  0  0  0
   -1.2559    1.0937    2.1618 C   0  0  1  0  0  0  0  0  0  0  0  0
   -0.4751    1.6607    3.3494 C   0  0  2  0  0  0  0  0  0  0  0  0
    0.7280    0.9327    3.5090 O   0  0  0  0  0  0  0  0  0  0  0  0
   -1.4533    1.4594    4.5146 C   0  0  2  0  0  0  0  0  0  0  0  0
   -0.8054    1.4575    5.7870 O   0  0  0  0  0  0  0  0  0  0  0  0
   -2.0788    0.1195    4.1081 C   0  0  2  0  0  0  0  0  0  0  0  0
   -2.2313    0.2090    2.6984 O   0  0  0  0  0  0  0  0  0  0  0  0
   -3.4477   -0.1578    4.7404 C   0  0  0  0  0  0  0  0  0  0  0  0
   -3.5261    0.3513    6.0548 O   0  0  0  0  0  0  0  0  0  0  0  0
   -0.1510    2.6795    6.1226 C   0  0  2  0  0  0  0  0  0  0  0  0
    1.1095    2.4386    6.9671 C   0  0  2  0  0  0  0  0  0  0  0  0
    2.0278    1.5089    6.2885 N   0  0  0  0  0  0  0  0  0  0  0  0
    0.7472    1.9434    8.3753 C   0  0  1  0  0  0  0  0  0  0  0  0
    1.9365    1.8223    9.1313 O   0  0  0  0  0  0  0  0  0  0  0  0
   -0.1925    2.9727    9.0259 C   0  0  2  0  0  0  0  0  0  0  0  0
   -0.5928    2.5423   10.3139 O   0  0  0  0  0  0  0  0  0  0  0  0
   -1.4262    3.2340    8.1374 C   0  0  1  0  0  0  0  0  0  0  0  0
   -1.0471    3.5592    6.7981 O   0  0  0  0  0  0  0  0  0  0  0  0
   -2.4596    2.0987    8.1815 C   0  0  0  0  0  0  0  0  0  0  0  0
   -1.8119    0.7914    8.3755 N   0  0  0  0  0  0  0  0  0  0  0  0
  1  3  1  0  0  0  0
  1  2  1  1  0  0  0
  3  4  1  6  0  0  0
  5  6  1  1  0  0  0
  5  3  1  0  0  0  0
  7  9  1  0  0  0  0
  7  5  1  0  0  0  0
  7  8  1  1  0  0  0
  9 10  1  0  0  0  0
  9 11  1  1  0  0  0
 10  1  1  0  0  0  0
 11 12  1  0  0  0  0
 13 14  1  1  0  0  0
 13 21  1  0  0  0  0
 15 13  1  0  0  0  0
 16 15  1  0  0  0  0
 16 18  1  0  0  0  0
 16 17  1  1  0  0  0
 18  2  1  1  0  0  0
 18 19  1  0  0  0  0
 19 21  1  0  0  0  0
 19 20  1  1  0  0  0
 21 22  1  6  0  0  0
 23 20  1  1  0  0  0
 23 29  1  0  0  0  0
 23 24  1  0  0  0  0
 24 26  1  0  0  0  0
 24 25  1  1  0  0  0
 26 27  1  1  0  0  0
 28 26  1  0  0  0  0
 28 30  1  1  0  0  0
 29 28  1  0  0  0  0
 30 31  1  0  0  0  0
 32 27  1  1  0  0  0
 32 40  1  0  0  0  0
 32 33  1  0  0  0  0
 33 35  1  0  0  0  0
 33 34  1  6  0  0  0
 35 37  1  0  0  0  0
 35 36  1  1  0  0  0
 37 38  1  1  0  0  0
 39 37  1  0  0  0  0
 39 41  1  6  0  0  0
 40 39  1  0  0  0  0
 42 41  1  0  0  0  0
M  END
>  <CHROM.1>
87.46783462,-156.46451818,30.10268088,82.91388104,-91.53187795,172.25437627
137.88088059,144.38914216,-176.58513556,-76.54730130,111.55184612,-54.59982117
-53.66836371,62.44915478,-146.96878846,-35.27115920,65.99814821,133.52334522
-73.61022854,64.75196498,-32.29941206,-61.82762426,-1.05438857,2.87729989
3.58751824,-1.84349071,1.54348707,1.96580058

>  <Name>
lig.pdb

>  <RI>
224

>  <Rbt.Current_Directory>
/home/itssahil/PROJECTS/Mol_Feturizer/New_Systems/rnas/2mxs

>  <Rbt.Executable>
rbdock ($Id: //depot/dev/client3/rdock/2013.1/src/exe/rbdock.cxx#4 $)

>  <Rbt.Library>
libRbt.so (2013.1, Build901 2013/11/27)

>  <Rbt.Parameter_File>
/export/apps/rDock/src/rDock_2013.1_src/data/scripts/dock_solv.prm

>  <Rbt.Receptor>
prm/pocket_docking_2.prm

>  <SCORE>
-24.0766

>  <SCORE.INTER>
-35.1543

>  <SCORE.INTER.CONST>
1

>  <SCORE.INTER.POLAR>
-4.45572

>  <SCORE.INTER.ROT>
9

>  <SCORE.INTER.SOLV>
15.4142

>  <SCORE.INTER.VDW>
-23.3218

>  <SCORE.INTER.norm>
-0.837006

>  <SCORE.INTRA>
6.4859

>  <SCORE.INTRA.DIHEDRAL>
11.8304

>  <SCORE.INTRA.DIHEDRAL.0>
30.1357

>  <SCORE.INTRA.POLAR>
-2.23751

>  <SCORE.INTRA.POLAR.0>
-0.631696

>  <SCORE.INTRA.REPUL>
0.0696445

>  <SCORE.INTRA.REPUL.0>
0

>  <SCORE.INTRA.SOLV>
4.88045

>  <SCORE.INTRA.SOLV.lig_0>
-55.904

>  <SCORE.INTRA.VDW>
5.38976

>  <SCORE.INTRA.VDW.0>
-8.21197

>  <SCORE.INTRA.norm>
0.154426

>  <SCORE.RESTR>
4.59178

>  <SCORE.RESTR.CAVITY>
4.59178

>  <SCORE.RESTR.norm>
0.109328

>  <SCORE.SYSTEM>
0

>  <SCORE.SYSTEM.CONST>
0

>  <SCORE.SYSTEM.DIHEDRAL>
0

>  <SCORE.SYSTEM.SOLV>
0

>  <SCORE.SYSTEM.norm>
0

>  <SCORE.heavy>
42

>  <SCORE.norm>
-0.573252

>  <RMSD>
4.273

$$$$
lig.pdb
 OpenBabel11021811453D
libRbt.so/2013.1/901 2013/11/27
 42 45  0  0  0  0  0  0  0  0999 V2000
    2.2875    5.7989   -0.8795 C   0  0  2  0  0  0  0  0  0  0  0  0
    2.4230    4.6004   -1.6455 O   0  0  0  0  0  0  0  0  0  0  0  0
    1.1066    6.6411   -1.3854 C   0  0  2  0  0  0  0  0  0  0  0  0
   -0.1380    5.8506   -1.4026 N   0  0  0  0  0  0  0  0  0  0  0  0
    1.4045    7.2297   -2.7705 C   0  0  1  0  0  0  0  0  0  0  0  0
    0.3661    8.1183   -3.1363 O   0  0  0  0  0  0  0  0  0  0  0  0
    2.7400    7.9884   -2.7503 C   0  0  2  0  0  0  0  0  0  0  0  0
    3.0729    8.3861   -4.0665 O   0  0  0  0  0  0  0  0  0  0  0  0
    3.8736    7.1224   -2.1641 C   0  0  2  0  0  0  0  0  0  0  0  0
    3.4946    6.5564   -0.9099 O   0  0  0  0  0  0  0  0  0  0  0  0
    5.1130    8.0182   -1.9776 C   0  0  0  0  0  0  0  0  0  0  0  0
    4.9286    8.9946   -0.9179 O   0  0  0  0  0  0  0  0  0  0  0  0
    2.7426    0.4652   -0.4929 C   0  0  2  0  0  0  0  0  0  0  0  0
    3.0269   -0.6054    0.4835 N   0  0  0  0  0  0  0  0  0  0  0  0
    3.9860    1.3312   -0.7099 C   0  0  0  0  0  0  0  0  0  0  0  0
    3.6623    2.5203   -1.6066 C   0  0  2  0  0  0  0  0  0  0  0  0
    4.8809    3.2892   -1.8886 N   0  0  0  0  0  0  0  0  0  0  0  0
    2.5831    3.3799   -0.9079 C   0  0  2  0  0  0  0  0  0  0  0  0
    1.3171    2.5873   -0.8403 C   0  0  2  0  0  0  0  0  0  0  0  0
    0.3328    3.4062   -0.2362 O   0  0  0  0  0  0  0  0  0  0  0  0
    1.5489    1.3235   -0.0338 C   0  0  1  0  0  0  0  0  0  0  0  0
    0.4037    0.4922   -0.0077 O   0  0  0  0  0  0  0  0  0  0  0  0
   -0.6964    2.7651    0.5098 C   0  0  1  0  0  0  0  0  0  0  0  0
   -0.5125    3.1434    1.9810 C   0  0  2  0  0  0  0  0  0  0  0  0
   -0.8611    2.0397    2.7953 O   0  0  0  0  0  0  0  0  0  0  0  0
   -1.4733    4.3294    2.1401 C   0  0  2  0  0  0  0  0  0  0  0  0
   -1.8492    4.5587    3.4984 O   0  0  0  0  0  0  0  0  0  0  0  0
   -2.6149    3.8712    1.2242 C   0  0  2  0  0  0  0  0  0  0  0  0
   -1.9633    3.2740    0.1120 O   0  0  0  0  0  0  0  0  0  0  0  0
   -3.5177    5.0043    0.7228 C   0  0  0  0  0  0  0  0  0  0  0  0
   -4.2192    5.6183    1.7830 O   0  0  0  0  0  0  0  0  0  0  0  0
   -0.7711    4.9146    4.3615 C   0  0  2  0  0  0  0  0  0  0  0  0
   -1.2730    5.5085    5.6864 C   0  0  2  0  0  0  0  0  0  0  0  0
   -2.2111    4.5900    6.3530 N   0  0  0  0  0  0  0  0  0  0  0  0
   -1.9003    6.8940    5.4705 C   0  0  1  0  0  0  0  0  0  0  0  0
   -2.2641    7.4261    6.7296 O   0  0  0  0  0  0  0  0  0  0  0  0
   -0.8579    7.7996    4.7929 C   0  0  2  0  0  0  0  0  0  0  0  0
   -1.4011    9.0805    4.5312 O   0  0  0  0  0  0  0  0  0  0  0  0
   -0.3335    7.1603    3.4906 C   0  0  1  0  0  0  0  0  0  0  0  0
    0.1155    5.8209    3.7091 O   0  0  0  0  0  0  0  0  0  0  0  0
   -1.3297    7.2484    2.3251 C   0  0  0  0  0  0  0  0  0  0  0  0
   -1.0456    8.4073    1.4633 N   0  0  0  0  0  0  0  0  0  0  0  0
  1  3  1  0  0  0  0
  1  2  1  6  0  0  0
  3  4  1  6  0  0  0
  5  6  1  1  0  0  0
  5  3  1  0  0  0  0
  7  9  1  0  0  0  0
  7  5  1  0  0  0  0
  7  8  1  6  0  0  0
  9 10  1  0  0  0  0
  9 11  1  1  0  0  0
 10  1  1  0  0  0  0
 11 12  1  0  0  0  0
 13 14  1  1  0  0  0
 13 21  1  0  0  0  0
 15 13  1  0  0  0  0
 16 15  1  0  0  0  0
 16 18  1  0  0  0  0
 16 17  1  1  0  0  0
 18  2  1  6  0  0  0
 18 19  1  0  0  0  0
 19 21  1  0  0  0  0
 19 20  1  1  0  0  0
 21 22  1  6  0  0  0
 23 20  1  6  0  0  0
 23 29  1  0  0  0  0
 23 24  1  0  0  0  0
 24 26  1  0  0  0  0
 24 25  1  1  0  0  0
 26 27  1  1  0  0  0
 28 26  1  0  0  0  0
 28 30  1  6  0  0  0
 29 28  1  0  0  0  0
 30 31  1  0  0  0  0
 32 27  1  6  0  0  0
 32 40  1  0  0  0  0
 32 33  1  0  0  0  0
 33 35  1  0  0  0  0
 33 34  1  6  0  0  0
 35 37  1  0  0  0  0
 35 36  1  1  0  0  0
 37 38  1  6  0  0  0
 39 37  1  0  0  0  0
 39 41  1  6  0  0  0
 40 39  1  0  0  0  0
 42 41  1  0  0  0  0
M  END
>  <CHROM.1>
-138.21519073,-132.25767020,-89.18610978,34.38924664,-61.83376418,87.52337961
69.33386160,159.77723284,45.10735743,-150.47354767,112.86309567,67.41037048
178.29161701,63.09441105,164.60275283,-64.78773840,54.59242297,-67.62201694
-166.12266200,-163.34389208,95.98855342,48.74908458,0.55665559,5.09858350
0.81042846,-0.07461374,0.87969791,-0.04257024

>  <Name>
lig.pdb

>  <RI>
3.31443e+07

>  <Rbt.Current_Directory>
/home/itssahil/PROJECTS/Mol_Feturizer/New_Systems/rnas/2mxs

>  <Rbt.Executable>
rbdock ($Id: //depot/dev/client3/rdock/2013.1/src/exe/rbdock.cxx#4 $)

>  <Rbt.Library>
libRbt.so (2013.1, Build901 2013/11/27)

>  <Rbt.Parameter_File>
/export/apps/rDock/src/rDock_2013.1_src/data/scripts/dock_solv.prm

>  <Rbt.Receptor>
prm/blind_docking_40.prm

>  <SCORE>
28.7628

>  <SCORE.INTER>
-17.2518

>  <SCORE.INTER.CONST>
1

>  <SCORE.INTER.POLAR>
-6.12508

>  <SCORE.INTER.ROT>
9

>  <SCORE.INTER.SOLV>
29.4536

>  <SCORE.INTER.VDW>
-10.5021

>  <SCORE.INTER.norm>
-0.410757

>  <SCORE.INTRA>
9.79696

>  <SCORE.INTRA.DIHEDRAL>
10.135

>  <SCORE.INTRA.DIHEDRAL.0>
30.1357

>  <SCORE.INTRA.POLAR>
-0.370215

>  <SCORE.INTRA.POLAR.0>
-0.631696

>  <SCORE.INTRA.REPUL>
0

>  <SCORE.INTRA.REPUL.0>
0

>  <SCORE.INTRA.SOLV>
0.474485

>  <SCORE.INTRA.SOLV.lig_0>
-55.904

>  <SCORE.INTRA.VDW>
5.75096

>  <SCORE.INTRA.VDW.0>
-8.21197

>  <SCORE.INTRA.norm>
0.233261

>  <SCORE.RESTR>
36.2176

>  <SCORE.RESTR.CAVITY>
36.2176

>  <SCORE.RESTR.norm>
0.862324

>  <SCORE.SYSTEM>
0

>  <SCORE.SYSTEM.CONST>
0

>  <SCORE.SYSTEM.DIHEDRAL>
0

>  <SCORE.SYSTEM.SOLV>
0

>  <SCORE.SYSTEM.norm>
0

>  <SCORE.heavy>
42

>  <SCORE.norm>
0.684828

>  <RMSD>
4.285

$$$$
lig.pdb
 OpenBabel11021811453D
libRbt.so/2013.1/901 2013/11/27
 42 45  0  0  0  0  0  0  0  0999 V2000
    1.5154    4.3319    0.9109 C   0  0  2  0  0  0  0  0  0  0  0  0
    1.4264    3.0350    0.3179 O   0  0  0  0  0  0  0  0  0  0  0  0
    0.1863    4.7223    1.5748 C   0  0  2  0  0  0  0  0  0  0  0  0
   -0.2418    3.6974    2.5447 N   0  0  0  0  0  0  0  0  0  0  0  0
   -0.9013    4.9730    0.5223 C   0  0  1  0  0  0  0  0  0  0  0  0
   -2.0616    5.4761    1.1566 O   0  0  0  0  0  0  0  0  0  0  0  0
   -0.4095    5.9893   -0.5194 C   0  0  2  0  0  0  0  0  0  0  0  0
   -1.3595    6.0872   -1.5632 O   0  0  0  0  0  0  0  0  0  0  0  0
    0.9623    5.5872   -1.0979 C   0  0  2  0  0  0  0  0  0  0  0  0
    1.8981    5.3047   -0.0580 O   0  0  0  0  0  0  0  0  0  0  0  0
    1.4792    6.7546   -1.9600 C   0  0  0  0  0  0  0  0  0  0  0  0
    1.7923    7.9278   -1.1626 O   0  0  0  0  0  0  0  0  0  0  0  0
    4.5149    0.2060   -0.6766 C   0  0  2  0  0  0  0  0  0  0  0  0
    5.8616   -0.3767   -0.5115 N   0  0  0  0  0  0  0  0  0  0  0  0
    4.6185    1.6771   -1.0869 C   0  0  0  0  0  0  0  0  0  0  0  0
    3.2385    2.3231   -1.1222 C   0  0  2  0  0  0  0  0  0  0  0  0
    3.3376    3.7041   -1.6108 N   0  0  0  0  0  0  0  0  0  0  0  0
    2.6293    2.2527    0.2975 C   0  0  2  0  0  0  0  0  0  0  0  0
    2.3789    0.8177    0.6346 C   0  0  2  0  0  0  0  0  0  0  0  0
    1.7837    0.7787    1.9186 O   0  0  0  0  0  0  0  0  0  0  0  0
    3.6887    0.0527    0.6143 C   0  0  1  0  0  0  0  0  0  0  0  0
    3.4998   -1.3308    0.8446 O   0  0  0  0  0  0  0  0  0  0  0  0
    2.2797   -0.1764    2.8506 C   0  0  1  0  0  0  0  0  0  0  0  0
    2.2723    0.4742    4.2355 C   0  0  2  0  0  0  0  0  0  0  0  0
    3.3933    0.0217    4.9713 O   0  0  0  0  0  0  0  0  0  0  0  0
    0.9391   -0.0102    4.8212 C   0  0  2  0  0  0  0  0  0  0  0  0
    0.9060    0.0521    6.2473 O   0  0  0  0  0  0  0  0  0  0  0  0
    0.8914   -1.4274    4.2370 C   0  0  2  0  0  0  0  0  0  0  0  0
    1.3932   -1.2864    2.9154 O   0  0  0  0  0  0  0  0  0  0  0  0
   -0.5130   -2.0391    4.1738 C   0  0  0  0  0  0  0  0  0  0  0  0
   -1.4315   -1.1689    3.5474 O   0  0  0  0  0  0  0  0  0  0  0  0
   -0.1774   -0.6544    6.8482 C   0  0  2  0  0  0  0  0  0  0  0  0
   -1.4391    0.2162    6.9513 C   0  0  2  0  0  0  0  0  0  0  0  0
   -1.8164    0.7541    5.6336 N   0  0  0  0  0  0  0  0  0  0  0  0
   -1.2559    1.3376    7.9850 C   0  0  1  0  0  0  0  0  0  0  0  0
   -2.4728    2.0495    8.0992 O   0  0  0  0  0  0  0  0  0  0  0  0
   -0.8861    0.6992    9.3347 C   0  0  2  0  0  0  0  0  0  0  0  0
   -0.6631    1.6951   10.3159 O   0  0  0  0  0  0  0  0  0  0  0  0
    0.3539   -0.2078    9.1959 C   0  0  1  0  0  0  0  0  0  0  0  0
    0.1970   -1.1494    8.1319 O   0  0  0  0  0  0  0  0  0  0  0  0
    1.6705    0.5745    9.0800 C   0  0  0  0  0  0  0  0  0  0  0  0
    1.5468    1.6952    8.1340 N   0  0  0  0  0  0  0  0  0  0  0  0
  1  3  1  0  0  0  0
  1  2  1  6  0  0  0
  3  4  1  1  0  0  0
  5  6  1  1  0  0  0
  5  3  1  0  0  0  0
  7  9  1  0  0  0  0
  7  5  1  0  0  0  0
  7  8  1  6  0  0  0
  9 10  1  0  0  0  0
  9 11  1  1  0  0  0
 10  1  1  0  0  0  0
 11 12  1  0  0  0  0
 13 14  1  1  0  0  0
 13 21  1  0  0  0  0
 15 13  1  0  0  0  0
 16 15  1  0  0  0  0
 16 18  1  0  0  0  0
 16 17  1  1  0  0  0
 18  2  1  6  0  0  0
 18 19  1  0  0  0  0
 19 21  1  0  0  0  0
 19 20  1  1  0  0  0
 21 22  1  6  0  0  0
 23 20  1  6  0  0  0
 23 29  1  0  0  0  0
 23 24  1  0  0  0  0
 24 26  1  0  0  0  0
 24 25  1  1  0  0  0
 26 27  1  1  0  0  0
 28 26  1  0  0  0  0
 28 30  1  6  0  0  0
 29 28  1  0  0  0  0
 30 31  1  0  0  0  0
 32 27  1  1  0  0  0
 32 40  1  0  0  0  0
 32 33  1  0  0  0  0
 33 35  1  0  0  0  0
 33 34  1  6  0  0  0
 35 37  1  0  0  0  0
 35 36  1  1  0  0  0
 37 38  1  1  0  0  0
 39 37  1  0  0  0  0
 39 41  1  6  0  0  0
 40 39  1  0  0  0  0
 42 41  1  0  0  0  0
M  END
>  <CHROM.1>
-101.73923456,-148.25358674,55.88522903,-57.83992310,-41.70941761,-171.64089984
67.14020978,177.25093120,-93.61274239,-134.62892463,142.54166687,-47.19270988
-150.24919869,-166.73065756,-87.00922826,51.04065524,68.89967785,170.75281181
-61.56427695,179.51198712,-45.25992918,-53.79206684,1.05290512,1.82058191
3.04512677,1.25558961,0.84037670,-0.88356881

>  <Name>
lig.pdb

>  <RI>
0

>  <Rbt.Current_Directory>
/home/itssahil/PROJECTS/Mol_Feturizer/New_Systems/rnas/2mxs

>  <Rbt.Executable>
rbdock ($Id: //depot/dev/client3/rdock/2013.1/src/exe/rbdock.cxx#4 $)

>  <Rbt.Library>
libRbt.so (2013.1, Build901 2013/11/27)

>  <Rbt.Parameter_File>
/export/apps/rDock/src/rDock_2013.1_src/data/scripts/dock_solv.prm

>  <Rbt.Receptor>
prm/blind_docking_80.prm

>  <SCORE>
4.99602

>  <SCORE.INTER>
-10.3073

>  <SCORE.INTER.CONST>
1

>  <SCORE.INTER.POLAR>
-3.53047

>  <SCORE.INTER.ROT>
9

>  <SCORE.INTER.SOLV>
34.8159

>  <SCORE.INTER.VDW>
-16.3086

>  <SCORE.INTER.norm>
-0.245411

>  <SCORE.INTRA>
5.01058

>  <SCORE.INTRA.DIHEDRAL>
5.32434

>  <SCORE.INTRA.DIHEDRAL.0>
30.1357

>  <SCORE.INTRA.POLAR>
-1.91533

>  <SCORE.INTRA.POLAR.0>
-0.631696

>  <SCORE.INTRA.REPUL>
0

>  <SCORE.INTRA.REPUL.0>
0

>  <SCORE.INTRA.SOLV>
2.17377

>  <SCORE.INTRA.SOLV.lig_0>
-55.904

>  <SCORE.INTRA.VDW>
7.77367

>  <SCORE.INTRA.VDW.0>
-8.21197

>  <SCORE.INTRA.norm>
0.1193

>  <SCORE.RESTR>
10.2927

>  <SCORE.RESTR.CAVITY>
10.2927

>  <SCORE.RESTR.norm>
0.245065

>  <SCORE.SYSTEM>
0

>  <SCORE.SYSTEM.CONST>
0

>  <SCORE.SYSTEM.DIHEDRAL>
0

>  <SCORE.SYSTEM.SOLV>
0

>  <SCORE.SYSTEM.norm>
0

>  <SCORE.heavy>
42

>  <SCORE.norm>
0.118953

>  <RMSD>
4.306

$$$$
lig.pdb
 OpenBabel11021811453D
libRbt.so/2013.1/901 2013/11/27
 42 45  0  0  0  0  0  0  0  0999 V2000
    1.9912    4.9434   -1.8444 C   0  0  2  0  0  0  0  0  0  0  0  0
    2.9022    4.7069   -0.7695 O   0  0  0  0  0  0  0  0  0  0  0  0
    2.2358    6.3222   -2.4758 C   0  0  2  0  0  0  0  0  0  0  0  0
    3.6411    6.4691   -2.8977 N   0  0  0  0  0  0  0  0  0  0  0  0
    1.8286    7.4469   -1.5151 C   0  0  1  0  0  0  0  0  0  0  0  0
    1.9226    8.6911   -2.1819 O   0  0  0  0  0  0  0  0  0  0  0  0
    0.3861    7.2368   -1.0308 C   0  0  2  0  0  0  0  0  0  0  0  0
    0.0847    8.1896   -0.0293 O   0  0  0  0  0  0  0  0  0  0  0  0
    0.1774    5.8129   -0.4764 C   0  0  2  0  0  0  0  0  0  0  0  0
    0.6425    4.8271   -1.3978 O   0  0  0  0  0  0  0  0  0  0  0  0
   -1.3286    5.6151   -0.2191 C   0  0  0  0  0  0  0  0  0  0  0  0
   -1.8178    6.4667    0.8513 O   0  0  0  0  0  0  0  0  0  0  0  0
    2.6514    0.4314   -0.3361 C   0  0  2  0  0  0  0  0  0  0  0  0
    2.9389   -0.8340    0.3686 N   0  0  0  0  0  0  0  0  0  0  0  0
    3.9554    1.1156   -0.7540 C   0  0  0  0  0  0  0  0  0  0  0  0
    3.6731    2.4873   -1.3554 C   0  0  2  0  0  0  0  0  0  0  0  0
    4.9186    3.0934   -1.8423 N   0  0  0  0  0  0  0  0  0  0  0  0
    2.9850    3.3604   -0.2804 C   0  0  2  0  0  0  0  0  0  0  0  0
    1.6389    2.7787    0.0114 C   0  0  2  0  0  0  0  0  0  0  0  0
    1.0104    3.6151    0.9654 O   0  0  0  0  0  0  0  0  0  0  0  0
    1.7973    1.3660    0.5411 C   0  0  1  0  0  0  0  0  0  0  0  0
    0.5485    0.7356    0.7556 O   0  0  0  0  0  0  0  0  0  0  0  0
    0.1585    3.0009    1.9266 C   0  0  1  0  0  0  0  0  0  0  0  0
    0.1088    3.9104    3.1562 C   0  0  2  0  0  0  0  0  0  0  0  0
    0.0354    3.1148    4.3242 O   0  0  0  0  0  0  0  0  0  0  0  0
   -1.1658    4.7290    2.9107 C   0  0  2  0  0  0  0  0  0  0  0  0
   -1.6968    5.2984    4.1076 O   0  0  0  0  0  0  0  0  0  0  0  0
   -2.0489    3.6570    2.2602 C   0  0  2  0  0  0  0  0  0  0  0  0
   -1.1668    2.9311    1.4157 O   0  0  0  0  0  0  0  0  0  0  0  0
   -3.2014    4.2132    1.4159 C   0  0  0  0  0  0  0  0  0  0  0  0
   -3.9353    5.1932    2.1189 O   0  0  0  0  0  0  0  0  0  0  0  0
   -0.7164    5.6751    5.0724 C   0  0  2  0  0  0  0  0  0  0  0  0
   -1.3438    5.9432    6.4489 C   0  0  2  0  0  0  0  0  0  0  0  0
   -2.1258    4.7824    6.9059 N   0  0  0  0  0  0  0  0  0  0  0  0
   -2.1943    7.2223    6.4307 C   0  0  1  0  0  0  0  0  0  0  0  0
   -2.6735    7.4644    7.7393 O   0  0  0  0  0  0  0  0  0  0  0  0
   -1.3071    8.3897    5.9661 C   0  0  2  0  0  0  0  0  0  0  0  0
   -2.0557    9.5889    5.8902 O   0  0  0  0  0  0  0  0  0  0  0  0
   -0.6502    8.0773    4.6058 C   0  0  1  0  0  0  0  0  0  0  0  0
    0.0167    6.8132    4.6247 O   0  0  0  0  0  0  0  0  0  0  0  0
   -1.6191    8.1971    3.4201 C   0  0  0  0  0  0  0  0  0  0  0  0
   -1.0248    8.9710    2.3182 N   0  0  0  0  0  0  0  0  0  0  0  0
  1  3  1  0  0  0  0
  1  2  1  1  0  0  0
  3  4  1  1  0  0  0
  5  6  1  6  0  0  0
  5  3  1  0  0  0  0
  7  9  1  0  0  0  0
  7  5  1  0  0  0  0
  7  8  1  1  0  0  0
  9 10  1  0  0  0  0
  9 11  1  6  0  0  0
 10  1  1  0  0  0  0
 11 12  1  0  0  0  0
 13 14  1  1  0  0  0
 13 21  1  0  0  0  0
 15 13  1  0  0  0  0
 16 15  1  0  0  0  0
 16 18  1  0  0  0  0
 16 17  1  1  0  0  0
 18  2  1  6  0  0  0
 18 19  1  0  0  0  0
 19 21  1  0  0  0  0
 19 20  1  1  0  0  0
 21 22  1  6  0  0  0
 23 20  1  6  0  0  0
 23 29  1  0  0  0  0
 23 24  1  0  0  0  0
 24 26  1  0  0  0  0
 24 25  1  1  0  0  0
 26 27  1  1  0  0  0
 28 26  1  0  0  0  0
 28 30  1  6  0  0  0
 29 28  1  0  0  0  0
 30 31  1  0  0  0  0
 32 27  1  6  0  0  0
 32 40  1  0  0  0  0
 32 33  1  0  0  0  0
 33 35  1  0  0  0  0
 33 34  1  6  0  0  0
 35 37  1  0  0  0  0
 35 36  1  1  0  0  0
 37 38  1  6  0  0  0
 39 37  1  0  0  0  0
 39 41  1  6  0  0  0
 40 39  1  0  0  0  0
 42 41  1  0  0  0  0
M  END
>  <CHROM.1>
70.07439513,-166.89926741,-173.06686528,-149.39488504,-38.00120359,65.18536764
-66.71272600,-167.88769346,25.43841929,-145.81036366,155.15402003,61.89028412
57.88230497,33.37107252,-165.67076656,-49.57238340,78.43294530,61.30685834
-168.34176650,72.63778183,132.83707790,-49.92920212,0.22695471,5.07991059
1.61706267,-0.13634396,1.00921898,-0.37246011

>  <Name>
lig.pdb

>  <RI>
3.31443e+07

>  <Rbt.Current_Directory>
/home/itssahil/PROJECTS/Mol_Feturizer/New_Systems/rnas/2mxs

>  <Rbt.Executable>
rbdock ($Id: //depot/dev/client3/rdock/2013.1/src/exe/rbdock.cxx#4 $)

>  <Rbt.Library>
libRbt.so (2013.1, Build901 2013/11/27)

>  <Rbt.Parameter_File>
/export/apps/rDock/src/rDock_2013.1_src/data/scripts/dock_solv.prm

>  <Rbt.Receptor>
prm/blind_docking_40.prm

>  <SCORE>
0.113819

>  <SCORE.INTER>
-40.5434

>  <SCORE.INTER.CONST>
1

>  <SCORE.INTER.POLAR>
-4.45987

>  <SCORE.INTER.ROT>
9

>  <SCORE.INTER.SOLV>
27.6599

>  <SCORE.INTER.VDW>
-30.9827

>  <SCORE.INTER.norm>
-0.96532

>  <SCORE.INTRA>
11.258

>  <SCORE.INTRA.DIHEDRAL>
-0.204335

>  <SCORE.INTRA.DIHEDRAL.0>
30.1357

>  <SCORE.INTRA.POLAR>
-0.685133

>  <SCORE.INTRA.POLAR.0>
-0.631696

>  <SCORE.INTRA.REPUL>
0

>  <SCORE.INTRA.REPUL.0>
0

>  <SCORE.INTRA.SOLV>
5.25772

>  <SCORE.INTRA.SOLV.lig_0>
-55.904

>  <SCORE.INTRA.VDW>
11.0607

>  <SCORE.INTRA.VDW.0>
-8.21197

>  <SCORE.INTRA.norm>
0.268047

>  <SCORE.RESTR>
29.3993

>  <SCORE.RESTR.CAVITY>
29.3993

>  <SCORE.RESTR.norm>
0.699983

>  <SCORE.SYSTEM>
0

>  <SCORE.SYSTEM.CONST>
0

>  <SCORE.SYSTEM.DIHEDRAL>
0

>  <SCORE.SYSTEM.SOLV>
0

>  <SCORE.SYSTEM.norm>
0

>  <SCORE.heavy>
42

>  <SCORE.norm>
0.00270998

>  <RMSD>
4.343

$$$$
lig.pdb
 OpenBabel11021811453D
libRbt.so/2013.1/901 2013/11/27
 42 45  0  0  0  0  0  0  0  0999 V2000
    2.3920    5.0689   -1.8130 C   0  0  2  0  0  0  0  0  0  0  0  0
    3.1143    4.7981   -0.6103 O   0  0  0  0  0  0  0  0  0  0  0  0
    2.6558    6.5021   -2.2988 C   0  0  2  0  0  0  0  0  0  0  0  0
    4.1010    6.7512   -2.4522 N   0  0  0  0  0  0  0  0  0  0  0  0
    2.0170    7.5290   -1.3548 C   0  0  1  0  0  0  0  0  0  0  0  0
    2.1474    8.8232   -1.9112 O   0  0  0  0  0  0  0  0  0  0  0  0
    0.5281    7.2104   -1.1509 C   0  0  2  0  0  0  0  0  0  0  0  0
   -0.0030    8.0683   -0.1593 O   0  0  0  0  0  0  0  0  0  0  0  0
    0.3160    5.7400   -0.7372 C   0  0  2  0  0  0  0  0  0  0  0  0
    0.9961    4.8514   -1.6231 O   0  0  0  0  0  0  0  0  0  0  0  0
   -1.1963    5.4476   -0.7667 C   0  0  0  0  0  0  0  0  0  0  0  0
   -1.4811    4.0258   -0.6787 O   0  0  0  0  0  0  0  0  0  0  0  0
    2.6321    0.5315   -0.3034 C   0  0  2  0  0  0  0  0  0  0  0  0
    2.8923   -0.7747    0.3340 N   0  0  0  0  0  0  0  0  0  0  0  0
    3.9411    1.1528   -0.7968 C   0  0  0  0  0  0  0  0  0  0  0  0
    3.7003    2.5608   -1.3282 C   0  0  2  0  0  0  0  0  0  0  0  0
    4.9413    3.1104   -1.8885 N   0  0  0  0  0  0  0  0  0  0  0  0
    3.1497    3.4313   -0.1747 C   0  0  2  0  0  0  0  0  0  0  0  0
    1.7956    2.9197    0.1997 C   0  0  2  0  0  0  0  0  0  0  0  0
    1.2930    3.7546    1.2267 O   0  0  0  0  0  0  0  0  0  0  0  0
    1.9053    1.4808    0.6677 C   0  0  1  0  0  0  0  0  0  0  0  0
    0.6392    0.9177    0.9559 O   0  0  0  0  0  0  0  0  0  0  0  0
    0.2809    3.2246    2.0763 C   0  0  1  0  0  0  0  0  0  0  0  0
    0.3248    3.9992    3.3952 C   0  0  2  0  0  0  0  0  0  0  0  0
    0.0283    3.1205    4.4642 O   0  0  0  0  0  0  0  0  0  0  0  0
   -0.7546    5.0698    3.1859 C   0  0  2  0  0  0  0  0  0  0  0  0
   -1.2444    5.6092    4.4139 O   0  0  0  0  0  0  0  0  0  0  0  0
   -1.7802    4.2599    2.3834 C   0  0  2  0  0  0  0  0  0  0  0  0
   -0.9983    3.4646    1.5034 O   0  0  0  0  0  0  0  0  0  0  0  0
   -2.7509    5.1105    1.5559 C   0  0  0  0  0  0  0  0  0  0  0  0
   -3.9062    4.3819    1.1987 O   0  0  0  0  0  0  0  0  0  0  0  0
   -0.2380    6.1427    5.2721 C   0  0  2  0  0  0  0  0  0  0  0  0
   -0.7761    6.4083    6.6864 C   0  0  2  0  0  0  0  0  0  0  0  0
   -1.3766    5.1915    7.2580 N   0  0  0  0  0  0  0  0  0  0  0  0
   -1.7686    7.5807    6.6908 C   0  0  1  0  0  0  0  0  0  0  0  0
   -2.1625    7.8337    8.0255 O   0  0  0  0  0  0  0  0  0  0  0  0
   -1.0653    8.8155    6.1021 C   0  0  2  0  0  0  0  0  0  0  0  0
   -1.9526    9.9172    6.0432 O   0  0  0  0  0  0  0  0  0  0  0  0
   -0.4916    8.5102    4.7030 C   0  0  1  0  0  0  0  0  0  0  0  0
    0.3175    7.3319    4.7150 O   0  0  0  0  0  0  0  0  0  0  0  0
   -1.5628    8.4593    3.6036 C   0  0  0  0  0  0  0  0  0  0  0  0
   -1.0556    9.0068    2.3350 N   0  0  0  0  0  0  0  0  0  0  0  0
  1  3  1  0  0  0  0
  1  2  1  1  0  0  0
  3  4  1  1  0  0  0
  5  6  1  6  0  0  0
  5  3  1  0  0  0  0
  7  9  1  0  0  0  0
  7  5  1  0  0  0  0
  7  8  1  1  0  0  0
  9 10  1  0  0  0  0
  9 11  1  6  0  0  0
 10  1  1  0  0  0  0
 11 12  1  0  0  0  0
 13 14  1  1  0  0  0
 13 21  1  0  0  0  0
 15 13  1  0  0  0  0
 16 15  1  0  0  0  0
 16 18  1  0  0  0  0
 16 17  1  1  0  0  0
 18  2  1  6  0  0  0
 18 19  1  0  0  0  0
 19 21  1  0  0  0  0
 19 20  1  1  0  0  0
 21 22  1  6  0  0  0
 23 20  1  6  0  0  0
 23 29  1  0  0  0  0
 23 24  1  0  0  0  0
 24 26  1  0  0  0  0
 24 25  1  1  0  0  0
 26 27  1  1  0  0  0
 28 26  1  0  0  0  0
 28 30  1  6  0  0  0
 29 28  1  0  0  0  0
 30 31  1  0  0  0  0
 32 27  1  6  0  0  0
 32 40  1  0  0  0  0
 32 33  1  0  0  0  0
 33 35  1  0  0  0  0
 33 34  1  6  0  0  0
 35 37  1  0  0  0  0
 35 36  1  1  0  0  0
 37 38  1  6  0  0  0
 39 37  1  0  0  0  0
 39 41  1  6  0  0  0
 40 39  1  0  0  0  0
 42 41  1  0  0  0  0
M  END
>  <CHROM.1>
55.15958322,-169.31962128,-51.52278380,-174.23538718,165.33412137,47.52191029
167.42345376,-171.78844856,-22.82864415,-157.62351263,156.25445988,-57.79507948
59.56623266,55.14806642,-167.00104793,-160.90272274,-171.76783460,-170.95956063
-174.23480236,68.94168380,144.01856874,-171.74817663,0.44239776,5.18758401
1.64999485,-0.19198529,1.06759688,-0.33159176

>  <Name>
lig.pdb

>  <RI>
3.17932e+07

>  <Rbt.Current_Directory>
/home/itssahil/PROJECTS/Mol_Feturizer/New_Systems/rnas/2mxs

>  <Rbt.Executable>
rbdock ($Id: //depot/dev/client3/rdock/2013.1/src/exe/rbdock.cxx#4 $)

>  <Rbt.Library>
libRbt.so (2013.1, Build901 2013/11/27)

>  <Rbt.Parameter_File>
/export/apps/rDock/src/rDock_2013.1_src/data/scripts/dock_solv.prm

>  <Rbt.Receptor>
prm/blind_docking_100.prm

>  <SCORE>
-6.96697

>  <SCORE.INTER>
-29.1422

>  <SCORE.INTER.CONST>
1

>  <SCORE.INTER.POLAR>
-4.3197

>  <SCORE.INTER.ROT>
9

>  <SCORE.INTER.SOLV>
30.8968

>  <SCORE.INTER.VDW>
-24.928

>  <SCORE.INTER.norm>
-0.693861

>  <SCORE.INTRA>
3.455

>  <SCORE.INTRA.DIHEDRAL>
-12.0701

>  <SCORE.INTRA.DIHEDRAL.0>
30.1357

>  <SCORE.INTRA.POLAR>
-0.250978

>  <SCORE.INTRA.POLAR.0>
-0.631696

>  <SCORE.INTRA.REPUL>
0

>  <SCORE.INTRA.REPUL.0>
0

>  <SCORE.INTRA.SOLV>
2.96705

>  <SCORE.INTRA.SOLV.lig_0>
-55.904

>  <SCORE.INTRA.VDW>
8.85985

>  <SCORE.INTRA.VDW.0>
-8.21197

>  <SCORE.INTRA.norm>
0.0822618

>  <SCORE.RESTR>
18.7202

>  <SCORE.RESTR.CAVITY>
18.7202

>  <SCORE.RESTR.norm>
0.445719

>  <SCORE.SYSTEM>
0

>  <SCORE.SYSTEM.CONST>
0

>  <SCORE.SYSTEM.DIHEDRAL>
0

>  <SCORE.SYSTEM.SOLV>
0

>  <SCORE.SYSTEM.norm>
0

>  <SCORE.heavy>
42

>  <SCORE.norm>
-0.16588

>  <RMSD>
4.352

$$$$
lig.pdb
 OpenBabel11021811453D
libRbt.so/2013.1/901 2013/11/27
 42 45  0  0  0  0  0  0  0  0999 V2000
    2.6543    5.2876   -0.6606 C   0  0  2  0  0  0  0  0  0  0  0  0
    1.8317    4.2177   -1.1296 O   0  0  0  0  0  0  0  0  0  0  0  0
    1.8580    6.5993   -0.5895 C   0  0  2  0  0  0  0  0  0  0  0  0
    0.6416    6.4362    0.2279 N   0  0  0  0  0  0  0  0  0  0  0  0
    1.5133    7.1103   -1.9943 C   0  0  1  0  0  0  0  0  0  0  0  0
    0.9177    8.3898   -1.8957 O   0  0  0  0  0  0  0  0  0  0  0  0
    2.7837    7.2050   -2.8527 C   0  0  2  0  0  0  0  0  0  0  0  0
    2.4268    7.5240   -4.1840 O   0  0  0  0  0  0  0  0  0  0  0  0
    3.5825    5.8861   -2.8281 C   0  0  2  0  0  0  0  0  0  0  0  0
    3.8034    5.4415   -1.4899 O   0  0  0  0  0  0  0  0  0  0  0  0
    4.9344    6.1319   -3.5245 C   0  0  0  0  0  0  0  0  0  0  0  0
    5.6965    4.9062   -3.6895 O   0  0  0  0  0  0  0  0  0  0  0  0
    2.4700    0.0127   -0.4650 C   0  0  2  0  0  0  0  0  0  0  0  0
    2.7733   -1.1471    0.3970 N   0  0  0  0  0  0  0  0  0  0  0  0
    3.6320    1.0089   -0.4448 C   0  0  0  0  0  0  0  0  0  0  0  0
    3.2702    2.2716   -1.2178 C   0  0  2  0  0  0  0  0  0  0  0  0
    4.4236    3.1783   -1.2762 N   0  0  0  0  0  0  0  0  0  0  0  0
    2.0492    2.9301   -0.5344 C   0  0  2  0  0  0  0  0  0  0  0  0
    0.8708    2.0241   -0.6955 C   0  0  2  0  0  0  0  0  0  0  0  0
   -0.2436    2.6635   -0.1006 O   0  0  0  0  0  0  0  0  0  0  0  0
    1.1573    0.6912   -0.0302 C   0  0  1  0  0  0  0  0  0  0  0  0
    0.1064   -0.2367   -0.2245 O   0  0  0  0  0  0  0  0  0  0  0  0
   -0.6278    2.2469    1.2055 C   0  0  1  0  0  0  0  0  0  0  0  0
   -0.1344    3.3028    2.1970 C   0  0  2  0  0  0  0  0  0  0  0  0
    0.2701    2.6671    3.3949 O   0  0  0  0  0  0  0  0  0  0  0  0
   -1.3740    4.1886    2.3807 C   0  0  2  0  0  0  0  0  0  0  0  0
   -1.3393    4.9446    3.5915 O   0  0  0  0  0  0  0  0  0  0  0  0
   -2.4744    3.1222    2.3183 C   0  0  2  0  0  0  0  0  0  0  0  0
   -2.0463    2.2257    1.3026 O   0  0  0  0  0  0  0  0  0  0  0  0
   -3.8610    3.6641    1.9520 C   0  0  0  0  0  0  0  0  0  0  0  0
   -3.7784    4.7030    0.9997 O   0  0  0  0  0  0  0  0  0  0  0  0
   -2.4328    5.8442    3.7621 C   0  0  2  0  0  0  0  0  0  0  0  0
   -2.2338    7.1420    2.9644 C   0  0  2  0  0  0  0  0  0  0  0  0
   -1.9958    6.8532    1.5403 N   0  0  0  0  0  0  0  0  0  0  0  0
   -1.1029    7.9924    3.5623 C   0  0  1  0  0  0  0  0  0  0  0  0
   -1.0234    9.2079    2.8433 O   0  0  0  0  0  0  0  0  0  0  0  0
   -1.4318    8.2700    5.0390 C   0  0  2  0  0  0  0  0  0  0  0  0
   -0.3966    9.0169    5.6514 O   0  0  0  0  0  0  0  0  0  0  0  0
   -1.6749    6.9549    5.8078 C   0  0  1  0  0  0  0  0  0  0  0  0
   -2.6358    6.1307    5.1440 O   0  0  0  0  0  0  0  0  0  0  0  0
   -0.3829    6.1877    6.1255 C   0  0  0  0  0  0  0  0  0  0  0  0
    0.5177    6.1493    4.9620 N   0  0  0  0  0  0  0  0  0  0  0  0
  1  3  1  0  0  0  0
  1  2  1  6  0  0  0
  3  4  1  1  0  0  0
  5  6  1  1  0  0  0
  5  3  1  0  0  0  0
  7  9  1  0  0  0  0
  7  5  1  0  0  0  0
  7  8  1  6  0  0  0
  9 10  1  0  0  0  0
  9 11  1  1  0  0  0
 10  1  1  0  0  0  0
 11 12  1  0  0  0  0
 13 14  1  1  0  0  0
 13 21  1  0  0  0  0
 15 13  1  0  0  0  0
 16 15  1  0  0  0  0
 16 18  1  0  0  0  0
 16 17  1  1  0  0  0
 18  2  1  6  0  0  0
 18 19  1  0  0  0  0
 19 21  1  0  0  0  0
 19 20  1  1  0  0  0
 21 22  1  6  0  0  0
 23 20  1  6  0  0  0
 23 29  1  0  0  0  0
 23 24  1  0  0  0  0
 24 26  1  0  0  0  0
 24 25  1  1  0  0  0
 26 27  1  1  0  0  0
 28 26  1  0  0  0  0
 28 30  1  6  0  0  0
 29 28  1  0  0  0  0
 30 31  1  0  0  0  0
 32 27  1  1  0  0  0
 32 40  1  0  0  0  0
 32 33  1  0  0  0  0
 33 35  1  0  0  0  0
 33 34  1  6  0  0  0
 35 37  1  0  0  0  0
 35 36  1  6  0  0  0
 37 38  1  1  0  0  0
 39 37  1  0  0  0  0
 39 41  1  6  0  0  0
 40 39  1  0  0  0  0
 42 41  1  0  0  0  0
M  END
>  <CHROM.1>
-80.93050136,-142.85904073,-117.71448733,-49.15787183,-177.85793531,-168.24873208
-173.31157505,174.93561937,-87.82606485,-100.29732741,102.87967728,-51.36759978
60.34743716,176.27944035,-80.12604486,36.76674254,-163.06414914,-65.06566332
179.32112939,-20.98398167,-44.24195294,71.21068872,0.56015267,4.76666502
0.88237917,-0.36300583,0.87453737,0.02829065

>  <Name>
lig.pdb

>  <RI>
3.17932e+07

>  <Rbt.Current_Directory>
/home/itssahil/PROJECTS/Mol_Feturizer/New_Systems/rnas/2mxs

>  <Rbt.Executable>
rbdock ($Id: //depot/dev/client3/rdock/2013.1/src/exe/rbdock.cxx#4 $)

>  <Rbt.Library>
libRbt.so (2013.1, Build901 2013/11/27)

>  <Rbt.Parameter_File>
/export/apps/rDock/src/rDock_2013.1_src/data/scripts/dock_solv.prm

>  <Rbt.Receptor>
prm/blind_docking_100.prm

>  <SCORE>
-0.590185

>  <SCORE.INTER>
-36.4475

>  <SCORE.INTER.CONST>
1

>  <SCORE.INTER.POLAR>
-5.41164

>  <SCORE.INTER.ROT>
9

>  <SCORE.INTER.SOLV>
29.8981

>  <SCORE.INTER.VDW>
-25.8256

>  <SCORE.INTER.norm>
-0.867798

>  <SCORE.INTRA>
9.26549

>  <SCORE.INTRA.DIHEDRAL>
6.99537

>  <SCORE.INTRA.DIHEDRAL.0>
30.1357

>  <SCORE.INTRA.POLAR>
-1.6419

>  <SCORE.INTRA.POLAR.0>
-0.631696

>  <SCORE.INTRA.REPUL>
0.00290309

>  <SCORE.INTRA.REPUL.0>
0

>  <SCORE.INTRA.SOLV>
3.53269

>  <SCORE.INTRA.SOLV.lig_0>
-55.904

>  <SCORE.INTRA.VDW>
9.56939

>  <SCORE.INTRA.VDW.0>
-8.21197

>  <SCORE.INTRA.norm>
0.220607

>  <SCORE.RESTR>
26.5918

>  <SCORE.RESTR.CAVITY>
26.5918

>  <SCORE.RESTR.norm>
0.633139

>  <SCORE.SYSTEM>
0

>  <SCORE.SYSTEM.CONST>
0

>  <SCORE.SYSTEM.DIHEDRAL>
0

>  <SCORE.SYSTEM.SOLV>
0

>  <SCORE.SYSTEM.norm>
0

>  <SCORE.heavy>
42

>  <SCORE.norm>
-0.014052

>  <RMSD>
4.357

$$$$
lig.pdb
 OpenBabel11021811453D
libRbt.so/2013.1/901 2013/11/27
 42 45  0  0  0  0  0  0  0  0999 V2000
    0.9975    3.8981    1.2131 C   0  0  2  0  0  0  0  0  0  0  0  0
    1.1541    2.8675    0.2360 O   0  0  0  0  0  0  0  0  0  0  0  0
   -0.4886    4.2093    1.4468 C   0  0  2  0  0  0  0  0  0  0  0  0
   -1.2349    2.9887    1.8040 N   0  0  0  0  0  0  0  0  0  0  0  0
   -1.1065    4.8938    0.2208 C   0  0  1  0  0  0  0  0  0  0  0  0
   -2.4263    5.3017    0.5260 O   0  0  0  0  0  0  0  0  0  0  0  0
   -0.2741    6.1214   -0.1792 C   0  0  2  0  0  0  0  0  0  0  0  0
   -0.7655    6.6435   -1.3988 O   0  0  0  0  0  0  0  0  0  0  0  0
    1.2198    5.7680   -0.3269 C   0  0  2  0  0  0  0  0  0  0  0  0
    1.7021    5.0743    0.8235 O   0  0  0  0  0  0  0  0  0  0  0  0
    2.0063    7.0798   -0.5112 C   0  0  0  0  0  0  0  0  0  0  0  0
    1.6587    7.7576   -1.7481 O   0  0  0  0  0  0  0  0  0  0  0  0
    4.4424    0.2589   -0.7197 C   0  0  2  0  0  0  0  0  0  0  0  0
    5.8301   -0.2167   -0.5516 N   0  0  0  0  0  0  0  0  0  0  0  0
    4.4322    1.7244   -1.1618 C   0  0  0  0  0  0  0  0  0  0  0  0
    3.0071    2.2633   -1.2012 C   0  0  2  0  0  0  0  0  0  0  0  0
    2.9988    3.6370   -1.7198 N   0  0  0  0  0  0  0  0  0  0  0  0
    2.4126    2.1780    0.2238 C   0  0  2  0  0  0  0  0  0  0  0  0
    2.2732    0.7359    0.5931 C   0  0  2  0  0  0  0  0  0  0  0  0
    1.6896    0.6799    1.8818 O   0  0  0  0  0  0  0  0  0  0  0  0
    3.6370    0.0717    0.5799 C   0  0  1  0  0  0  0  0  0  0  0  0
    3.5546   -1.3168    0.8409 O   0  0  0  0  0  0  0  0  0  0  0  0
    2.1564   -0.3228    2.7781 C   0  0  1  0  0  0  0  0  0  0  0  0
    2.2452    0.3011    4.1725 C   0  0  2  0  0  0  0  0  0  0  0  0
    3.3611   -0.2376    4.8561 O   0  0  0  0  0  0  0  0  0  0  0  0
    0.9062   -0.1054    4.8025 C   0  0  2  0  0  0  0  0  0  0  0  0
    0.9320   -0.0675    6.2296 O   0  0  0  0  0  0  0  0  0  0  0  0
    0.7423   -1.5054    4.1980 C   0  0  2  0  0  0  0  0  0  0  0  0
    1.2013   -1.3732    2.8601 O   0  0  0  0  0  0  0  0  0  0  0  0
   -0.7010   -2.0222    4.1805 C   0  0  0  0  0  0  0  0  0  0  0  0
   -1.0350   -2.6732    5.3878 O   0  0  0  0  0  0  0  0  0  0  0  0
   -0.3514    0.0220    6.8451 C   0  0  2  0  0  0  0  0  0  0  0  0
   -0.8812    1.4641    6.8530 C   0  0  2  0  0  0  0  0  0  0  0  0
   -0.9004    2.0251    5.4918 N   0  0  0  0  0  0  0  0  0  0  0  0
   -0.0709    2.3471    7.8138 C   0  0  1  0  0  0  0  0  0  0  0  0
   -0.6550    3.6350    7.8447 O   0  0  0  0  0  0  0  0  0  0  0  0
   -0.1151    1.7108    9.2134 C   0  0  2  0  0  0  0  0  0  0  0  0
    0.6548    2.4649   10.1316 O   0  0  0  0  0  0  0  0  0  0  0  0
    0.3755    0.2489    9.1717 C   0  0  1  0  0  0  0  0  0  0  0  0
   -0.3105   -0.5048    8.1694 O   0  0  0  0  0  0  0  0  0  0  0  0
    1.9005    0.1220    9.0416 C   0  0  0  0  0  0  0  0  0  0  0  0
    2.4796   -0.5888   10.1930 N   0  0  0  0  0  0  0  0  0  0  0  0
  1  3  1  0  0  0  0
  1  2  1  6  0  0  0
  3  4  1  6  0  0  0
  5  6  1  1  0  0  0
  5  3  1  0  0  0  0
  7  9  1  0  0  0  0
  7  5  1  0  0  0  0
  7  8  1  6  0  0  0
  9 10  1  0  0  0  0
  9 11  1  1  0  0  0
 10  1  1  0  0  0  0
 11 12  1  0  0  0  0
 13 14  1  1  0  0  0
 13 21  1  0  0  0  0
 15 13  1  0  0  0  0
 16 15  1  0  0  0  0
 16 18  1  0  0  0  0
 16 17  1  1  0  0  0
 18  2  1  6  0  0  0
 18 19  1  0  0  0  0
 19 21  1  0  0  0  0
 19 20  1  1  0  0  0
 21 22  1  6  0  0  0
 23 20  1  6  0  0  0
 23 29  1  0  0  0  0
 23 24  1  0  0  0  0
 24 26  1  0  0  0  0
 24 25  1  1  0  0  0
 26 27  1  1  0  0  0
 28 26  1  0  0  0  0
 28 30  1  6  0  0  0
 29 28  1  0  0  0  0
 30 31  1  0  0  0  0
 32 27  1  1  0  0  0
 32 40  1  0  0  0  0
 32 33  1  0  0  0  0
 33 35  1  0  0  0  0
 33 34  1  6  0  0  0
 35 37  1  0  0  0  0
 35 36  1  1  0  0  0
 37 38  1  1  0  0  0
 39 37  1  0  0  0  0
 39 41  1  6  0  0  0
 40 39  1  0  0  0  0
 42 41  1  0  0  0  0
M  END
>  <CHROM.1>
-125.31077627,-160.49437419,69.36185625,-139.77119098,-58.57104324,48.58829839
-64.83096351,-62.99999345,177.14400898,-141.89221416,140.16991141,-40.95457639
-159.02932859,159.36390888,-81.07348797,-87.09571963,70.29868073,173.57989587
-160.37959961,-174.73990375,119.21003042,-79.18363329,1.15021347,1.85857878
3.13431268,1.37278529,0.95274062,-0.95952231

>  <Name>
lig.pdb

>  <RI>
0

>  <Rbt.Current_Directory>
/home/itssahil/PROJECTS/Mol_Feturizer/New_Systems/rnas/2mxs

>  <Rbt.Executable>
rbdock ($Id: //depot/dev/client3/rdock/2013.1/src/exe/rbdock.cxx#4 $)

>  <Rbt.Library>
libRbt.so (2013.1, Build901 2013/11/27)

>  <Rbt.Parameter_File>
/export/apps/rDock/src/rDock_2013.1_src/data/scripts/dock_solv.prm

>  <Rbt.Receptor>
prm/blind_docking_80.prm

>  <SCORE>
-2.08086

>  <SCORE.INTER>
-25.9264

>  <SCORE.INTER.CONST>
1

>  <SCORE.INTER.POLAR>
-5.44473

>  <SCORE.INTER.ROT>
9

>  <SCORE.INTER.SOLV>
33.9768

>  <SCORE.INTER.VDW>
-20.0607

>  <SCORE.INTER.norm>
-0.617294

>  <SCORE.INTRA>
13.3341

>  <SCORE.INTRA.DIHEDRAL>
14.1179

>  <SCORE.INTRA.DIHEDRAL.0>
30.1357

>  <SCORE.INTRA.POLAR>
0.186475

>  <SCORE.INTRA.POLAR.0>
-0.631696

>  <SCORE.INTRA.REPUL>
0

>  <SCORE.INTRA.REPUL.0>
0

>  <SCORE.INTRA.SOLV>
-0.269274

>  <SCORE.INTRA.SOLV.lig_0>
-55.904

>  <SCORE.INTRA.VDW>
5.77572

>  <SCORE.INTRA.VDW.0>
-8.21197

>  <SCORE.INTRA.norm>
0.317478

>  <SCORE.RESTR>
10.5114

>  <SCORE.RESTR.CAVITY>
10.5114

>  <SCORE.RESTR.norm>
0.250272

>  <SCORE.SYSTEM>
0

>  <SCORE.SYSTEM.CONST>
0

>  <SCORE.SYSTEM.DIHEDRAL>
0

>  <SCORE.SYSTEM.SOLV>
0

>  <SCORE.SYSTEM.norm>
0

>  <SCORE.heavy>
42

>  <SCORE.norm>
-0.0495443

>  <RMSD>
4.380

$$$$
lig.pdb
 OpenBabel11021811453D
libRbt.so/2013.1/901 2013/11/27
 42 45  0  0  0  0  0  0  0  0999 V2000
    2.7816    5.6649   -1.0452 C   0  0  2  0  0  0  0  0  0  0  0  0
    2.2114    4.5357   -1.7095 O   0  0  0  0  0  0  0  0  0  0  0  0
    1.6839    6.5881   -0.4953 C   0  0  2  0  0  0  0  0  0  0  0  0
    0.7539    5.8445    0.3746 N   0  0  0  0  0  0  0  0  0  0  0  0
    0.9320    7.2878   -1.6348 C   0  0  1  0  0  0  0  0  0  0  0  0
    0.0373    8.2399   -1.0921 O   0  0  0  0  0  0  0  0  0  0  0  0
    1.9233    7.9964   -2.5702 C   0  0  2  0  0  0  0  0  0  0  0  0
    1.2285    8.4987   -3.6955 O   0  0  0  0  0  0  0  0  0  0  0  0
    3.0450    7.0439   -3.0317 C   0  0  2  0  0  0  0  0  0  0  0  0
    3.6486    6.3811   -1.9211 O   0  0  0  0  0  0  0  0  0  0  0  0
    4.1039    7.8773   -3.7784 C   0  0  0  0  0  0  0  0  0  0  0  0
    4.7654    8.8315   -2.9055 O   0  0  0  0  0  0  0  0  0  0  0  0
    2.4724    0.3645   -0.6782 C   0  0  2  0  0  0  0  0  0  0  0  0
    2.5622   -0.7421    0.2953 N   0  0  0  0  0  0  0  0  0  0  0  0
    3.6765    1.2987   -0.5342 C   0  0  0  0  0  0  0  0  0  0  0  0
    3.5213    2.5174   -1.4361 C   0  0  2  0  0  0  0  0  0  0  0  0
    4.7238    3.3570   -1.3652 N   0  0  0  0  0  0  0  0  0  0  0  0
    2.2510    3.2865   -1.0045 C   0  0  2  0  0  0  0  0  0  0  0  0
    1.0587    2.4325   -1.2956 C   0  0  2  0  0  0  0  0  0  0  0  0
   -0.0937    3.1705   -0.9326 O   0  0  0  0  0  0  0  0  0  0  0  0
    1.1524    1.1397   -0.5074 C   0  0  1  0  0  0  0  0  0  0  0  0
    0.0897    0.2550   -0.8091 O   0  0  0  0  0  0  0  0  0  0  0  0
   -0.8337    2.7293    0.2008 C   0  0  1  0  0  0  0  0  0  0  0  0
   -0.2296    3.3921    1.4406 C   0  0  2  0  0  0  0  0  0  0  0  0
   -0.2866    2.4891    2.5288 O   0  0  0  0  0  0  0  0  0  0  0  0
   -1.1331    4.6174    1.6339 C   0  0  2  0  0  0  0  0  0  0  0  0
   -1.0924    5.1303    2.9659 O   0  0  0  0  0  0  0  0  0  0  0  0
   -2.4824    4.0215    1.2139 C   0  0  2  0  0  0  0  0  0  0  0  0
   -2.1759    3.1892    0.1041 O   0  0  0  0  0  0  0  0  0  0  0  0
   -3.5265    5.0589    0.7849 C   0  0  0  0  0  0  0  0  0  0  0  0
   -4.4334    5.3461    1.8280 O   0  0  0  0  0  0  0  0  0  0  0  0
   -2.2173    5.9277    3.3304 C   0  0  2  0  0  0  0  0  0  0  0  0
   -1.8467    7.4132    3.4568 C   0  0  2  0  0  0  0  0  0  0  0  0
   -1.2198    7.9064    2.2192 N   0  0  0  0  0  0  0  0  0  0  0  0
   -0.9484    7.6585    4.6785 C   0  0  1  0  0  0  0  0  0  0  0  0
   -0.7118    9.0483    4.7933 O   0  0  0  0  0  0  0  0  0  0  0  0
   -1.6768    7.1392    5.9298 C   0  0  2  0  0  0  0  0  0  0  0  0
   -0.8714    7.3024    7.0826 O   0  0  0  0  0  0  0  0  0  0  0  0
   -2.0813    5.6603    5.7600 C   0  0  1  0  0  0  0  0  0  0  0  0
   -2.7990    5.4507    4.5416 O   0  0  0  0  0  0  0  0  0  0  0  0
   -0.9031    4.6861    5.9067 C   0  0  0  0  0  0  0  0  0  0  0  0
    0.2867    5.1718    5.1891 N   0  0  0  0  0  0  0  0  0  0  0  0
  1  3  1  0  0  0  0
  1  2  1  6  0  0  0
  3  4  1  6  0  0  0
  5  6  1  1  0  0  0
  5  3  1  0  0  0  0
  7  9  1  0  0  0  0
  7  5  1  0  0  0  0
  7  8  1  6  0  0  0
  9 10  1  0  0  0  0
  9 11  1  1  0  0  0
 10  1  1  0  0  0  0
 11 12  1  0  0  0  0
 13 14  1  1  0  0  0
 13 21  1  0  0  0  0
 15 13  1  0  0  0  0
 16 15  1  0  0  0  0
 16 18  1  0  0  0  0
 16 17  1  1  0  0  0
 18  2  1  6  0  0  0
 18 19  1  0  0  0  0
 19 21  1  0  0  0  0
 19 20  1  1  0  0  0
 21 22  1  6  0  0  0
 23 20  1  6  0  0  0
 23 29  1  0  0  0  0
 23 24  1  0  0  0  0
 24 26  1  0  0  0  0
 24 25  1  1  0  0  0
 26 27  1  1  0  0  0
 28 26  1  0  0  0  0
 28 30  1  6  0  0  0
 29 28  1  0  0  0  0
 30 31  1  0  0  0  0
 32 27  1  1  0  0  0
 32 40  1  0  0  0  0
 32 33  1  0  0  0  0
 33 35  1  0  0  0  0
 33 34  1  6  0  0  0
 35 37  1  0  0  0  0
 35 36  1  1  0  0  0
 37 38  1  1  0  0  0
 39 37  1  0  0  0  0
 39 41  1  6  0  0  0
 40 39  1  0  0  0  0
 42 41  1  0  0  0  0
M  END
>  <CHROM.1>
-93.52547824,-104.37033901,63.25230090,28.19220224,49.50025834,60.76446231
65.03796678,157.35173281,156.92316687,-110.54819411,87.95313434,70.92267493
-167.40574090,-158.84080064,-109.10210350,-98.94934736,-68.47298963,151.51402763
67.47429537,65.81690870,-43.60672298,66.93954387,0.41339167,5.05669695,0.82732981
-0.19241088,0.94798314,-0.00167857

>  <Name>
lig.pdb

>  <RI>
3.31443e+07

>  <Rbt.Current_Directory>
/home/itssahil/PROJECTS/Mol_Feturizer/New_Systems/rnas/2mxs

>  <Rbt.Executable>
rbdock ($Id: //depot/dev/client3/rdock/2013.1/src/exe/rbdock.cxx#4 $)

>  <Rbt.Library>
libRbt.so (2013.1, Build901 2013/11/27)

>  <Rbt.Parameter_File>
/export/apps/rDock/src/rDock_2013.1_src/data/scripts/dock_solv.prm

>  <Rbt.Receptor>
prm/blind_docking_40.prm

>  <SCORE>
26.9948

>  <SCORE.INTER>
-21.2798

>  <SCORE.INTER.CONST>
1

>  <SCORE.INTER.POLAR>
-4.1142

>  <SCORE.INTER.ROT>
9

>  <SCORE.INTER.SOLV>
27.2118

>  <SCORE.INTER.VDW>
-19.1432

>  <SCORE.INTER.norm>
-0.506662

>  <SCORE.INTRA>
13.9346

>  <SCORE.INTRA.DIHEDRAL>
14.7587

>  <SCORE.INTRA.DIHEDRAL.0>
30.1357

>  <SCORE.INTRA.POLAR>
-1.29102

>  <SCORE.INTRA.POLAR.0>
-0.631696

>  <SCORE.INTRA.REPUL>
0

>  <SCORE.INTRA.REPUL.0>
0

>  <SCORE.INTRA.SOLV>
3.45125

>  <SCORE.INTRA.SOLV.lig_0>
-55.904

>  <SCORE.INTRA.VDW>
9.2191

>  <SCORE.INTRA.VDW.0>
-8.21197

>  <SCORE.INTRA.norm>
0.331777

>  <SCORE.RESTR>
34.34

>  <SCORE.RESTR.CAVITY>
34.34

>  <SCORE.RESTR.norm>
0.817619

>  <SCORE.SYSTEM>
0

>  <SCORE.SYSTEM.CONST>
0

>  <SCORE.SYSTEM.DIHEDRAL>
0

>  <SCORE.SYSTEM.SOLV>
0

>  <SCORE.SYSTEM.norm>
0

>  <SCORE.heavy>
42

>  <SCORE.norm>
0.642733

>  <RMSD>
4.413

$$$$
lig.pdb
 OpenBabel11021811453D
libRbt.so/2013.1/901 2013/11/27
 42 45  0  0  0  0  0  0  0  0999 V2000
    2.7430    5.9536   -1.0523 C   0  0  2  0  0  0  0  0  0  0  0  0
    2.6308    4.7220   -1.7681 O   0  0  0  0  0  0  0  0  0  0  0  0
    1.7723    7.0033   -1.6141 C   0  0  2  0  0  0  0  0  0  0  0  0
    0.3890    6.4925   -1.6250 N   0  0  0  0  0  0  0  0  0  0  0  0
    2.2031    7.4568   -3.0149 C   0  0  1  0  0  0  0  0  0  0  0  0
    1.3800    8.5277   -3.4357 O   0  0  0  0  0  0  0  0  0  0  0  0
    3.6685    7.9174   -2.9978 C   0  0  2  0  0  0  0  0  0  0  0  0
    4.0924    8.1800   -4.3217 O   0  0  0  0  0  0  0  0  0  0  0  0
    4.5870    6.8578   -2.3560 C   0  0  2  0  0  0  0  0  0  0  0  0
    4.0831    6.4379   -1.0884 O   0  0  0  0  0  0  0  0  0  0  0  0
    5.9854    7.4796   -2.1800 C   0  0  0  0  0  0  0  0  0  0  0  0
    6.7348    7.5035   -3.4242 O   0  0  0  0  0  0  0  0  0  0  0  0
    3.5561    0.6665   -0.6604 C   0  0  2  0  0  0  0  0  0  0  0  0
    4.2774   -0.3412    0.1425 N   0  0  0  0  0  0  0  0  0  0  0  0
    4.5463    1.5222   -1.4543 C   0  0  0  0  0  0  0  0  0  0  0  0
    3.8215    2.6530   -2.1747 C   0  0  2  0  0  0  0  0  0  0  0  0
    4.7636    3.4077   -3.0105 N   0  0  0  0  0  0  0  0  0  0  0  0
    3.1394    3.5496   -1.1153 C   0  0  2  0  0  0  0  0  0  0  0  0
    2.0603    2.7579   -0.4488 C   0  0  2  0  0  0  0  0  0  0  0  0
    1.4224    3.6085    0.4860 O   0  0  0  0  0  0  0  0  0  0  0  0
    2.6650    1.5467    0.2359 C   0  0  1  0  0  0  0  0  0  0  0  0
    1.6769    0.7143    0.8135 O   0  0  0  0  0  0  0  0  0  0  0  0
    0.3111    3.0865    1.2068 C   0  0  1  0  0  0  0  0  0  0  0  0
    0.2352    3.8225    2.5462 C   0  0  2  0  0  0  0  0  0  0  0  0
   -0.1979    2.9240    3.5501 O   0  0  0  0  0  0  0  0  0  0  0  0
   -0.7856    4.9312    2.2569 C   0  0  2  0  0  0  0  0  0  0  0  0
   -1.3887    5.4510    3.4421 O   0  0  0  0  0  0  0  0  0  0  0  0
   -1.7417    4.1757    1.3255 C   0  0  2  0  0  0  0  0  0  0  0  0
   -0.8925    3.3815    0.5092 O   0  0  0  0  0  0  0  0  0  0  0  0
   -2.5946    5.0784    0.4265 C   0  0  0  0  0  0  0  0  0  0  0  0
   -1.8383    5.6170   -0.6370 O   0  0  0  0  0  0  0  0  0  0  0  0
   -0.5250    5.5005    4.5760 C   0  0  2  0  0  0  0  0  0  0  0  0
   -1.3096    5.6902    5.8831 C   0  0  2  0  0  0  0  0  0  0  0  0
   -2.3356    4.6455    6.0374 N   0  0  0  0  0  0  0  0  0  0  0  0
   -1.9226    7.0965    5.9627 C   0  0  1  0  0  0  0  0  0  0  0  0
   -2.5563    7.2423    7.2188 O   0  0  0  0  0  0  0  0  0  0  0  0
   -0.7918    8.1288    5.8159 C   0  0  2  0  0  0  0  0  0  0  0  0
   -1.3097    9.4463    5.8393 O   0  0  0  0  0  0  0  0  0  0  0  0
    0.0115    7.8885    4.5211 C   0  0  1  0  0  0  0  0  0  0  0  0
    0.4481    6.5310    4.4206 O   0  0  0  0  0  0  0  0  0  0  0  0
   -0.7236    8.3499    3.2541 C   0  0  0  0  0  0  0  0  0  0  0  0
   -2.1048    7.8424    3.2207 N   0  0  0  0  0  0  0  0  0  0  0  0
  1  3  1  0  0  0  0
  1  2  1  6  0  0  0
  3  4  1  6  0  0  0
  5  6  1  1  0  0  0
  5  3  1  0  0  0  0
  7  9  1  0  0  0  0
  7  5  1  0  0  0  0
  7  8  1  6  0  0  0
  9 10  1  0  0  0  0
  9 11  1  1  0  0  0
 10  1  1  0  0  0  0
 11 12  1  0  0  0  0
 13 14  1  1  0  0  0
 13 21  1  0  0  0  0
 15 13  1  0  0  0  0
 16 15  1  0  0  0  0
 16 18  1  0  0  0  0
 16 17  1  1  0  0  0
 18  2  1  6  0  0  0
 18 19  1  0  0  0  0
 19 21  1  0  0  0  0
 19 20  1  1  0  0  0
 21 22  1  6  0  0  0
 23 20  1  6  0  0  0
 23 29  1  0  0  0  0
 23 24  1  0  0  0  0
 24 26  1  0  0  0  0
 24 25  1  1  0  0  0
 26 27  1  1  0  0  0
 28 26  1  0  0  0  0
 28 30  1  6  0  0  0
 29 28  1  0  0  0  0
 30 31  1  0  0  0  0
 32 27  1  6  0  0  0
 32 40  1  0  0  0  0
 32 33  1  0  0  0  0
 33 35  1  0  0  0  0
 33 34  1  6  0  0  0
 35 37  1  0  0  0  0
 35 36  1  1  0  0  0
 37 38  1  6  0  0  0
 39 37  1  0  0  0  0
 39 41  1  6  0  0  0
 40 39  1  0  0  0  0
 42 41  1  0  0  0  0
M  END
>  <CHROM.1>
-141.75911594,-160.82952302,176.53487513,-48.51380367,51.94953252,-64.65033412
-78.35098898,131.92344310,105.71509441,177.24306446,152.43966297,60.43223237
-49.91381450,34.67350039,-164.21090967,75.18631652,-106.64906568,-177.82482897
59.73560879,148.55476721,-49.05912218,-175.70131541,1.17557074,5.28789120
0.83769678,-0.00256264,0.92797055,-0.19478656

>  <Name>
lig.pdb

>  <RI>
3.17932e+07

>  <Rbt.Current_Directory>
/home/itssahil/PROJECTS/Mol_Feturizer/New_Systems/rnas/2mxs

>  <Rbt.Executable>
rbdock ($Id: //depot/dev/client3/rdock/2013.1/src/exe/rbdock.cxx#4 $)

>  <Rbt.Library>
libRbt.so (2013.1, Build901 2013/11/27)

>  <Rbt.Parameter_File>
/export/apps/rDock/src/rDock_2013.1_src/data/scripts/dock_solv.prm

>  <Rbt.Receptor>
prm/blind_docking_100.prm

>  <SCORE>
24.7008

>  <SCORE.INTER>
-17.4098

>  <SCORE.INTER.CONST>
1

>  <SCORE.INTER.POLAR>
-4.38359

>  <SCORE.INTER.ROT>
9

>  <SCORE.INTER.SOLV>
28.9693

>  <SCORE.INTER.VDW>
-16.251

>  <SCORE.INTER.norm>
-0.41452

>  <SCORE.INTRA>
10.4627

>  <SCORE.INTRA.DIHEDRAL>
4.8328

>  <SCORE.INTRA.DIHEDRAL.0>
30.1357

>  <SCORE.INTRA.POLAR>
-0.325087

>  <SCORE.INTRA.POLAR.0>
-0.631696

>  <SCORE.INTRA.REPUL>
0

>  <SCORE.INTRA.REPUL.0>
0

>  <SCORE.INTRA.SOLV>
2.29785

>  <SCORE.INTRA.SOLV.lig_0>
-55.904

>  <SCORE.INTRA.VDW>
8.00265

>  <SCORE.INTRA.VDW.0>
-8.21197

>  <SCORE.INTRA.norm>
0.249112

>  <SCORE.RESTR>
31.648

>  <SCORE.RESTR.CAVITY>
31.648

>  <SCORE.RESTR.norm>
0.753523

>  <SCORE.SYSTEM>
0

>  <SCORE.SYSTEM.CONST>
0

>  <SCORE.SYSTEM.DIHEDRAL>
0

>  <SCORE.SYSTEM.SOLV>
0

>  <SCORE.SYSTEM.norm>
0

>  <SCORE.heavy>
42

>  <SCORE.norm>
0.588115

>  <RMSD>
4.418

$$$$
lig.pdb
 OpenBabel11021811453D
libRbt.so/2013.1/901 2013/11/27
 42 45  0  0  0  0  0  0  0  0999 V2000
    2.4423    3.2635   -1.4504 C   0  0  2  0  0  0  0  0  0  0  0  0
    2.7890    2.7183   -0.1761 O   0  0  0  0  0  0  0  0  0  0  0  0
    3.3062    4.4920   -1.7732 C   0  0  2  0  0  0  0  0  0  0  0  0
    4.7419    4.1683   -1.6808 N   0  0  0  0  0  0  0  0  0  0  0  0
    2.9476    5.6717   -0.8604 C   0  0  1  0  0  0  0  0  0  0  0  0
    3.6501    6.8242   -1.2845 O   0  0  0  0  0  0  0  0  0  0  0  0
    1.4374    5.9472   -0.9154 C   0  0  2  0  0  0  0  0  0  0  0  0
    1.1049    6.9289    0.0475 O   0  0  0  0  0  0  0  0  0  0  0  0
    0.6190    4.6656   -0.6585 C   0  0  2  0  0  0  0  0  0  0  0  0
    1.0572    3.5968   -1.4968 O   0  0  0  0  0  0  0  0  0  0  0  0
   -0.8622    4.9777   -0.9449 C   0  0  0  0  0  0  0  0  0  0  0  0
   -1.0696    6.3709   -1.3002 O   0  0  0  0  0  0  0  0  0  0  0  0
    0.7990   -1.0982   -0.2511 C   0  0  2  0  0  0  0  0  0  0  0  0
    0.2898   -2.3241    0.3955 N   0  0  0  0  0  0  0  0  0  0  0  0
    2.3155   -0.9927   -0.0718 C   0  0  0  0  0  0  0  0  0  0  0  0
    2.8289    0.3366   -0.6123 C   0  0  2  0  0  0  0  0  0  0  0  0
    4.2938    0.3873   -0.5258 N   0  0  0  0  0  0  0  0  0  0  0  0
    2.1611    1.4799    0.1866 C   0  0  2  0  0  0  0  0  0  0  0  0
    0.6968    1.4762   -0.1158 C   0  0  2  0  0  0  0  0  0  0  0  0
    0.1123    2.5544    0.5915 O   0  0  0  0  0  0  0  0  0  0  0  0
    0.0918    0.1510    0.3074 C   0  0  1  0  0  0  0  0  0  0  0  0
   -1.2790    0.0598   -0.0328 O   0  0  0  0  0  0  0  0  0  0  0  0
   -0.5848    2.2565    1.7966 C   0  0  1  0  0  0  0  0  0  0  0  0
   -0.0915    3.2251    2.8737 C   0  0  2  0  0  0  0  0  0  0  0  0
   -0.0516    2.5575    4.1208 O   0  0  0  0  0  0  0  0  0  0  0  0
   -1.1473    4.3379    2.8261 C   0  0  2  0  0  0  0  0  0  0  0  0
   -1.1952    5.1068    4.0283 O   0  0  0  0  0  0  0  0  0  0  0  0
   -2.4021    3.5019    2.5455 C   0  0  2  0  0  0  0  0  0  0  0  0
   -1.9728    2.5116    1.6218 O   0  0  0  0  0  0  0  0  0  0  0  0
   -3.5625    4.2902    1.9269 C   0  0  0  0  0  0  0  0  0  0  0  0
   -3.1555    4.9961    0.7741 O   0  0  0  0  0  0  0  0  0  0  0  0
   -2.2242    6.0939    4.0619 C   0  0  2  0  0  0  0  0  0  0  0  0
   -1.8722    7.3147    3.1984 C   0  0  2  0  0  0  0  0  0  0  0  0
   -1.5635    6.9105    1.8166 N   0  0  0  0  0  0  0  0  0  0  0  0
   -0.7206    8.1196    3.8194 C   0  0  1  0  0  0  0  0  0  0  0  0
   -0.4992    9.2729    3.0309 O   0  0  0  0  0  0  0  0  0  0  0  0
   -1.1242    8.5229    5.2478 C   0  0  2  0  0  0  0  0  0  0  0  0
   -0.0768    9.2328    5.8830 O   0  0  0  0  0  0  0  0  0  0  0  0
   -1.5194    7.2861    6.0806 C   0  0  1  0  0  0  0  0  0  0  0  0
   -2.4955    6.4901    5.4045 O   0  0  0  0  0  0  0  0  0  0  0  0
   -0.3150    6.4503    6.5386 C   0  0  0  0  0  0  0  0  0  0  0  0
   -0.7179    5.0807    6.8967 N   0  0  0  0  0  0  0  0  0  0  0  0
  1  3  1  0  0  0  0
  1  2  1  1  0  0  0
  3  4  1  1  0  0  0
  5  6  1  6  0  0  0
  5  3  1  0  0  0  0
  7  9  1  0  0  0  0
  7  5  1  0  0  0  0
  7  8  1  1  0  0  0
  9 10  1  0  0  0  0
  9 11  1  6  0  0  0
 10  1  1  0  0  0  0
 11 12  1  0  0  0  0
 13 14  1  1  0  0  0
 13 21  1  0  0  0  0
 15 13  1  0  0  0  0
 16 15  1  0  0  0  0
 16 18  1  0  0  0  0
 16 17  1  1  0  0  0
 18  2  1  6  0  0  0
 18 19  1  0  0  0  0
 19 21  1  0  0  0  0
 19 20  1  1  0  0  0
 21 22  1  6  0  0  0
 23 20  1  6  0  0  0
 23 29  1  0  0  0  0
 23 24  1  0  0  0  0
 24 26  1  0  0  0  0
 24 25  1  1  0  0  0
 26 27  1  1  0  0  0
 28 26  1  0  0  0  0
 28 30  1  6  0  0  0
 29 28  1  0  0  0  0
 30 31  1  0  0  0  0
 32 27  1  1  0  0  0
 32 40  1  0  0  0  0
 32 33  1  0  0  0  0
 33 35  1  0  0  0  0
 33 34  1  6  0  0  0
 35 37  1  0  0  0  0
 35 36  1  6  0  0  0
 37 38  1  1  0  0  0
 39 37  1  0  0  0  0
 39 41  1  6  0  0  0
 40 39  1  0  0  0  0
 42 41  1  0  0  0  0
M  END
>  <CHROM.1>
75.18418744,-173.36131135,31.38225354,61.24667071,-47.74036854,-49.89029213
-2.84540350,159.34283578,-161.14224932,-101.51774652,131.50070278,176.21789629
63.67305613,-175.96003545,-75.74494487,52.87248762,79.86505640,154.62872708
48.28703235,-47.88517242,-159.95034638,-52.43705153,0.17889647,4.19495687
1.47403564,-0.92552026,0.88857941,0.17956554

>  <Name>
lig.pdb

>  <RI>
3.17932e+07

>  <Rbt.Current_Directory>
/home/itssahil/PROJECTS/Mol_Feturizer/New_Systems/rnas/2mxs

>  <Rbt.Executable>
rbdock ($Id: //depot/dev/client3/rdock/2013.1/src/exe/rbdock.cxx#4 $)

>  <Rbt.Library>
libRbt.so (2013.1, Build901 2013/11/27)

>  <Rbt.Parameter_File>
/export/apps/rDock/src/rDock_2013.1_src/data/scripts/dock_solv.prm

>  <Rbt.Receptor>
prm/blind_docking_100.prm

>  <SCORE>
24.3313

>  <SCORE.INTER>
-8.13084

>  <SCORE.INTER.CONST>
1

>  <SCORE.INTER.POLAR>
-3.03429

>  <SCORE.INTER.ROT>
9

>  <SCORE.INTER.SOLV>
30.0918

>  <SCORE.INTER.VDW>
-14.9368

>  <SCORE.INTER.norm>
-0.193591

>  <SCORE.INTRA>
7.18804

>  <SCORE.INTRA.DIHEDRAL>
1.38936

>  <SCORE.INTRA.DIHEDRAL.0>
30.1357

>  <SCORE.INTRA.POLAR>
-2.64004

>  <SCORE.INTRA.POLAR.0>
-0.631696

>  <SCORE.INTRA.REPUL>
0.0942542

>  <SCORE.INTRA.REPUL.0>
0

>  <SCORE.INTRA.SOLV>
4.42563

>  <SCORE.INTRA.SOLV.lig_0>
-55.904

>  <SCORE.INTRA.VDW>
12.7854

>  <SCORE.INTRA.VDW.0>
-8.21197

>  <SCORE.INTRA.norm>
0.171144

>  <SCORE.RESTR>
25.2741

>  <SCORE.RESTR.CAVITY>
25.2741

>  <SCORE.RESTR.norm>
0.601765

>  <SCORE.SYSTEM>
0

>  <SCORE.SYSTEM.CONST>
0

>  <SCORE.SYSTEM.DIHEDRAL>
0

>  <SCORE.SYSTEM.SOLV>
0

>  <SCORE.SYSTEM.norm>
0

>  <SCORE.heavy>
42

>  <SCORE.norm>
0.579317

>  <RMSD>
4.421

$$$$
lig.pdb
 OpenBabel11021811453D
libRbt.so/2013.1/901 2013/11/27
 42 45  0  0  0  0  0  0  0  0999 V2000
   -1.2891    1.4096    0.7538 C   0  0  2  0  0  0  0  0  0  0  0  0
   -2.6305    1.2159    0.3015 O   0  0  0  0  0  0  0  0  0  0  0  0
   -0.5464    2.4074   -0.1477 C   0  0  2  0  0  0  0  0  0  0  0  0
   -1.2857    3.6791   -0.2507 N   0  0  0  0  0  0  0  0  0  0  0  0
   -0.2869    1.8070   -1.5354 C   0  0  1  0  0  0  0  0  0  0  0  0
    0.5279    2.6889   -2.2837 O   0  0  0  0  0  0  0  0  0  0  0  0
    0.4195    0.4492   -1.4042 C   0  0  2  0  0  0  0  0  0  0  0  0
    0.5071   -0.1583   -2.6788 O   0  0  0  0  0  0  0  0  0  0  0  0
   -0.3273   -0.4850   -0.4307 C   0  0  2  0  0  0  0  0  0  0  0  0
   -0.5915    0.1679    0.8107 O   0  0  0  0  0  0  0  0  0  0  0  0
    0.5521   -1.7265   -0.1888 C   0  0  0  0  0  0  0  0  0  0  0  0
    1.9309   -1.3730    0.1012 O   0  0  0  0  0  0  0  0  0  0  0  0
   -5.5408   -1.6111    1.7400 C   0  0  2  0  0  0  0  0  0  0  0  0
   -5.9843   -2.9779    2.0798 N   0  0  0  0  0  0  0  0  0  0  0  0
   -5.1814   -1.5222    0.2548 C   0  0  0  0  0  0  0  0  0  0  0  0
   -4.5901   -0.1565   -0.0738 C   0  0  2  0  0  0  0  0  0  0  0  0
   -4.3401   -0.0460   -1.5164 N   0  0  0  0  0  0  0  0  0  0  0  0
   -3.2973    0.0287    0.7545 C   0  0  2  0  0  0  0  0  0  0  0  0
   -3.6684    0.1029    2.2010 C   0  0  2  0  0  0  0  0  0  0  0  0
   -2.4773    0.3140    2.9367 O   0  0  0  0  0  0  0  0  0  0  0  0
   -4.3500   -1.1861    2.6197 C   0  0  1  0  0  0  0  0  0  0  0  0
   -4.7989   -1.1385    3.9610 O   0  0  0  0  0  0  0  0  0  0  0  0
   -2.6004    0.7391    4.2898 C   0  0  1  0  0  0  0  0  0  0  0  0
   -1.3963    1.6266    4.6124 C   0  0  2  0  0  0  0  0  0  0  0  0
   -1.0007    1.4095    5.9537 O   0  0  0  0  0  0  0  0  0  0  0  0
   -1.9523    3.0372    4.3752 C   0  0  2  0  0  0  0  0  0  0  0  0
   -1.2042    4.0478    5.0518 O   0  0  0  0  0  0  0  0  0  0  0  0
   -3.3861    2.8469    4.8851 C   0  0  2  0  0  0  0  0  0  0  0  0
   -3.7580    1.5527    4.4321 O   0  0  0  0  0  0  0  0  0  0  0  0
   -4.3911    3.8712    4.3453 C   0  0  0  0  0  0  0  0  0  0  0  0
   -5.6968    3.6179    4.8186 O   0  0  0  0  0  0  0  0  0  0  0  0
   -1.7775    5.3524    4.9914 C   0  0  2  0  0  0  0  0  0  0  0  0
   -0.7234    6.4249    4.6775 C   0  0  2  0  0  0  0  0  0  0  0  0
    0.0032    6.1020    3.4382 N   0  0  0  0  0  0  0  0  0  0  0  0
    0.2388    6.6191    5.8591 C   0  0  1  0  0  0  0  0  0  0  0  0
    1.1289    7.6735    5.5479 O   0  0  0  0  0  0  0  0  0  0  0  0
   -0.5882    6.9737    7.1065 C   0  0  2  0  0  0  0  0  0  0  0  0
    0.2497    7.1217    8.2381 O   0  0  0  0  0  0  0  0  0  0  0  0
   -1.6708    5.9077    7.3733 C   0  0  1  0  0  0  0  0  0  0  0  0
   -2.4580    5.6580    6.2065 O   0  0  0  0  0  0  0  0  0  0  0  0
   -1.1123    4.6106    7.9769 C   0  0  0  0  0  0  0  0  0  0  0  0
   -2.0631    3.4969    7.8278 N   0  0  0  0  0  0  0  0  0  0  0  0
  1  3  1  0  0  0  0
  1  2  1  6  0  0  0
  3  4  1  6  0  0  0
  5  6  1  6  0  0  0
  5  3  1  0  0  0  0
  7  9  1  0  0  0  0
  7  5  1  0  0  0  0
  7  8  1  6  0  0  0
  9 10  1  0  0  0  0
  9 11  1  1  0  0  0
 10  1  1  0  0  0  0
 11 12  1  0  0  0  0
 13 14  1  1  0  0  0
 13 21  1  0  0  0  0
 15 13  1  0  0  0  0
 16 15  1  0  0  0  0
 16 18  1  0  0  0  0
 16 17  1  6  0  0  0
 18  2  1  6  0  0  0
 18 19  1  0  0  0  0
 19 21  1  0  0  0  0
 19 20  1  1  0  0  0
 21 22  1  1  0  0  0
 23 20  1  6  0  0  0
 23 29  1  0  0  0  0
 23 24  1  0  0  0  0
 24 26  1  0  0  0  0
 24 25  1  1  0  0  0
 26 27  1  1  0  0  0
 28 26  1  0  0  0  0
 28 30  1  6  0  0  0
 29 28  1  0  0  0  0
 30 31  1  0  0  0  0
 32 27  1  1  0  0  0
 32 40  1  0  0  0  0
 32 33  1  0  0  0  0
 33 35  1  0  0  0  0
 33 34  1  6  0  0  0
 35 37  1  0  0  0  0
 35 36  1  6  0  0  0
 37 38  1  1  0  0  0
 39 37  1  0  0  0  0
 39 41  1  6  0  0  0
 40 39  1  0  0  0  0
 42 41  1  0  0  0  0
M  END
>  <CHROM.1>
-167.68685032,160.54793986,48.55324302,-175.62656393,-40.38226945,-138.68466794
47.18615243,62.26161689,-64.47411177,165.10066128,-148.14194324,-56.82963617
57.10284743,-172.81508282,-135.50504227,178.20582314,63.41638809,-90.52422745
-165.20375233,-54.12927416,-162.24746880,15.69072865,-1.92142143,2.15992229
2.85629393,-1.72945093,0.65635868,0.91903459

>  <Name>
lig.pdb

>  <RI>
0

>  <Rbt.Current_Directory>
/home/itssahil/PROJECTS/Mol_Feturizer/New_Systems/rnas/2mxs

>  <Rbt.Executable>
rbdock ($Id: //depot/dev/client3/rdock/2013.1/src/exe/rbdock.cxx#4 $)

>  <Rbt.Library>
libRbt.so (2013.1, Build901 2013/11/27)

>  <Rbt.Parameter_File>
/export/apps/rDock/src/rDock_2013.1_src/data/scripts/dock_solv.prm

>  <Rbt.Receptor>
prm/pocket_docking_6.prm

>  <SCORE>
-25.5472

>  <SCORE.INTER>
-27.6109

>  <SCORE.INTER.CONST>
1

>  <SCORE.INTER.POLAR>
-5.34945

>  <SCORE.INTER.ROT>
9

>  <SCORE.INTER.SOLV>
17.1011

>  <SCORE.INTER.VDW>
-15.8761

>  <SCORE.INTER.norm>
-0.657403

>  <SCORE.INTRA>
2.06373

>  <SCORE.INTRA.DIHEDRAL>
-0.0966256

>  <SCORE.INTRA.DIHEDRAL.0>
30.1357

>  <SCORE.INTRA.POLAR>
-0.466232

>  <SCORE.INTRA.POLAR.0>
-0.631696

>  <SCORE.INTRA.REPUL>
0

>  <SCORE.INTRA.REPUL.0>
0

>  <SCORE.INTRA.SOLV>
0.164774

>  <SCORE.INTRA.SOLV.lig_0>
-55.904

>  <SCORE.INTRA.VDW>
3.61484

>  <SCORE.INTRA.VDW.0>
-8.21197

>  <SCORE.INTRA.norm>
0.0491364

>  <SCORE.RESTR>
0

>  <SCORE.RESTR.CAVITY>
0

>  <SCORE.RESTR.norm>
0

>  <SCORE.SYSTEM>
0

>  <SCORE.SYSTEM.CONST>
0

>  <SCORE.SYSTEM.DIHEDRAL>
0

>  <SCORE.SYSTEM.SOLV>
0

>  <SCORE.SYSTEM.norm>
0

>  <SCORE.heavy>
42

>  <SCORE.norm>
-0.608266

>  <RMSD>
4.421

$$$$
lig.pdb
 OpenBabel11021811453D
libRbt.so/2013.1/901 2013/11/27
 42 45  0  0  0  0  0  0  0  0999 V2000
   -3.7212    3.4692    3.4597 C   0  0  2  0  0  0  0  0  0  0  0  0
   -4.6397    2.8416    2.5630 O   0  0  0  0  0  0  0  0  0  0  0  0
   -3.8695    4.9974    3.4138 C   0  0  2  0  0  0  0  0  0  0  0  0
   -5.2633    5.4019    3.6751 N   0  0  0  0  0  0  0  0  0  0  0  0
   -3.3753    5.5579    2.0739 C   0  0  1  0  0  0  0  0  0  0  0  0
   -3.3834    6.9717    2.1246 O   0  0  0  0  0  0  0  0  0  0  0  0
   -1.9485    5.0671    1.7856 C   0  0  2  0  0  0  0  0  0  0  0  0
   -1.5720    5.4621    0.4804 O   0  0  0  0  0  0  0  0  0  0  0  0
   -1.8399    3.5345    1.9190 C   0  0  2  0  0  0  0  0  0  0  0  0
   -2.3816    3.0849    3.1606 O   0  0  0  0  0  0  0  0  0  0  0  0
   -0.3505    3.1506    1.8317 C   0  0  0  0  0  0  0  0  0  0  0  0
   -0.1502    1.7135    1.9025 O   0  0  0  0  0  0  0  0  0  0  0  0
   -5.7821   -1.3087    2.6006 C   0  0  2  0  0  0  0  0  0  0  0  0
   -5.4922   -2.7495    2.4582 N   0  0  0  0  0  0  0  0  0  0  0  0
   -5.4864   -0.5746    1.2904 C   0  0  0  0  0  0  0  0  0  0  0  0
   -5.6478    0.9303    1.4699 C   0  0  2  0  0  0  0  0  0  0  0  0
   -5.4587    1.6172    0.1860 N   0  0  0  0  0  0  0  0  0  0  0  0
   -4.6351    1.4068    2.5370 C   0  0  2  0  0  0  0  0  0  0  0  0
   -5.0212    0.8140    3.8542 C   0  0  2  0  0  0  0  0  0  0  0  0
   -4.1078    1.2953    4.8229 O   0  0  0  0  0  0  0  0  0  0  0  0
   -4.9781   -0.6998    3.7648 C   0  0  1  0  0  0  0  0  0  0  0  0
   -5.4164   -1.3156    4.9613 O   0  0  0  0  0  0  0  0  0  0  0  0
   -4.5074    1.2553    6.1888 C   0  0  1  0  0  0  0  0  0  0  0  0
   -3.2497    1.3989    7.0484 C   0  0  2  0  0  0  0  0  0  0  0  0
   -3.3842    0.6037    8.2113 O   0  0  0  0  0  0  0  0  0  0  0  0
   -3.2276    2.9028    7.3532 C   0  0  2  0  0  0  0  0  0  0  0  0
   -2.4502    3.2220    8.5075 O   0  0  0  0  0  0  0  0  0  0  0  0
   -4.7315    3.1672    7.4959 C   0  0  2  0  0  0  0  0  0  0  0  0
   -5.3316    2.3772    6.4790 O   0  0  0  0  0  0  0  0  0  0  0  0
   -5.1387    4.6315    7.2943 C   0  0  0  0  0  0  0  0  0  0  0  0
   -4.5060    5.4805    8.2281 O   0  0  0  0  0  0  0  0  0  0  0  0
   -1.0495    2.9965    8.3618 C   0  0  2  0  0  0  0  0  0  0  0  0
   -0.4497    2.3130    9.6001 C   0  0  2  0  0  0  0  0  0  0  0  0
   -1.1637    1.0627    9.9087 N   0  0  0  0  0  0  0  0  0  0  0  0
   -0.4349    3.2644   10.8059 C   0  0  1  0  0  0  0  0  0  0  0  0
    0.2038    2.6133   11.8870 O   0  0  0  0  0  0  0  0  0  0  0  0
    0.3436    4.5322   10.4155 C   0  0  2  0  0  0  0  0  0  0  0  0
    0.3507    5.4643   11.4812 O   0  0  0  0  0  0  0  0  0  0  0  0
   -0.2468    5.1734    9.1427 C   0  0  1  0  0  0  0  0  0  0  0  0
   -0.3705    4.2194    8.0854 O   0  0  0  0  0  0  0  0  0  0  0  0
   -1.5623    5.9253    9.3938 C   0  0  0  0  0  0  0  0  0  0  0  0
   -1.3504    7.1068   10.2455 N   0  0  0  0  0  0  0  0  0  0  0  0
  1  3  1  0  0  0  0
  1  2  1  6  0  0  0
  3  4  1  6  0  0  0
  5  6  1  1  0  0  0
  5  3  1  0  0  0  0
  7  9  1  0  0  0  0
  7  5  1  0  0  0  0
  7  8  1  6  0  0  0
  9 10  1  0  0  0  0
  9 11  1  1  0  0  0
 10  1  1  0  0  0  0
 11 12  1  0  0  0  0
 13 14  1  6  0  0  0
 13 21  1  0  0  0  0
 15 13  1  0  0  0  0
 16 15  1  0  0  0  0
 16 18  1  0  0  0  0
 16 17  1  6  0  0  0
 18  2  1  1  0  0  0
 18 19  1  0  0  0  0
 19 21  1  0  0  0  0
 19 20  1  1  0  0  0
 21 22  1  1  0  0  0
 23 20  1  6  0  0  0
 23 29  1  0  0  0  0
 23 24  1  0  0  0  0
 24 26  1  0  0  0  0
 24 25  1  1  0  0  0
 26 27  1  1  0  0  0
 28 26  1  0  0  0  0
 28 30  1  6  0  0  0
 29 28  1  0  0  0  0
 30 31  1  0  0  0  0
 32 27  1  1  0  0  0
 32 40  1  0  0  0  0
 32 33  1  0  0  0  0
 33 35  1  0  0  0  0
 33 34  1  1  0  0  0
 35 37  1  0  0  0  0
 35 36  1  1  0  0  0
 37 38  1  1  0  0  0
 39 37  1  0  0  0  0
 39 41  1  1  0  0  0
 40 39  1  0  0  0  0
 42 41  1  0  0  0  0
M  END
>  <CHROM.1>
-177.66244720,-178.15072992,-162.57850198,52.39273363,42.63991986,-179.58958091
-178.05025757,69.90287755,153.53286158,159.14072342,162.65621878,66.33191197
76.05747017,67.35745637,-136.27295750,-59.77411116,-58.20637131,93.35281609
-176.77061590,67.60702419,66.32867420,71.14560820,-3.00665732,2.87972025
5.56188458,-2.49352325,1.07859479,2.11347627

>  <Name>
lig.pdb

>  <RI>
3.99633e+07

>  <Rbt.Current_Directory>
/home/itssahil/PROJECTS/Mol_Feturizer/New_Systems/rnas/2mxs

>  <Rbt.Executable>
rbdock ($Id: //depot/dev/client3/rdock/2013.1/src/exe/rbdock.cxx#4 $)

>  <Rbt.Library>
libRbt.so (2013.1, Build901 2013/11/27)

>  <Rbt.Parameter_File>
/export/apps/rDock/src/rDock_2013.1_src/data/scripts/dock_solv.prm

>  <Rbt.Receptor>
prm/pocket_docking_5.prm

>  <SCORE>
-24.6675

>  <SCORE.INTER>
-18.4676

>  <SCORE.INTER.CONST>
1

>  <SCORE.INTER.POLAR>
-3.57057

>  <SCORE.INTER.ROT>
9

>  <SCORE.INTER.SOLV>
14.6041

>  <SCORE.INTER.VDW>
-14.8779

>  <SCORE.INTER.norm>
-0.439704

>  <SCORE.INTRA>
-6.19988

>  <SCORE.INTRA.DIHEDRAL>
-11.4843

>  <SCORE.INTRA.DIHEDRAL.0>
30.1357

>  <SCORE.INTRA.POLAR>
-1.12589

>  <SCORE.INTRA.POLAR.0>
-0.631696

>  <SCORE.INTRA.REPUL>
0

>  <SCORE.INTRA.REPUL.0>
0

>  <SCORE.INTRA.SOLV>
0.192178

>  <SCORE.INTRA.SOLV.lig_0>
-55.904

>  <SCORE.INTRA.VDW>
3.27419

>  <SCORE.INTRA.VDW.0>
-8.21197

>  <SCORE.INTRA.norm>
-0.147616

>  <SCORE.RESTR>
0

>  <SCORE.RESTR.CAVITY>
0

>  <SCORE.RESTR.norm>
0

>  <SCORE.SYSTEM>
0

>  <SCORE.SYSTEM.CONST>
0

>  <SCORE.SYSTEM.DIHEDRAL>
0

>  <SCORE.SYSTEM.SOLV>
0

>  <SCORE.SYSTEM.norm>
0

>  <SCORE.heavy>
42

>  <SCORE.norm>
-0.587321

>  <RMSD>
4.434

$$$$
lig.pdb
 OpenBabel11021811453D
libRbt.so/2013.1/901 2013/11/27
 42 45  0  0  0  0  0  0  0  0999 V2000
    2.9583    6.0383   -1.2106 C   0  0  2  0  0  0  0  0  0  0  0  0
    2.2164    4.8954   -1.6406 O   0  0  0  0  0  0  0  0  0  0  0  0
    2.2818    7.3366   -1.6760 C   0  0  2  0  0  0  0  0  0  0  0  0
    0.8764    7.3891   -1.2327 N   0  0  0  0  0  0  0  0  0  0  0  0
    2.3856    7.4957   -3.1983 C   0  0  1  0  0  0  0  0  0  0  0  0
    1.8909    8.7672   -3.5724 O   0  0  0  0  0  0  0  0  0  0  0  0
    3.8486    7.3662   -3.6483 C   0  0  2  0  0  0  0  0  0  0  0  0
    3.9048    7.3570   -5.0619 O   0  0  0  0  0  0  0  0  0  0  0  0
    4.5002    6.0841   -3.0916 C   0  0  2  0  0  0  0  0  0  0  0  0
    4.3019    5.9745   -1.6824 O   0  0  0  0  0  0  0  0  0  0  0  0
    6.0081    6.1396   -3.4021 C   0  0  0  0  0  0  0  0  0  0  0  0
    6.7058    4.9505   -2.9441 O   0  0  0  0  0  0  0  0  0  0  0  0
    2.3378    0.8109   -0.2869 C   0  0  2  0  0  0  0  0  0  0  0  0
    2.6313   -0.2282    0.7203 N   0  0  0  0  0  0  0  0  0  0  0  0
    3.6160    1.5657   -0.6605 C   0  0  0  0  0  0  0  0  0  0  0  0
    3.2992    2.7299   -1.5917 C   0  0  2  0  0  0  0  0  0  0  0  0
    4.5398    3.3867   -2.0223 N   0  0  0  0  0  0  0  0  0  0  0  0
    2.3539    3.7047   -0.8516 C   0  0  2  0  0  0  0  0  0  0  0  0
    1.0450    3.0172   -0.6288 C   0  0  2  0  0  0  0  0  0  0  0  0
    0.1822    3.9394    0.0114 O   0  0  0  0  0  0  0  0  0  0  0  0
    1.2567    1.7812    0.2250 C   0  0  1  0  0  0  0  0  0  0  0  0
    0.0612    1.0438    0.3982 O   0  0  0  0  0  0  0  0  0  0  0  0
    0.6169    4.5105    1.2409 C   0  0  1  0  0  0  0  0  0  0  0  0
   -0.5684    5.2599    1.8531 C   0  0  2  0  0  0  0  0  0  0  0  0
   -0.0988    6.4232    2.5082 O   0  0  0  0  0  0  0  0  0  0  0  0
   -1.1501    4.2226    2.8230 C   0  0  2  0  0  0  0  0  0  0  0  0
   -1.9476    4.8119    3.8504 O   0  0  0  0  0  0  0  0  0  0  0  0
    0.1441    3.5607    3.3118 C   0  0  2  0  0  0  0  0  0  0  0  0
    0.9620    3.4758    2.1533 O   0  0  0  0  0  0  0  0  0  0  0  0
   -0.0444    2.1543    3.8924 C   0  0  0  0  0  0  0  0  0  0  0  0
   -0.1056    2.1777    5.3026 O   0  0  0  0  0  0  0  0  0  0  0  0
   -2.6891    3.8801    4.6353 C   0  0  2  0  0  0  0  0  0  0  0  0
   -4.1950    3.9575    4.3415 C   0  0  2  0  0  0  0  0  0  0  0  0
   -4.4607    3.7772    2.9045 N   0  0  0  0  0  0  0  0  0  0  0  0
   -4.7950    5.2716    4.8638 C   0  0  1  0  0  0  0  0  0  0  0  0
   -6.1920    5.2490    4.6436 O   0  0  0  0  0  0  0  0  0  0  0  0
   -4.4968    5.3779    6.3690 C   0  0  2  0  0  0  0  0  0  0  0  0
   -4.9926    6.5959    6.8935 O   0  0  0  0  0  0  0  0  0  0  0  0
   -2.9842    5.2490    6.6433 C   0  0  1  0  0  0  0  0  0  0  0  0
   -2.4377    4.0823    6.0242 O   0  0  0  0  0  0  0  0  0  0  0  0
   -2.1906    6.5140    6.2845 C   0  0  0  0  0  0  0  0  0  0  0  0
   -2.6836    7.6850    7.0274 N   0  0  0  0  0  0  0  0  0  0  0  0
  1  3  1  0  0  0  0
  1  2  1  6  0  0  0
  3  4  1  6  0  0  0
  5  6  1  1  0  0  0
  5  3  1  0  0  0  0
  7  9  1  0  0  0  0
  7  5  1  0  0  0  0
  7  8  1  6  0  0  0
  9 10  1  0  0  0  0
  9 11  1  1  0  0  0
 10  1  1  0  0  0  0
 11 12  1  0  0  0  0
 13 14  1  1  0  0  0
 13 21  1  0  0  0  0
 15 13  1  0  0  0  0
 16 15  1  0  0  0  0
 16 18  1  0  0  0  0
 16 17  1  1  0  0  0
 18  2  1  6  0  0  0
 18 19  1  0  0  0  0
 19 21  1  0  0  0  0
 19 20  1  1  0  0  0
 21 22  1  6  0  0  0
 23 20  1  6  0  0  0
 23 29  1  0  0  0  0
 23 24  1  0  0  0  0
 24 26  1  0  0  0  0
 24 25  1  1  0  0  0
 26 27  1  1  0  0  0
 28 26  1  0  0  0  0
 28 30  1  6  0  0  0
 29 28  1  0  0  0  0
 30 31  1  0  0  0  0
 32 27  1  6  0  0  0
 32 40  1  0  0  0  0
 32 33  1  0  0  0  0
 33 35  1  0  0  0  0
 33 34  1  6  0  0  0
 35 37  1  0  0  0  0
 35 36  1  1  0  0  0
 37 38  1  6  0  0  0
 39 37  1  0  0  0  0
 39 41  1  6  0  0  0
 40 39  1  0  0  0  0
 42 41  1  0  0  0  0
M  END
>  <CHROM.1>
-102.81708785,-153.94412694,-21.84980511,174.82909680,-57.50026139,-63.48897071
-178.47594375,78.62314291,138.75362297,-56.69195199,-169.93633847,-56.51060464
52.95083345,169.89746482,-109.07585470,-98.32457454,67.91141616,45.00893906
-53.53228406,64.25582935,58.27851444,56.47252219,0.43351213,4.67942744,1.20807036
0.30334584,0.78806328,-0.36806432

>  <Name>
lig.pdb

>  <RI>
0

>  <Rbt.Current_Directory>
/home/itssahil/PROJECTS/Mol_Feturizer/New_Systems/rnas/2mxs

>  <Rbt.Executable>
rbdock ($Id: //depot/dev/client3/rdock/2013.1/src/exe/rbdock.cxx#4 $)

>  <Rbt.Library>
libRbt.so (2013.1, Build901 2013/11/27)

>  <Rbt.Parameter_File>
/export/apps/rDock/src/rDock_2013.1_src/data/scripts/dock_solv.prm

>  <Rbt.Receptor>
prm/pocket_docking_7.prm

>  <SCORE>
-34.0995

>  <SCORE.INTER>
-35.2836

>  <SCORE.INTER.CONST>
1

>  <SCORE.INTER.POLAR>
-4.14097

>  <SCORE.INTER.ROT>
9

>  <SCORE.INTER.SOLV>
22.0627

>  <SCORE.INTER.VDW>
-26.6734

>  <SCORE.INTER.norm>
-0.840087

>  <SCORE.INTRA>
1.18418

>  <SCORE.INTRA.DIHEDRAL>
-1.50628

>  <SCORE.INTRA.DIHEDRAL.0>
30.1357

>  <SCORE.INTRA.POLAR>
-1.40753

>  <SCORE.INTRA.POLAR.0>
-0.631696

>  <SCORE.INTRA.REPUL>
0.0179845

>  <SCORE.INTRA.REPUL.0>
0

>  <SCORE.INTRA.SOLV>
1.55454

>  <SCORE.INTRA.SOLV.lig_0>
-55.904

>  <SCORE.INTRA.VDW>
5.85571

>  <SCORE.INTRA.VDW.0>
-8.21197

>  <SCORE.INTRA.norm>
0.0281947

>  <SCORE.RESTR>
0

>  <SCORE.RESTR.CAVITY>
0

>  <SCORE.RESTR.norm>
0

>  <SCORE.SYSTEM>
0

>  <SCORE.SYSTEM.CONST>
0

>  <SCORE.SYSTEM.DIHEDRAL>
0

>  <SCORE.SYSTEM.SOLV>
0

>  <SCORE.SYSTEM.norm>
0

>  <SCORE.heavy>
42

>  <SCORE.norm>
-0.811892

>  <RMSD>
4.434

$$$$
lig.pdb
 OpenBabel11021811453D
libRbt.so/2013.1/901 2013/11/27
 42 45  0  0  0  0  0  0  0  0999 V2000
    3.2300    2.8775   -2.2112 C   0  0  2  0  0  0  0  0  0  0  0  0
    3.1010    2.5769   -0.8204 O   0  0  0  0  0  0  0  0  0  0  0  0
    4.7083    3.0064   -2.6083 C   0  0  2  0  0  0  0  0  0  0  0  0
    5.4651    1.7987   -2.2297 N   0  0  0  0  0  0  0  0  0  0  0  0
    5.3351    4.2645   -1.9937 C   0  0  1  0  0  0  0  0  0  0  0  0
    6.6450    4.4325   -2.5012 O   0  0  0  0  0  0  0  0  0  0  0  0
    4.4929    5.5018   -2.3393 C   0  0  2  0  0  0  0  0  0  0  0  0
    4.9953    6.6219   -1.6361 O   0  0  0  0  0  0  0  0  0  0  0  0
    3.0060    5.2896   -1.9893 C   0  0  2  0  0  0  0  0  0  0  0  0
    2.5160    4.0669   -2.5388 O   0  0  0  0  0  0  0  0  0  0  0  0
    2.2054    6.4749   -2.5613 C   0  0  0  0  0  0  0  0  0  0  0  0
    2.6825    7.7516   -2.0586 O   0  0  0  0  0  0  0  0  0  0  0  0
   -0.4446    0.1445   -0.6130 C   0  0  2  0  0  0  0  0  0  0  0  0
   -1.6256   -0.3941    0.0910 N   0  0  0  0  0  0  0  0  0  0  0  0
    0.8388   -0.2520    0.1210 C   0  0  0  0  0  0  0  0  0  0  0  0
    2.0508    0.4160   -0.5176 C   0  0  2  0  0  0  0  0  0  0  0  0
    3.2846   -0.0466    0.1301 N   0  0  0  0  0  0  0  0  0  0  0  0
    1.8783    1.9489   -0.4083 C   0  0  2  0  0  0  0  0  0  0  0  0
    0.7168    2.3563   -1.2572 C   0  0  2  0  0  0  0  0  0  0  0  0
    0.6025    3.7652   -1.1762 O   0  0  0  0  0  0  0  0  0  0  0  0
   -0.5434    1.6746   -0.7588 C   0  0  1  0  0  0  0  0  0  0  0  0
   -1.6614    1.9592   -1.5788 O   0  0  0  0  0  0  0  0  0  0  0  0
   -0.6567    4.3072   -0.7922 C   0  0  1  0  0  0  0  0  0  0  0  0
   -0.7816    4.1691    0.7266 C   0  0  2  0  0  0  0  0  0  0  0  0
   -2.1281    3.8915    1.0622 O   0  0  0  0  0  0  0  0  0  0  0  0
   -0.3141    5.5439    1.2231 C   0  0  2  0  0  0  0  0  0  0  0  0
   -0.7787    5.8441    2.5395 O   0  0  0  0  0  0  0  0  0  0  0  0
   -0.8911    6.4362    0.1172 C   0  0  2  0  0  0  0  0  0  0  0  0
   -0.6858    5.6995   -1.0801 O   0  0  0  0  0  0  0  0  0  0  0  0
   -0.2075    7.8020   -0.0152 C   0  0  0  0  0  0  0  0  0  0  0  0
    1.1954    7.6745   -0.1097 O   0  0  0  0  0  0  0  0  0  0  0  0
   -0.0984    5.1492    3.5828 C   0  0  2  0  0  0  0  0  0  0  0  0
   -1.0649    4.3155    4.4378 C   0  0  2  0  0  0  0  0  0  0  0  0
   -1.8453    3.3904    3.5991 N   0  0  0  0  0  0  0  0  0  0  0  0
   -1.9789    5.2177    5.2805 C   0  0  1  0  0  0  0  0  0  0  0  0
   -2.7834    4.3992    6.1072 O   0  0  0  0  0  0  0  0  0  0  0  0
   -1.0955    6.1361    6.1418 C   0  0  2  0  0  0  0  0  0  0  0  0
   -1.8908    7.0211    6.9090 O   0  0  0  0  0  0  0  0  0  0  0  0
   -0.1012    6.9265    5.2663 C   0  0  1  0  0  0  0  0  0  0  0  0
    0.6341    6.0611    4.3982 O   0  0  0  0  0  0  0  0  0  0  0  0
   -0.7533    8.0875    4.5011 C   0  0  0  0  0  0  0  0  0  0  0  0
   -1.4695    8.9949    5.4121 N   0  0  0  0  0  0  0  0  0  0  0  0
  1  3  1  0  0  0  0
  1  2  1  1  0  0  0
  3  4  1  1  0  0  0
  5  6  1  6  0  0  0
  5  3  1  0  0  0  0
  7  9  1  0  0  0  0
  7  5  1  0  0  0  0
  7  8  1  1  0  0  0
  9 10  1  0  0  0  0
  9 11  1  6  0  0  0
 10  1  1  0  0  0  0
 11 12  1  0  0  0  0
 13 14  1  1  0  0  0
 13 21  1  0  0  0  0
 15 13  1  0  0  0  0
 16 15  1  0  0  0  0
 16 18  1  0  0  0  0
 16 17  1  1  0  0  0
 18  2  1  6  0  0  0
 18 19  1  0  0  0  0
 19 21  1  0  0  0  0
 19 20  1  1  0  0  0
 21 22  1  6  0  0  0
 23 20  1  1  0  0  0
 23 29  1  0  0  0  0
 23 24  1  0  0  0  0
 24 26  1  0  0  0  0
 24 25  1  6  0  0  0
 26 27  1  1  0  0  0
 28 26  1  0  0  0  0
 28 30  1  6  0  0  0
 29 28  1  0  0  0  0
 30 31  1  0  0  0  0
 32 27  1  6  0  0  0
 32 40  1  0  0  0  0
 32 33  1  0  0  0  0
 33 35  1  0  0  0  0
 33 34  1  6  0  0  0
 35 37  1  0  0  0  0
 35 36  1  1  0  0  0
 37 38  1  6  0  0  0
 39 37  1  0  0  0  0
 39 41  1  6  0  0  0
 40 39  1  0  0  0  0
 42 41  1  0  0  0  0
M  END
>  <CHROM.1>
89.10916638,-157.42711298,139.98000900,-57.62788790,63.18262510,-65.83225842
-57.24728196,72.55601679,-42.07436187,-126.11218363,78.45282752,63.51363650
56.69816483,75.06116393,-122.12968291,51.22979664,-69.44455691,80.60234525
-176.08421473,155.89149473,54.75338103,-144.88995388,0.84981250,4.38121873
0.68573913,0.64618478,-0.78901447,-2.73763506

>  <Name>
lig.pdb

>  <RI>
3.17932e+07

>  <Rbt.Current_Directory>
/home/itssahil/PROJECTS/Mol_Feturizer/New_Systems/rnas/2mxs

>  <Rbt.Executable>
rbdock ($Id: //depot/dev/client3/rdock/2013.1/src/exe/rbdock.cxx#4 $)

>  <Rbt.Library>
libRbt.so (2013.1, Build901 2013/11/27)

>  <Rbt.Parameter_File>
/export/apps/rDock/src/rDock_2013.1_src/data/scripts/dock_solv.prm

>  <Rbt.Receptor>
prm/blind_docking_100.prm

>  <SCORE>
35.4155

>  <SCORE.INTER>
-0.418461

>  <SCORE.INTER.CONST>
1

>  <SCORE.INTER.POLAR>
-2.70393

>  <SCORE.INTER.ROT>
9

>  <SCORE.INTER.SOLV>
26.1995

>  <SCORE.INTER.VDW>
-9.59903

>  <SCORE.INTER.norm>
-0.00996336

>  <SCORE.INTRA>
9.70577

>  <SCORE.INTRA.DIHEDRAL>
3.78734

>  <SCORE.INTRA.DIHEDRAL.0>
30.1357

>  <SCORE.INTRA.POLAR>
-1.544

>  <SCORE.INTRA.POLAR.0>
-0.631696

>  <SCORE.INTRA.REPUL>
0.0777446

>  <SCORE.INTRA.REPUL.0>
0

>  <SCORE.INTRA.SOLV>
4.41723

>  <SCORE.INTRA.SOLV.lig_0>
-55.904

>  <SCORE.INTRA.VDW>
10.4644

>  <SCORE.INTRA.VDW.0>
-8.21197

>  <SCORE.INTRA.norm>
0.23109

>  <SCORE.RESTR>
26.1282

>  <SCORE.RESTR.CAVITY>
26.1282

>  <SCORE.RESTR.norm>
0.6221

>  <SCORE.SYSTEM>
0

>  <SCORE.SYSTEM.CONST>
0

>  <SCORE.SYSTEM.DIHEDRAL>
0

>  <SCORE.SYSTEM.SOLV>
0

>  <SCORE.SYSTEM.norm>
0

>  <SCORE.heavy>
42

>  <SCORE.norm>
0.843226

>  <RMSD>
4.457

$$$$
lig.pdb
 OpenBabel11021811453D
libRbt.so/2013.1/901 2013/11/27
 42 45  0  0  0  0  0  0  0  0999 V2000
    1.9720    5.3030   -0.6801 C   0  0  2  0  0  0  0  0  0  0  0  0
    1.7743    4.1154   -1.4495 O   0  0  0  0  0  0  0  0  0  0  0  0
    1.0647    6.4369   -1.1811 C   0  0  2  0  0  0  0  0  0  0  0  0
   -0.3484    6.0157   -1.1974 N   0  0  0  0  0  0  0  0  0  0  0  0
    1.5097    6.9263   -2.5652 C   0  0  1  0  0  0  0  0  0  0  0  0
    0.7524    8.0655   -2.9264 O   0  0  0  0  0  0  0  0  0  0  0  0
    3.0015    7.2921   -2.5461 C   0  0  2  0  0  0  0  0  0  0  0  0
    3.4282    7.5881   -3.8621 O   0  0  0  0  0  0  0  0  0  0  0  0
    3.8568    6.1480   -1.9649 C   0  0  2  0  0  0  0  0  0  0  0  0
    3.3398    5.7028   -0.7113 O   0  0  0  0  0  0  0  0  0  0  0  0
    5.2938    6.6713   -1.7788 C   0  0  0  0  0  0  0  0  0  0  0  0
    6.2366    5.5993   -1.5099 O   0  0  0  0  0  0  0  0  0  0  0  0
    2.6110   -0.0096   -0.5467 C   0  0  2  0  0  0  0  0  0  0  0  0
    2.9024   -1.1137    0.3894 N   0  0  0  0  0  0  0  0  0  0  0  0
    3.7000    1.0626   -0.4603 C   0  0  0  0  0  0  0  0  0  0  0  0
    3.3353    2.2687   -1.3177 C   0  0  2  0  0  0  0  0  0  0  0  0
    4.4290    3.2481   -1.3064 N   0  0  0  0  0  0  0  0  0  0  0  0
    2.0145    2.8683   -0.7814 C   0  0  2  0  0  0  0  0  0  0  0  0
    0.9171    1.8796   -1.0134 C   0  0  2  0  0  0  0  0  0  0  0  0
   -0.2879    2.4641   -0.5542 O   0  0  0  0  0  0  0  0  0  0  0  0
    1.2220    0.5945   -0.2671 C   0  0  1  0  0  0  0  0  0  0  0  0
    0.2558   -0.4085   -0.5192 O   0  0  0  0  0  0  0  0  0  0  0  0
   -0.7775    2.0599    0.7200 C   0  0  1  0  0  0  0  0  0  0  0  0
   -0.2680    3.0636    1.7565 C   0  0  2  0  0  0  0  0  0  0  0  0
    0.0182    2.3843    2.9646 O   0  0  0  0  0  0  0  0  0  0  0  0
   -1.4487    4.0356    1.8837 C   0  0  2  0  0  0  0  0  0  0  0  0
   -1.4306    4.7710    3.1075 O   0  0  0  0  0  0  0  0  0  0  0  0
   -2.6180    3.0537    1.7394 C   0  0  2  0  0  0  0  0  0  0  0  0
   -2.1971    2.1416    0.7348 O   0  0  0  0  0  0  0  0  0  0  0  0
   -3.9377    3.7007    1.3032 C   0  0  0  0  0  0  0  0  0  0  0  0
   -3.7322    4.9901    0.7662 O   0  0  0  0  0  0  0  0  0  0  0  0
   -2.4248    5.7891    3.2039 C   0  0  2  0  0  0  0  0  0  0  0  0
   -1.9674    7.0978    2.5420 C   0  0  2  0  0  0  0  0  0  0  0  0
   -1.5700    6.8691    1.1428 N   0  0  0  0  0  0  0  0  0  0  0  0
   -0.8388    7.7608    3.3460 C   0  0  1  0  0  0  0  0  0  0  0  0
   -0.5196    8.9984    2.7399 O   0  0  0  0  0  0  0  0  0  0  0  0
   -1.3344    7.9867    4.7844 C   0  0  2  0  0  0  0  0  0  0  0  0
   -0.3140    8.5584    5.5822 O   0  0  0  0  0  0  0  0  0  0  0  0
   -1.8331    6.6682    5.4108 C   0  0  1  0  0  0  0  0  0  0  0  0
   -2.7823    6.0137    4.5658 O   0  0  0  0  0  0  0  0  0  0  0  0
   -0.6958    5.7264    5.8330 C   0  0  0  0  0  0  0  0  0  0  0  0
   -1.1017    4.3154    5.7297 N   0  0  0  0  0  0  0  0  0  0  0  0
  1  3  1  0  0  0  0
  1  2  1  6  0  0  0
  3  4  1  6  0  0  0
  5  6  1  1  0  0  0
  5  3  1  0  0  0  0
  7  9  1  0  0  0  0
  7  5  1  0  0  0  0
  7  8  1  6  0  0  0
  9 10  1  0  0  0  0
  9 11  1  1  0  0  0
 10  1  1  0  0  0  0
 11 12  1  0  0  0  0
 13 14  1  1  0  0  0
 13 21  1  0  0  0  0
 15 13  1  0  0  0  0
 16 15  1  0  0  0  0
 16 18  1  0  0  0  0
 16 17  1  1  0  0  0
 18  2  1  6  0  0  0
 18 19  1  0  0  0  0
 19 21  1  0  0  0  0
 19 20  1  1  0  0  0
 21 22  1  6  0  0  0
 23 20  1  6  0  0  0
 23 29  1  0  0  0  0
 23 24  1  0  0  0  0
 24 26  1  0  0  0  0
 24 25  1  1  0  0  0
 26 27  1  1  0  0  0
 28 26  1  0  0  0  0
 28 30  1  6  0  0  0
 29 28  1  0  0  0  0
 30 31  1  0  0  0  0
 32 27  1  1  0  0  0
 32 40  1  0  0  0  0
 32 33  1  0  0  0  0
 33 35  1  0  0  0  0
 33 34  1  6  0  0  0
 35 37  1  0  0  0  0
 35 36  1  6  0  0  0
 37 38  1  1  0  0  0
 39 37  1  0  0  0  0
 39 41  1  6  0  0  0
 40 39  1  0  0  0  0
 42 41  1  0  0  0  0
M  END
>  <CHROM.1>
-107.02476097,-151.27451785,40.99847462,177.39197448,-165.39707596,172.95917921
-167.65115254,49.20954925,35.44694931,-100.99659047,94.41074605,-168.28252254
-56.67896676,173.45883291,-84.45974980,16.47472577,-98.69159639,36.44096538
122.22363864,36.40089969,-149.36844174,-60.71110667,0.51279082,4.65352902
0.73907190,-0.33581639,0.80420564,0.06549481

>  <Name>
lig.pdb

>  <RI>
0

>  <Rbt.Current_Directory>
/home/itssahil/PROJECTS/Mol_Feturizer/New_Systems/rnas/2mxs

>  <Rbt.Executable>
rbdock ($Id: //depot/dev/client3/rdock/2013.1/src/exe/rbdock.cxx#4 $)

>  <Rbt.Library>
libRbt.so (2013.1, Build901 2013/11/27)

>  <Rbt.Parameter_File>
/export/apps/rDock/src/rDock_2013.1_src/data/scripts/dock_solv.prm

>  <Rbt.Receptor>
prm/blind_docking_20.prm

>  <SCORE>
17.9995

>  <SCORE.INTER>
-18.6222

>  <SCORE.INTER.CONST>
1

>  <SCORE.INTER.POLAR>
-5.79772

>  <SCORE.INTER.ROT>
9

>  <SCORE.INTER.SOLV>
28.7429

>  <SCORE.INTER.VDW>
-12.2701

>  <SCORE.INTER.norm>
-0.443387

>  <SCORE.INTRA>
14.9822

>  <SCORE.INTRA.DIHEDRAL>
20.8415

>  <SCORE.INTRA.DIHEDRAL.0>
30.1357

>  <SCORE.INTRA.POLAR>
-1.55747

>  <SCORE.INTRA.POLAR.0>
-0.631696

>  <SCORE.INTRA.REPUL>
0

>  <SCORE.INTRA.REPUL.0>
0

>  <SCORE.INTRA.SOLV>
3.27425

>  <SCORE.INTRA.SOLV.lig_0>
-55.904

>  <SCORE.INTRA.VDW>
8.21977

>  <SCORE.INTRA.VDW.0>
-8.21197

>  <SCORE.INTRA.norm>
0.35672

>  <SCORE.RESTR>
21.6395

>  <SCORE.RESTR.CAVITY>
21.6395

>  <SCORE.RESTR.norm>
0.515226

>  <SCORE.SYSTEM>
0

>  <SCORE.SYSTEM.CONST>
0

>  <SCORE.SYSTEM.DIHEDRAL>
0

>  <SCORE.SYSTEM.SOLV>
0

>  <SCORE.SYSTEM.norm>
0

>  <SCORE.heavy>
42

>  <SCORE.norm>
0.428559

>  <RMSD>
4.490

$$$$
lig.pdb
 OpenBabel11021811453D
libRbt.so/2013.1/901 2013/11/27
 42 45  0  0  0  0  0  0  0  0999 V2000
   -0.1510    4.4221    2.9259 C   0  0  2  0  0  0  0  0  0  0  0  0
   -1.5304    4.2096    3.2317 O   0  0  0  0  0  0  0  0  0  0  0  0
    0.0247    5.6422    2.0093 C   0  0  2  0  0  0  0  0  0  0  0  0
   -0.6038    6.8399    2.5965 N   0  0  0  0  0  0  0  0  0  0  0  0
   -0.5297    5.3607    0.6068 C   0  0  1  0  0  0  0  0  0  0  0  0
   -0.2152    6.4428   -0.2485 O   0  0  0  0  0  0  0  0  0  0  0  0
    0.0830    4.0704    0.0415 C   0  0  2  0  0  0  0  0  0  0  0  0
   -0.5551    3.7440   -1.1782 O   0  0  0  0  0  0  0  0  0  0  0  0
   -0.0548    2.8973    1.0330 C   0  0  2  0  0  0  0  0  0  0  0  0
    0.4187    3.2593    2.3298 O   0  0  0  0  0  0  0  0  0  0  0  0
    0.7676    1.7128    0.4908 C   0  0  0  0  0  0  0  0  0  0  0  0
    2.1961    1.9740    0.5306 O   0  0  0  0  0  0  0  0  0  0  0  0
   -3.4787    0.5587    4.4175 C   0  0  2  0  0  0  0  0  0  0  0  0
   -3.8029   -0.8711    4.2418 N   0  0  0  0  0  0  0  0  0  0  0  0
   -3.9639    1.3664    3.2111 C   0  0  0  0  0  0  0  0  0  0  0  0
   -3.5098    2.8173    3.3186 C   0  0  2  0  0  0  0  0  0  0  0  0
   -4.0620    3.6048    2.2091 N   0  0  0  0  0  0  0  0  0  0  0  0
   -1.9638    2.8456    3.3365 C   0  0  2  0  0  0  0  0  0  0  0  0
   -1.4930    2.1959    4.5982 C   0  0  2  0  0  0  0  0  0  0  0  0
   -0.0792    2.2697    4.6143 O   0  0  0  0  0  0  0  0  0  0  0  0
   -1.9670    0.7554    4.6380 C   0  0  1  0  0  0  0  0  0  0  0  0
   -1.6205    0.1152    5.8517 O   0  0  0  0  0  0  0  0  0  0  0  0
    0.5603    2.4637    5.8714 C   0  0  1  0  0  0  0  0  0  0  0  0
    0.5412    3.9625    6.1793 C   0  0  2  0  0  0  0  0  0  0  0  0
    1.7368    4.3183    6.8478 O   0  0  0  0  0  0  0  0  0  0  0  0
   -0.7029    4.1018    7.0670 C   0  0  2  0  0  0  0  0  0  0  0  0
   -0.6802    5.2821    7.8701 O   0  0  0  0  0  0  0  0  0  0  0  0
   -0.6181    2.7868    7.8516 C   0  0  2  0  0  0  0  0  0  0  0  0
   -0.1935    1.8262    6.8949 O   0  0  0  0  0  0  0  0  0  0  0  0
   -1.9472    2.3274    8.4624 C   0  0  0  0  0  0  0  0  0  0  0  0
   -2.4846    3.3017    9.3312 O   0  0  0  0  0  0  0  0  0  0  0  0
   -1.9310    5.9608    7.9648 C   0  0  2  0  0  0  0  0  0  0  0  0
   -2.1924    6.8493    6.7391 C   0  0  2  0  0  0  0  0  0  0  0  0
   -2.1001    6.0687    5.4940 N   0  0  0  0  0  0  0  0  0  0  0  0
   -1.2433    8.0569    6.7173 C   0  0  1  0  0  0  0  0  0  0  0  0
   -1.5861    8.8808    5.6198 O   0  0  0  0  0  0  0  0  0  0  0  0
   -1.4117    8.8317    8.0353 C   0  0  2  0  0  0  0  0  0  0  0  0
   -0.5253    9.9345    8.0853 O   0  0  0  0  0  0  0  0  0  0  0  0
   -1.1923    7.9082    9.2512 C   0  0  1  0  0  0  0  0  0  0  0  0
   -1.9954    6.7289    9.1644 O   0  0  0  0  0  0  0  0  0  0  0  0
    0.2859    7.5782    9.5061 C   0  0  0  0  0  0  0  0  0  0  0  0
    0.4335    6.3107   10.2396 N   0  0  0  0  0  0  0  0  0  0  0  0
  1  3  1  0  0  0  0
  1  2  1  6  0  0  0
  3  4  1  1  0  0  0
  5  6  1  6  0  0  0
  5  3  1  0  0  0  0
  7  9  1  0  0  0  0
  7  5  1  0  0  0  0
  7  8  1  6  0  0  0
  9 10  1  0  0  0  0
  9 11  1  6  0  0  0
 10  1  1  0  0  0  0
 11 12  1  0  0  0  0
 13 14  1  6  0  0  0
 13 21  1  0  0  0  0
 15 13  1  0  0  0  0
 16 15  1  0  0  0  0
 16 18  1  0  0  0  0
 16 17  1  6  0  0  0
 18  2  1  1  0  0  0
 18 19  1  0  0  0  0
 19 21  1  0  0  0  0
 19 20  1  6  0  0  0
 21 22  1  1  0  0  0
 23 20  1  6  0  0  0
 23 29  1  0  0  0  0
 23 24  1  0  0  0  0
 24 26  1  0  0  0  0
 24 25  1  1  0  0  0
 26 27  1  1  0  0  0
 28 26  1  0  0  0  0
 28 30  1  6  0  0  0
 29 28  1  0  0  0  0
 30 31  1  0  0  0  0
 32 27  1  6  0  0  0
 32 40  1  0  0  0  0
 32 33  1  0  0  0  0
 33 35  1  0  0  0  0
 33 34  1  6  0  0  0
 35 37  1  0  0  0  0
 35 36  1  6  0  0  0
 37 38  1  6  0  0  0
 39 37  1  0  0  0  0
 39 41  1  6  0  0  0
 40 39  1  0  0  0  0
 42 41  1  0  0  0  0
M  END
>  <CHROM.1>
-166.15464428,143.72970036,-77.47940726,-88.65658857,78.11005421,-172.53241738
68.38771996,72.16456951,-52.53797399,144.50132332,-83.08635766,-166.26644262
82.20018252,138.85815689,-81.26028327,-57.89667939,-172.38515033,160.13386058
42.17131122,56.88557209,-155.53952972,-52.58800076,-1.02300358,4.29481774
4.94157792,-1.51532660,1.32882905,0.99201935

>  <Name>
lig.pdb

>  <RI>
3.99633e+07

>  <Rbt.Current_Directory>
/home/itssahil/PROJECTS/Mol_Feturizer/New_Systems/rnas/2mxs

>  <Rbt.Executable>
rbdock ($Id: //depot/dev/client3/rdock/2013.1/src/exe/rbdock.cxx#4 $)

>  <Rbt.Library>
libRbt.so (2013.1, Build901 2013/11/27)

>  <Rbt.Parameter_File>
/export/apps/rDock/src/rDock_2013.1_src/data/scripts/dock_solv.prm

>  <Rbt.Receptor>
prm/pocket_docking_5.prm

>  <SCORE>
-24.3304

>  <SCORE.INTER>
-26.7714

>  <SCORE.INTER.CONST>
1

>  <SCORE.INTER.POLAR>
-4.80936

>  <SCORE.INTER.ROT>
9

>  <SCORE.INTER.SOLV>
14.3627

>  <SCORE.INTER.VDW>
-16.204

>  <SCORE.INTER.norm>
-0.637415

>  <SCORE.INTRA>
2.3237

>  <SCORE.INTRA.DIHEDRAL>
4.68333

>  <SCORE.INTRA.DIHEDRAL.0>
30.1357

>  <SCORE.INTRA.POLAR>
-0.798549

>  <SCORE.INTRA.POLAR.0>
-0.631696

>  <SCORE.INTRA.REPUL>
0

>  <SCORE.INTRA.REPUL.0>
0

>  <SCORE.INTRA.SOLV>
1.99021

>  <SCORE.INTRA.SOLV.lig_0>
-55.904

>  <SCORE.INTRA.VDW>
1.702

>  <SCORE.INTRA.VDW.0>
-8.21197

>  <SCORE.INTRA.norm>
0.0553263

>  <SCORE.RESTR>
0.117385

>  <SCORE.RESTR.CAVITY>
0.117385

>  <SCORE.RESTR.norm>
0.00279487

>  <SCORE.SYSTEM>
0

>  <SCORE.SYSTEM.CONST>
0

>  <SCORE.SYSTEM.DIHEDRAL>
0

>  <SCORE.SYSTEM.SOLV>
0

>  <SCORE.SYSTEM.norm>
0

>  <SCORE.heavy>
42

>  <SCORE.norm>
-0.579294

>  <RMSD>
4.564

$$$$
lig.pdb
 OpenBabel11021811453D
libRbt.so/2013.1/901 2013/11/27
 42 45  0  0  0  0  0  0  0  0999 V2000
    3.5687    6.1742   -1.5298 C   0  0  2  0  0  0  0  0  0  0  0  0
    2.6242    5.1135   -1.6861 O   0  0  0  0  0  0  0  0  0  0  0  0
    2.9024    7.5387   -1.7616 C   0  0  2  0  0  0  0  0  0  0  0  0
    1.7276    7.7093   -0.8868 N   0  0  0  0  0  0  0  0  0  0  0  0
    2.5220    7.7216   -3.2365 C   0  0  1  0  0  0  0  0  0  0  0  0
    2.0539    9.0409   -3.4408 O   0  0  0  0  0  0  0  0  0  0  0  0
    3.7417    7.4693   -4.1358 C   0  0  2  0  0  0  0  0  0  0  0  0
    3.3361    7.4865   -5.4910 O   0  0  0  0  0  0  0  0  0  0  0  0
    4.4156    6.1211   -3.8096 C   0  0  2  0  0  0  0  0  0  0  0  0
    4.6749    5.9988   -2.4114 O   0  0  0  0  0  0  0  0  0  0  0  0
    5.7400    6.0458   -4.5929 C   0  0  0  0  0  0  0  0  0  0  0  0
    5.5304    6.0976   -6.0295 O   0  0  0  0  0  0  0  0  0  0  0  0
    2.4459    1.2082    0.1160 C   0  0  2  0  0  0  0  0  0  0  0  0
    2.8093    0.2276    1.1584 N   0  0  0  0  0  0  0  0  0  0  0  0
    3.6983    1.6905   -0.6203 C   0  0  0  0  0  0  0  0  0  0  0  0
    3.3494    2.8046   -1.6000 C   0  0  2  0  0  0  0  0  0  0  0  0
    4.5374    3.1924   -2.3708 N   0  0  0  0  0  0  0  0  0  0  0  0
    2.7634    3.9922   -0.8014 C   0  0  2  0  0  0  0  0  0  0  0  0
    1.4561    3.5679   -0.2129 C   0  0  2  0  0  0  0  0  0  0  0  0
    0.9178    4.6805    0.4777 O   0  0  0  0  0  0  0  0  0  0  0  0
    1.6750    2.3950    0.7240 C   0  0  1  0  0  0  0  0  0  0  0  0
    0.4573    1.8973    1.2461 O   0  0  0  0  0  0  0  0  0  0  0  0
   -0.4640    4.9699    0.2937 C   0  0  1  0  0  0  0  0  0  0  0  0
   -1.2649    3.9988    1.1637 C   0  0  2  0  0  0  0  0  0  0  0  0
   -2.4608    3.6472    0.4935 O   0  0  0  0  0  0  0  0  0  0  0  0
   -1.5131    4.8215    2.4351 C   0  0  2  0  0  0  0  0  0  0  0  0
   -2.6218    4.3423    3.1966 O   0  0  0  0  0  0  0  0  0  0  0  0
   -1.7082    6.2120    1.8181 C   0  0  2  0  0  0  0  0  0  0  0  0
   -0.7466    6.2781    0.7743 O   0  0  0  0  0  0  0  0  0  0  0  0
   -1.4699    7.3744    2.7889 C   0  0  0  0  0  0  0  0  0  0  0  0
   -1.2271    8.5839    2.1024 O   0  0  0  0  0  0  0  0  0  0  0  0
   -2.8383    5.0288    4.4279 C   0  0  2  0  0  0  0  0  0  0  0  0
   -1.8535    4.5738    5.5157 C   0  0  2  0  0  0  0  0  0  0  0  0
   -0.4612    4.7198    5.0595 N   0  0  0  0  0  0  0  0  0  0  0  0
   -2.1500    3.1353    5.9654 C   0  0  1  0  0  0  0  0  0  0  0  0
   -1.2717    2.8029    7.0232 O   0  0  0  0  0  0  0  0  0  0  0  0
   -3.6094    3.0671    6.4464 C   0  0  2  0  0  0  0  0  0  0  0  0
   -3.9486    1.7482    6.8333 O   0  0  0  0  0  0  0  0  0  0  0  0
   -4.5751    3.5740    5.3554 C   0  0  1  0  0  0  0  0  0  0  0  0
   -4.1843    4.8592    4.8668 O   0  0  0  0  0  0  0  0  0  0  0  0
   -4.7881    2.5672    4.2153 C   0  0  0  0  0  0  0  0  0  0  0  0
   -6.1726    2.0683    4.1923 N   0  0  0  0  0  0  0  0  0  0  0  0
  1  3  1  0  0  0  0
  1  2  1  6  0  0  0
  3  4  1  1  0  0  0
  5  6  1  1  0  0  0
  5  3  1  0  0  0  0
  7  9  1  0  0  0  0
  7  5  1  0  0  0  0
  7  8  1  6  0  0  0
  9 10  1  0  0  0  0
  9 11  1  6  0  0  0
 10  1  1  0  0  0  0
 11 12  1  0  0  0  0
 13 14  1  1  0  0  0
 13 21  1  0  0  0  0
 15 13  1  0  0  0  0
 16 15  1  0  0  0  0
 16 18  1  0  0  0  0
 16 17  1  1  0  0  0
 18  2  1  6  0  0  0
 18 19  1  0  0  0  0
 19 21  1  0  0  0  0
 19 20  1  1  0  0  0
 21 22  1  6  0  0  0
 23 20  1  1  0  0  0
 23 29  1  0  0  0  0
 23 24  1  0  0  0  0
 24 26  1  0  0  0  0
 24 25  1  6  0  0  0
 26 27  1  6  0  0  0
 28 26  1  0  0  0  0
 28 30  1  1  0  0  0
 29 28  1  0  0  0  0
 30 31  1  0  0  0  0
 32 27  1  6  0  0  0
 32 40  1  0  0  0  0
 32 33  1  0  0  0  0
 33 35  1  0  0  0  0
 33 34  1  6  0  0  0
 35 37  1  0  0  0  0
 35 36  1  1  0  0  0
 37 38  1  6  0  0  0
 39 37  1  0  0  0  0
 39 41  1  6  0  0  0
 40 39  1  0  0  0  0
 42 41  1  0  0  0  0
M  END
>  <CHROM.1>
-105.97806972,-143.28089560,66.67463715,57.83941886,-171.51204376,179.03283204
-61.45955776,-44.42030641,18.38510248,135.29432364,78.72554793,-60.82084372
-33.65604927,176.40737165,-77.99628241,160.54198057,-80.05630497,161.12429131
-59.95323686,58.05780127,113.73624465,87.85721811,0.41621459,4.68265499,0.80389486
0.56622375,0.72565280,-0.46449216

>  <Name>
lig.pdb

>  <RI>
4.11275e+07

>  <Rbt.Current_Directory>
/home/itssahil/PROJECTS/Mol_Feturizer/New_Systems/rnas/2mxs

>  <Rbt.Executable>
rbdock ($Id: //depot/dev/client3/rdock/2013.1/src/exe/rbdock.cxx#4 $)

>  <Rbt.Library>
libRbt.so (2013.1, Build901 2013/11/27)

>  <Rbt.Parameter_File>
/export/apps/rDock/src/rDock_2013.1_src/data/scripts/dock_solv.prm

>  <Rbt.Receptor>
prm/pocket_docking_8.prm

>  <SCORE>
-36.7874

>  <SCORE.INTER>
-42.6197

>  <SCORE.INTER.CONST>
1

>  <SCORE.INTER.POLAR>
-4.98597

>  <SCORE.INTER.ROT>
9

>  <SCORE.INTER.SOLV>
20.6681

>  <SCORE.INTER.VDW>
-28.2826

>  <SCORE.INTER.norm>
-1.01475

>  <SCORE.INTRA>
5.83227

>  <SCORE.INTRA.DIHEDRAL>
8.07963

>  <SCORE.INTRA.DIHEDRAL.0>
30.1357

>  <SCORE.INTRA.POLAR>
-0.778603

>  <SCORE.INTRA.POLAR.0>
-0.631696

>  <SCORE.INTRA.REPUL>
0

>  <SCORE.INTRA.REPUL.0>
0

>  <SCORE.INTRA.SOLV>
-0.125443

>  <SCORE.INTRA.SOLV.lig_0>
-55.904

>  <SCORE.INTRA.VDW>
4.50242

>  <SCORE.INTRA.VDW.0>
-8.21197

>  <SCORE.INTRA.norm>
0.138863

>  <SCORE.RESTR>
0

>  <SCORE.RESTR.CAVITY>
0

>  <SCORE.RESTR.norm>
0

>  <SCORE.SYSTEM>
0

>  <SCORE.SYSTEM.CONST>
0

>  <SCORE.SYSTEM.DIHEDRAL>
0

>  <SCORE.SYSTEM.SOLV>
0

>  <SCORE.SYSTEM.norm>
0

>  <SCORE.heavy>
42

>  <SCORE.norm>
-0.87589

>  <RMSD>
4.565

$$$$
lig.pdb
 OpenBabel11021811453D
libRbt.so/2013.1/901 2013/11/27
 42 45  0  0  0  0  0  0  0  0999 V2000
    2.4869    3.9652   -0.1950 C   0  0  2  0  0  0  0  0  0  0  0  0
    2.2467    5.3423   -0.4908 O   0  0  0  0  0  0  0  0  0  0  0  0
    3.4984    3.3621   -1.1812 C   0  0  2  0  0  0  0  0  0  0  0  0
    4.7452    4.1489   -1.2078 N   0  0  0  0  0  0  0  0  0  0  0  0
    2.8927    3.2421   -2.5856 C   0  0  1  0  0  0  0  0  0  0  0  0
    3.7922    2.5462   -3.4272 O   0  0  0  0  0  0  0  0  0  0  0  0
    1.5591    2.4820   -2.5268 C   0  0  2  0  0  0  0  0  0  0  0  0
    0.9419    2.5197   -3.7992 O   0  0  0  0  0  0  0  0  0  0  0  0
    0.6117    3.0831   -1.4689 C   0  0  2  0  0  0  0  0  0  0  0  0
    1.2683    3.2259   -0.2097 O   0  0  0  0  0  0  0  0  0  0  0  0
   -0.5992    2.1423   -1.3205 C   0  0  0  0  0  0  0  0  0  0  0  0
   -1.6025    2.6791   -0.4175 O   0  0  0  0  0  0  0  0  0  0  0  0
   -0.6100    7.8650    1.5107 C   0  0  2  0  0  0  0  0  0  0  0  0
   -1.9880    8.2671    1.8565 N   0  0  0  0  0  0  0  0  0  0  0  0
   -0.3959    7.9470   -0.0028 C   0  0  0  0  0  0  0  0  0  0  0  0
    0.9755    7.4005   -0.3814 C   0  0  2  0  0  0  0  0  0  0  0  0
    1.2106    7.5736   -1.8204 N   0  0  0  0  0  0  0  0  0  0  0  0
    1.0439    5.9149    0.0426 C   0  0  2  0  0  0  0  0  0  0  0  0
    0.9960    5.8460    1.5354 C   0  0  2  0  0  0  0  0  0  0  0  0
    1.1018    4.4829    1.9033 O   0  0  0  0  0  0  0  0  0  0  0  0
   -0.3045    6.4484    2.0326 C   0  0  1  0  0  0  0  0  0  0  0  0
   -0.3669    6.4859    3.4460 O   0  0  0  0  0  0  0  0  0  0  0  0
   -0.0626    3.6722    1.7860 C   0  0  1  0  0  0  0  0  0  0  0  0
    0.1897    2.3769    2.5605 C   0  0  2  0  0  0  0  0  0  0  0  0
   -0.4292    1.2989    1.8840 O   0  0  0  0  0  0  0  0  0  0  0  0
   -0.4531    2.6750    3.9218 C   0  0  2  0  0  0  0  0  0  0  0  0
   -0.7787    1.4914    4.6510 O   0  0  0  0  0  0  0  0  0  0  0  0
   -1.6604    3.5055    3.4693 C   0  0  2  0  0  0  0  0  0  0  0  0
   -1.1609    4.3187    2.4169 O   0  0  0  0  0  0  0  0  0  0  0  0
   -2.2515    4.4083    4.5584 C   0  0  0  0  0  0  0  0  0  0  0  0
   -3.2670    3.7498    5.2852 O   0  0  0  0  0  0  0  0  0  0  0  0
    0.2990    0.5690    4.7989 C   0  0  2  0  0  0  0  0  0  0  0  0
   -0.0386   -0.5476    5.7986 C   0  0  2  0  0  0  0  0  0  0  0  0
   -1.2834   -1.2358    5.4181 N   0  0  0  0  0  0  0  0  0  0  0  0
   -0.1127   -0.0035    7.2332 C   0  0  1  0  0  0  0  0  0  0  0  0
   -0.3396   -1.0857    8.1153 O   0  0  0  0  0  0  0  0  0  0  0  0
    1.2254    0.6791    7.5641 C   0  0  2  0  0  0  0  0  0  0  0  0
    1.1950    1.2376    8.8648 O   0  0  0  0  0  0  0  0  0  0  0  0
    1.5663    1.7624    6.5202 C   0  0  1  0  0  0  0  0  0  0  0  0
    1.4907    1.2482    5.1886 O   0  0  0  0  0  0  0  0  0  0  0  0
    0.7430    3.0483    6.6862 C   0  0  0  0  0  0  0  0  0  0  0  0
    1.6127    4.2266    6.8331 N   0  0  0  0  0  0  0  0  0  0  0  0
  1  3  1  0  0  0  0
  1  2  1  6  0  0  0
  3  4  1  6  0  0  0
  5  6  1  6  0  0  0
  5  3  1  0  0  0  0
  7  9  1  0  0  0  0
  7  5  1  0  0  0  0
  7  8  1  6  0  0  0
  9 10  1  0  0  0  0
  9 11  1  1  0  0  0
 10  1  1  0  0  0  0
 11 12  1  0  0  0  0
 13 14  1  6  0  0  0
 13 21  1  0  0  0  0
 15 13  1  0  0  0  0
 16 15  1  0  0  0  0
 16 18  1  0  0  0  0
 16 17  1  6  0  0  0
 18  2  1  1  0  0  0
 18 19  1  0  0  0  0
 19 21  1  0  0  0  0
 19 20  1  6  0  0  0
 21 22  1  1  0  0  0
 23 20  1  1  0  0  0
 23 29  1  0  0  0  0
 23 24  1  0  0  0  0
 24 26  1  0  0  0  0
 24 25  1  6  0  0  0
 26 27  1  6  0  0  0
 28 26  1  0  0  0  0
 28 30  1  1  0  0  0
 29 28  1  0  0  0  0
 30 31  1  0  0  0  0
 32 27  1  1  0  0  0
 32 40  1  0  0  0  0
 32 33  1  0  0  0  0
 33 35  1  0  0  0  0
 33 34  1  6  0  0  0
 35 37  1  0  0  0  0
 35 36  1  1  0  0  0
 37 38  1  1  0  0  0
 39 37  1  0  0  0  0
 39 41  1  6  0  0  0
 40 39  1  0  0  0  0
 42 41  1  0  0  0  0
M  END
>  <CHROM.1>
179.72213216,160.55843491,31.34785074,-71.00693508,161.62866518,84.16744719
-175.50692525,83.67979429,-158.75534128,-78.36762726,-165.71129655,-52.44852658
65.73508470,52.36481520,169.61405392,-90.65296385,-167.11455222,73.53185314
63.47187403,61.88556590,124.22288003,-35.33733813,0.46311037,3.42938871,2.26854197
-1.16573037,-1.11918300,2.37518483

>  <Name>
lig.pdb

>  <RI>
0

>  <Rbt.Current_Directory>
/home/itssahil/PROJECTS/Mol_Feturizer/New_Systems/rnas/2mxs

>  <Rbt.Executable>
rbdock ($Id: //depot/dev/client3/rdock/2013.1/src/exe/rbdock.cxx#4 $)

>  <Rbt.Library>
libRbt.so (2013.1, Build901 2013/11/27)

>  <Rbt.Parameter_File>
/export/apps/rDock/src/rDock_2013.1_src/data/scripts/dock_solv.prm

>  <Rbt.Receptor>
prm/blind_docking_80.prm

>  <SCORE>
14.0685

>  <SCORE.INTER>
-15.7342

>  <SCORE.INTER.CONST>
1

>  <SCORE.INTER.POLAR>
-4.20403

>  <SCORE.INTER.ROT>
9

>  <SCORE.INTER.SOLV>
27.7146

>  <SCORE.INTER.VDW>
-15.3142

>  <SCORE.INTER.norm>
-0.374624

>  <SCORE.INTRA>
15.7334

>  <SCORE.INTRA.DIHEDRAL>
-5.0123

>  <SCORE.INTRA.DIHEDRAL.0>
30.1357

>  <SCORE.INTRA.POLAR>
0.499726

>  <SCORE.INTRA.POLAR.0>
-0.631696

>  <SCORE.INTRA.REPUL>
0

>  <SCORE.INTRA.REPUL.0>
0

>  <SCORE.INTRA.SOLV>
1.79604

>  <SCORE.INTRA.SOLV.lig_0>
-55.904

>  <SCORE.INTRA.VDW>
15.6424

>  <SCORE.INTRA.VDW.0>
-8.21197

>  <SCORE.INTRA.norm>
0.374604

>  <SCORE.RESTR>
14.0693

>  <SCORE.RESTR.CAVITY>
14.0693

>  <SCORE.RESTR.norm>
0.334984

>  <SCORE.SYSTEM>
0

>  <SCORE.SYSTEM.CONST>
0

>  <SCORE.SYSTEM.DIHEDRAL>
0

>  <SCORE.SYSTEM.SOLV>
0

>  <SCORE.SYSTEM.norm>
0

>  <SCORE.heavy>
42

>  <SCORE.norm>
0.334963

>  <RMSD>
4.566

$$$$
lig.pdb
 OpenBabel11021811453D
libRbt.so/2013.1/901 2013/11/27
 42 45  0  0  0  0  0  0  0  0999 V2000
   -0.5042    1.3002    1.5641 C   0  0  2  0  0  0  0  0  0  0  0  0
   -1.5784    0.4060    1.8607 O   0  0  0  0  0  0  0  0  0  0  0  0
   -0.8310    2.1587    0.3329 C   0  0  2  0  0  0  0  0  0  0  0  0
   -2.1113    2.8691    0.5079 N   0  0  0  0  0  0  0  0  0  0  0  0
   -0.8433    1.3076   -0.9434 C   0  0  1  0  0  0  0  0  0  0  0  0
   -0.9948    2.1511   -2.0690 O   0  0  0  0  0  0  0  0  0  0  0  0
    0.4696    0.5202   -1.0706 C   0  0  2  0  0  0  0  0  0  0  0  0
    0.3757   -0.3740   -2.1628 O   0  0  0  0  0  0  0  0  0  0  0  0
    0.7866   -0.2630    0.2196 C   0  0  2  0  0  0  0  0  0  0  0  0
    0.7110    0.5816    1.3676 O   0  0  0  0  0  0  0  0  0  0  0  0
    2.2088   -0.8412    0.0917 C   0  0  0  0  0  0  0  0  0  0  0  0
    3.1909    0.1835   -0.2178 O   0  0  0  0  0  0  0  0  0  0  0  0
   -2.5479   -1.6672    5.5066 C   0  0  2  0  0  0  0  0  0  0  0  0
   -2.1831   -2.4184    6.7243 N   0  0  0  0  0  0  0  0  0  0  0  0
   -2.0877   -2.4229    4.2575 C   0  0  0  0  0  0  0  0  0  0  0  0
   -2.3338   -1.5900    3.0050 C   0  0  2  0  0  0  0  0  0  0  0  0
   -1.9809   -2.3608    1.8062 N   0  0  0  0  0  0  0  0  0  0  0  0
   -1.5130   -0.2842    3.1171 C   0  0  2  0  0  0  0  0  0  0  0  0
   -2.0694    0.5296    4.2413 C   0  0  2  0  0  0  0  0  0  0  0  0
   -1.3320    1.7369    4.2998 O   0  0  0  0  0  0  0  0  0  0  0  0
   -1.9533   -0.2468    5.5394 C   0  0  1  0  0  0  0  0  0  0  0  0
   -2.5421    0.4432    6.6259 O   0  0  0  0  0  0  0  0  0  0  0  0
   -1.9152    2.8373    4.9896 C   0  0  1  0  0  0  0  0  0  0  0  0
   -0.9763    3.2217    6.1350 C   0  0  2  0  0  0  0  0  0  0  0  0
   -1.7432    3.6380    7.2492 O   0  0  0  0  0  0  0  0  0  0  0  0
   -0.1521    4.3602    5.5190 C   0  0  2  0  0  0  0  0  0  0  0  0
    0.4505    5.2019    6.5025 O   0  0  0  0  0  0  0  0  0  0  0  0
   -1.2311    5.0375    4.6651 C   0  0  2  0  0  0  0  0  0  0  0  0
   -1.9850    3.9624    4.1228 O   0  0  0  0  0  0  0  0  0  0  0  0
   -0.6846    5.8921    3.5156 C   0  0  0  0  0  0  0  0  0  0  0  0
   -1.7129    6.6091    2.8662 O   0  0  0  0  0  0  0  0  0  0  0  0
    1.3905    6.1416    5.9853 C   0  0  2  0  0  0  0  0  0  0  0  0
    2.3869    6.6024    7.0599 C   0  0  2  0  0  0  0  0  0  0  0  0
    3.0660    5.4506    7.6765 N   0  0  0  0  0  0  0  0  0  0  0  0
    1.6974    7.4798    8.1156 C   0  0  1  0  0  0  0  0  0  0  0  0
    2.6755    7.9434    9.0261 O   0  0  0  0  0  0  0  0  0  0  0  0
    1.0323    8.6684    7.4008 C   0  0  2  0  0  0  0  0  0  0  0  0
    0.3436    9.4886    8.3268 O   0  0  0  0  0  0  0  0  0  0  0  0
    0.0735    8.1820    6.2946 C   0  0  1  0  0  0  0  0  0  0  0  0
    0.7176    7.2604    5.4120 O   0  0  0  0  0  0  0  0  0  0  0  0
   -1.2508    7.6256    6.8381 C   0  0  0  0  0  0  0  0  0  0  0  0
   -2.2581    8.6884    6.9868 N   0  0  0  0  0  0  0  0  0  0  0  0
  1  3  1  0  0  0  0
  1  2  1  6  0  0  0
  3  4  1  1  0  0  0
  5  6  1  6  0  0  0
  5  3  1  0  0  0  0
  7  9  1  0  0  0  0
  7  5  1  0  0  0  0
  7  8  1  6  0  0  0
  9 10  1  0  0  0  0
  9 11  1  6  0  0  0
 10  1  1  0  0  0  0
 11 12  1  0  0  0  0
 13 14  1  1  0  0  0
 13 21  1  0  0  0  0
 15 13  1  0  0  0  0
 16 15  1  0  0  0  0
 16 18  1  0  0  0  0
 16 17  1  6  0  0  0
 18  2  1  6  0  0  0
 18 19  1  0  0  0  0
 19 21  1  0  0  0  0
 19 20  1  1  0  0  0
 21 22  1  1  0  0  0
 23 20  1  6  0  0  0
 23 29  1  0  0  0  0
 23 24  1  0  0  0  0
 24 26  1  0  0  0  0
 24 25  1  1  0  0  0
 26 27  1  1  0  0  0
 28 26  1  0  0  0  0
 28 30  1  6  0  0  0
 29 28  1  0  0  0  0
 30 31  1  0  0  0  0
 32 27  1  1  0  0  0
 32 40  1  0  0  0  0
 32 33  1  0  0  0  0
 33 35  1  0  0  0  0
 33 34  1  1  0  0  0
 35 37  1  0  0  0  0
 35 36  1  1  0  0  0
 37 38  1  1  0  0  0
 39 37  1  0  0  0  0
 39 41  1  1  0  0  0
 40 39  1  0  0  0  0
 42 41  1  0  0  0  0
M  END
>  <CHROM.1>
-155.28306076,-169.24520630,60.86832302,176.90546933,171.18189809,-77.87641628
54.21968061,177.46851078,-169.71286928,160.84490357,120.08281550,-53.36630748
62.86779968,170.65136081,-157.11696958,-173.16558968,177.79185833,169.13768903
-64.11778770,-54.55244296,88.71349170,-33.25237306,-0.47096225,3.01962337
4.03046373,-1.86026753,1.16063300,0.93542838

>  <Name>
lig.pdb

>  <RI>
3.99633e+07

>  <Rbt.Current_Directory>
/home/itssahil/PROJECTS/Mol_Feturizer/New_Systems/rnas/2mxs

>  <Rbt.Executable>
rbdock ($Id: //depot/dev/client3/rdock/2013.1/src/exe/rbdock.cxx#4 $)

>  <Rbt.Library>
libRbt.so (2013.1, Build901 2013/11/27)

>  <Rbt.Parameter_File>
/export/apps/rDock/src/rDock_2013.1_src/data/scripts/dock_solv.prm

>  <Rbt.Receptor>
prm/pocket_docking_5.prm

>  <SCORE>
-27.9165

>  <SCORE.INTER>
-28.1616

>  <SCORE.INTER.CONST>
1

>  <SCORE.INTER.POLAR>
-3.46012

>  <SCORE.INTER.ROT>
9

>  <SCORE.INTER.SOLV>
18.8482

>  <SCORE.INTER.VDW>
-23.1234

>  <SCORE.INTER.norm>
-0.670515

>  <SCORE.INTRA>
0.245097

>  <SCORE.INTRA.DIHEDRAL>
-7.65516

>  <SCORE.INTRA.DIHEDRAL.0>
30.1357

>  <SCORE.INTRA.POLAR>
0.571224

>  <SCORE.INTRA.POLAR.0>
-0.631696

>  <SCORE.INTRA.REPUL>
0

>  <SCORE.INTRA.REPUL.0>
0

>  <SCORE.INTRA.SOLV>
-0.406697

>  <SCORE.INTRA.SOLV.lig_0>
-55.904

>  <SCORE.INTRA.VDW>
2.33386

>  <SCORE.INTRA.VDW.0>
-8.21197

>  <SCORE.INTRA.norm>
0.00583565

>  <SCORE.RESTR>
0

>  <SCORE.RESTR.CAVITY>
0

>  <SCORE.RESTR.norm>
0

>  <SCORE.SYSTEM>
0

>  <SCORE.SYSTEM.CONST>
0

>  <SCORE.SYSTEM.DIHEDRAL>
0

>  <SCORE.SYSTEM.SOLV>
0

>  <SCORE.SYSTEM.norm>
0

>  <SCORE.heavy>
42

>  <SCORE.norm>
-0.66468

>  <RMSD>
4.576

$$$$
lig.pdb
 OpenBabel11021811453D
libRbt.so/2013.1/901 2013/11/27
 42 45  0  0  0  0  0  0  0  0999 V2000
    1.0237    3.0185   -0.2716 C   0  0  2  0  0  0  0  0  0  0  0  0
    1.3098    1.7321    0.2806 O   0  0  0  0  0  0  0  0  0  0  0  0
    0.3797    2.8870   -1.6600 C   0  0  2  0  0  0  0  0  0  0  0  0
   -0.8172    2.0272   -1.6087 N   0  0  0  0  0  0  0  0  0  0  0  0
    1.3908    2.3629   -2.6878 C   0  0  1  0  0  0  0  0  0  0  0  0
    0.8111    2.3996   -3.9778 O   0  0  0  0  0  0  0  0  0  0  0  0
    2.6597    3.2287   -2.6753 C   0  0  2  0  0  0  0  0  0  0  0  0
    3.6374    2.6392   -3.5108 O   0  0  0  0  0  0  0  0  0  0  0  0
    3.2208    3.3891   -1.2478 C   0  0  2  0  0  0  0  0  0  0  0  0
    2.2053    3.8129   -0.3388 O   0  0  0  0  0  0  0  0  0  0  0  0
    4.3497    4.4364   -1.2919 C   0  0  0  0  0  0  0  0  0  0  0  0
    3.8682    5.7440   -1.7025 O   0  0  0  0  0  0  0  0  0  0  0  0
    0.8578    0.8285    4.4651 C   0  0  2  0  0  0  0  0  0  0  0  0
    1.3061    0.8709    5.8714 N   0  0  0  0  0  0  0  0  0  0  0  0
    1.8903    0.1024    3.5993 C   0  0  0  0  0  0  0  0  0  0  0  0
    1.5040    0.1771    2.1268 C   0  0  2  0  0  0  0  0  0  0  0  0
    2.4457   -0.6043    1.3154 N   0  0  0  0  0  0  0  0  0  0  0  0
    1.4709    1.6645    1.7050 C   0  0  2  0  0  0  0  0  0  0  0  0
    0.3539    2.3389    2.4352 C   0  0  2  0  0  0  0  0  0  0  0  0
    0.3147    3.6869    2.0040 O   0  0  0  0  0  0  0  0  0  0  0  0
    0.5938    2.2486    3.9304 C   0  0  1  0  0  0  0  0  0  0  0  0
   -0.4770    2.7985    4.6746 O   0  0  0  0  0  0  0  0  0  0  0  0
   -0.7979    4.0993    1.2172 C   0  0  1  0  0  0  0  0  0  0  0  0
   -2.0660    3.8609    2.0397 C   0  0  2  0  0  0  0  0  0  0  0  0
   -3.1127    3.4536    1.1786 O   0  0  0  0  0  0  0  0  0  0  0  0
   -2.3143    5.2374    2.6710 C   0  0  2  0  0  0  0  0  0  0  0  0
   -3.6679    5.4191    3.0876 O   0  0  0  0  0  0  0  0  0  0  0  0
   -1.8683    6.1435    1.5168 C   0  0  2  0  0  0  0  0  0  0  0  0
   -0.7222    5.4991    0.9787 O   0  0  0  0  0  0  0  0  0  0  0  0
   -1.4864    7.5666    1.9405 C   0  0  0  0  0  0  0  0  0  0  0  0
   -0.7581    8.2321    0.9306 O   0  0  0  0  0  0  0  0  0  0  0  0
   -4.1289    4.4655    4.0428 C   0  0  2  0  0  0  0  0  0  0  0  0
   -5.2802    5.0217    4.8944 C   0  0  2  0  0  0  0  0  0  0  0  0
   -6.3813    5.5006    4.0423 N   0  0  0  0  0  0  0  0  0  0  0  0
   -4.7852    6.1222    5.8449 C   0  0  1  0  0  0  0  0  0  0  0  0
   -5.8653    6.5339    6.6603 O   0  0  0  0  0  0  0  0  0  0  0  0
   -3.6557    5.5428    6.7134 C   0  0  2  0  0  0  0  0  0  0  0  0
   -3.1327    6.5319    7.5810 O   0  0  0  0  0  0  0  0  0  0  0  0
   -2.5346    4.9473    5.8370 C   0  0  1  0  0  0  0  0  0  0  0  0
   -3.0556    4.0287    4.8737 O   0  0  0  0  0  0  0  0  0  0  0  0
   -1.6386    6.0125    5.1879 C   0  0  0  0  0  0  0  0  0  0  0  0
   -1.5511    7.2211    6.0234 N   0  0  0  0  0  0  0  0  0  0  0  0
  1  3  1  0  0  0  0
  1  2  1  6  0  0  0
  3  4  1  1  0  0  0
  5  6  1  6  0  0  0
  5  3  1  0  0  0  0
  7  9  1  0  0  0  0
  7  5  1  0  0  0  0
  7  8  1  6  0  0  0
  9 10  1  0  0  0  0
  9 11  1  6  0  0  0
 10  1  1  0  0  0  0
 11 12  1  0  0  0  0
 13 14  1  1  0  0  0
 13 21  1  0  0  0  0
 15 13  1  0  0  0  0
 16 15  1  0  0  0  0
 16 18  1  0  0  0  0
 16 17  1  6  0  0  0
 18  2  1  6  0  0  0
 18 19  1  0  0  0  0
 19 21  1  0  0  0  0
 19 20  1  6  0  0  0
 21 22  1  1  0  0  0
 23 20  1  1  0  0  0
 23 29  1  0  0  0  0
 23 24  1  0  0  0  0
 24 26  1  0  0  0  0
 24 25  1  6  0  0  0
 26 27  1  6  0  0  0
 28 26  1  0  0  0  0
 28 30  1  1  0  0  0
 29 28  1  0  0  0  0
 30 31  1  0  0  0  0
 32 27  1  6  0  0  0
 32 40  1  0  0  0  0
 32 33  1  0  0  0  0
 33 35  1  0  0  0  0
 33 34  1  6  0  0  0
 35 37  1  0  0  0  0
 35 36  1  1  0  0  0
 37 38  1  6  0  0  0
 39 37  1  0  0  0  0
 39 41  1  6  0  0  0
 40 39  1  0  0  0  0
 42 41  1  0  0  0  0
M  END
>  <CHROM.1>
169.41808091,-159.13295197,95.60271081,-67.12413369,-93.07755397,-57.03957494
62.54253369,-52.67741205,70.55001724,111.13515662,59.20502119,-171.02409969
55.19421047,58.85743550,154.76734776,164.20185446,65.14768182,-177.84600145
-175.66010951,170.35653082,29.97256775,-66.51462072,-0.59228680,3.91180553
2.10448171,0.43870491,0.79879984,-1.00487140

>  <Name>
lig.pdb

>  <RI>
0

>  <Rbt.Current_Directory>
/home/itssahil/PROJECTS/Mol_Feturizer/New_Systems/rnas/2mxs

>  <Rbt.Executable>
rbdock ($Id: //depot/dev/client3/rdock/2013.1/src/exe/rbdock.cxx#4 $)

>  <Rbt.Library>
libRbt.so (2013.1, Build901 2013/11/27)

>  <Rbt.Parameter_File>
/export/apps/rDock/src/rDock_2013.1_src/data/scripts/dock_solv.prm

>  <Rbt.Receptor>
prm/blind_docking_20.prm

>  <SCORE>
23.9977

>  <SCORE.INTER>
-16.3878

>  <SCORE.INTER.CONST>
1

>  <SCORE.INTER.POLAR>
-4.96995

>  <SCORE.INTER.ROT>
9

>  <SCORE.INTER.SOLV>
29.5388

>  <SCORE.INTER.VDW>
-13.805

>  <SCORE.INTER.norm>
-0.390186

>  <SCORE.INTRA>
14.8451

>  <SCORE.INTRA.DIHEDRAL>
-5.4472

>  <SCORE.INTRA.DIHEDRAL.0>
30.1357

>  <SCORE.INTRA.POLAR>
0.501654

>  <SCORE.INTRA.POLAR.0>
-0.631696

>  <SCORE.INTRA.REPUL>
0

>  <SCORE.INTRA.REPUL.0>
0

>  <SCORE.INTRA.SOLV>
1.05237

>  <SCORE.INTRA.SOLV.lig_0>
-55.904

>  <SCORE.INTRA.VDW>
15.3369

>  <SCORE.INTRA.VDW.0>
-8.21197

>  <SCORE.INTRA.norm>
0.353456

>  <SCORE.RESTR>
25.5404

>  <SCORE.RESTR.CAVITY>
25.5404

>  <SCORE.RESTR.norm>
0.608105

>  <SCORE.SYSTEM>
0

>  <SCORE.SYSTEM.CONST>
0

>  <SCORE.SYSTEM.DIHEDRAL>
0

>  <SCORE.SYSTEM.SOLV>
0

>  <SCORE.SYSTEM.norm>
0

>  <SCORE.heavy>
42

>  <SCORE.norm>
0.571375

>  <RMSD>
4.593

$$$$
lig.pdb
 OpenBabel11021811453D
libRbt.so/2013.1/901 2013/11/27
 42 45  0  0  0  0  0  0  0  0999 V2000
    2.1228    5.2511   -0.7522 C   0  0  2  0  0  0  0  0  0  0  0  0
    2.1551    4.0444   -1.5166 O   0  0  0  0  0  0  0  0  0  0  0  0
    0.9769    6.1626   -1.2169 C   0  0  2  0  0  0  0  0  0  0  0  0
   -0.3135    5.4497   -1.1822 N   0  0  0  0  0  0  0  0  0  0  0  0
    1.2565    6.7279   -2.6154 C   0  0  1  0  0  0  0  0  0  0  0  0
    0.2610    7.6773   -2.9458 O   0  0  0  0  0  0  0  0  0  0  0  0
    2.6357    7.4034   -2.6503 C   0  0  2  0  0  0  0  0  0  0  0  0
    2.9412    7.7763   -3.9804 O   0  0  0  0  0  0  0  0  0  0  0  0
    3.7360    6.4714   -2.1035 C   0  0  2  0  0  0  0  0  0  0  0  0
    3.3718    5.9331   -0.8328 O   0  0  0  0  0  0  0  0  0  0  0  0
    5.0340    7.2900   -1.9692 C   0  0  0  0  0  0  0  0  0  0  0  0
    4.9196    8.3382   -0.9699 O   0  0  0  0  0  0  0  0  0  0  0  0
    2.8718   -0.0566   -0.4216 C   0  0  2  0  0  0  0  0  0  0  0  0
    3.1986   -1.1149    0.5550 N   0  0  0  0  0  0  0  0  0  0  0  0
    4.0156    0.9569   -0.5103 C   0  0  0  0  0  0  0  0  0  0  0  0
    3.6287    2.1257   -1.4086 C   0  0  2  0  0  0  0  0  0  0  0  0
    4.7652    3.0419   -1.5661 N   0  0  0  0  0  0  0  0  0  0  0  0
    2.3977    2.8298   -0.7918 C   0  0  2  0  0  0  0  0  0  0  0  0
    1.2356    1.8909   -0.8525 C   0  0  2  0  0  0  0  0  0  0  0  0
    0.1113    2.5687   -0.3222 O   0  0  0  0  0  0  0  0  0  0  0  0
    1.5482    0.6398   -0.0536 C   0  0  1  0  0  0  0  0  0  0  0  0
    0.5139   -0.3219   -0.1457 O   0  0  0  0  0  0  0  0  0  0  0  0
   -0.2996    2.2377    1.0001 C   0  0  1  0  0  0  0  0  0  0  0  0
    0.1890    3.3476    1.9332 C   0  0  2  0  0  0  0  0  0  0  0  0
    0.5660    2.7830    3.1749 O   0  0  0  0  0  0  0  0  0  0  0  0
   -1.0433    4.2559    2.0402 C   0  0  2  0  0  0  0  0  0  0  0  0
   -1.0204    5.0848    3.2026 O   0  0  0  0  0  0  0  0  0  0  0  0
   -2.1546    3.1991    2.0243 C   0  0  2  0  0  0  0  0  0  0  0  0
   -1.7197    2.2372    1.0735 O   0  0  0  0  0  0  0  0  0  0  0  0
   -3.5285    3.7317    1.6011 C   0  0  0  0  0  0  0  0  0  0  0  0
   -4.0189    3.0581    0.4614 O   0  0  0  0  0  0  0  0  0  0  0  0
   -2.0789    6.0380    3.2739 C   0  0  2  0  0  0  0  0  0  0  0  0
   -1.6904    7.3722    2.6189 C   0  0  2  0  0  0  0  0  0  0  0  0
   -1.2477    7.1673    1.2297 N   0  0  0  0  0  0  0  0  0  0  0  0
   -0.6245    8.1063    3.4463 C   0  0  1  0  0  0  0  0  0  0  0  0
   -0.3705    9.3609    2.8443 O   0  0  0  0  0  0  0  0  0  0  0  0
   -1.1658    8.3022    4.8726 C   0  0  2  0  0  0  0  0  0  0  0  0
   -0.2019    8.9384    5.6916 O   0  0  0  0  0  0  0  0  0  0  0  0
   -1.5941    6.9555    5.4911 C   0  0  1  0  0  0  0  0  0  0  0  0
   -2.4807    6.2412    4.6268 O   0  0  0  0  0  0  0  0  0  0  0  0
   -0.4094    6.0882    5.9414 C   0  0  0  0  0  0  0  0  0  0  0  0
   -0.7254    4.6543    5.8398 N   0  0  0  0  0  0  0  0  0  0  0  0
  1  3  1  0  0  0  0
  1  2  1  6  0  0  0
  3  4  1  6  0  0  0
  5  6  1  1  0  0  0
  5  3  1  0  0  0  0
  7  9  1  0  0  0  0
  7  5  1  0  0  0  0
  7  8  1  6  0  0  0
  9 10  1  0  0  0  0
  9 11  1  1  0  0  0
 10  1  1  0  0  0  0
 11 12  1  0  0  0  0
 13 14  1  1  0  0  0
 13 21  1  0  0  0  0
 15 13  1  0  0  0  0
 16 15  1  0  0  0  0
 16 18  1  0  0  0  0
 16 17  1  1  0  0  0
 18  2  1  6  0  0  0
 18 19  1  0  0  0  0
 19 21  1  0  0  0  0
 19 20  1  1  0  0  0
 21 22  1  6  0  0  0
 23 20  1  6  0  0  0
 23 29  1  0  0  0  0
 23 24  1  0  0  0  0
 24 26  1  0  0  0  0
 24 25  1  1  0  0  0
 26 27  1  1  0  0  0
 28 26  1  0  0  0  0
 28 30  1  6  0  0  0
 29 28  1  0  0  0  0
 30 31  1  0  0  0  0
 32 27  1  1  0  0  0
 32 40  1  0  0  0  0
 32 33  1  0  0  0  0
 33 35  1  0  0  0  0
 33 34  1  6  0  0  0
 35 37  1  0  0  0  0
 35 36  1  6  0  0  0
 37 38  1  1  0  0  0
 39 37  1  0  0  0  0
 39 41  1  6  0  0  0
 40 39  1  0  0  0  0
 42 41  1  0  0  0  0
M  END
>  <CHROM.1>
-123.94120908,-138.06753875,20.67495088,65.38796237,67.15251577,-64.93499581
65.46217888,171.67453851,-92.40249715,-103.17397290,102.31970659,-167.74253266
-157.20848313,174.08796195,-90.43291535,121.05007927,-46.97690988,-55.56605678
59.84143185,178.34997367,-149.67961829,179.22269139,0.65522558,4.78857194
0.81329748,-0.44785871,0.87991783,0.05497570

>  <Name>
lig.pdb

>  <RI>
3.17932e+07

>  <Rbt.Current_Directory>
/home/itssahil/PROJECTS/Mol_Feturizer/New_Systems/rnas/2mxs

>  <Rbt.Executable>
rbdock ($Id: //depot/dev/client3/rdock/2013.1/src/exe/rbdock.cxx#4 $)

>  <Rbt.Library>
libRbt.so (2013.1, Build901 2013/11/27)

>  <Rbt.Parameter_File>
/export/apps/rDock/src/rDock_2013.1_src/data/scripts/dock_solv.prm

>  <Rbt.Receptor>
prm/blind_docking_100.prm

>  <SCORE>
38.827

>  <SCORE.INTER>
5.03417

>  <SCORE.INTER.CONST>
1

>  <SCORE.INTER.POLAR>
-3.8989

>  <SCORE.INTER.ROT>
9

>  <SCORE.INTER.SOLV>
32.977

>  <SCORE.INTER.VDW>
-4.23989

>  <SCORE.INTER.norm>
0.119861

>  <SCORE.INTRA>
8.14708

>  <SCORE.INTRA.DIHEDRAL>
15.8145

>  <SCORE.INTRA.DIHEDRAL.0>
30.1357

>  <SCORE.INTRA.POLAR>
-1.30583

>  <SCORE.INTRA.POLAR.0>
-0.631696

>  <SCORE.INTRA.REPUL>
0

>  <SCORE.INTRA.REPUL.0>
0

>  <SCORE.INTRA.SOLV>
0.811404

>  <SCORE.INTRA.SOLV.lig_0>
-55.904

>  <SCORE.INTRA.VDW>
4.27397

>  <SCORE.INTRA.VDW.0>
-8.21197

>  <SCORE.INTRA.norm>
0.193978

>  <SCORE.RESTR>
25.6457

>  <SCORE.RESTR.CAVITY>
25.6457

>  <SCORE.RESTR.norm>
0.610612

>  <SCORE.SYSTEM>
0

>  <SCORE.SYSTEM.CONST>
0

>  <SCORE.SYSTEM.DIHEDRAL>
0

>  <SCORE.SYSTEM.SOLV>
0

>  <SCORE.SYSTEM.norm>
0

>  <SCORE.heavy>
42

>  <SCORE.norm>
0.924452

>  <RMSD>
4.627

$$$$
lig.pdb
 OpenBabel11021811453D
libRbt.so/2013.1/901 2013/11/27
 42 45  0  0  0  0  0  0  0  0999 V2000
   -0.1637    5.1882    0.0127 C   0  0  2  0  0  0  0  0  0  0  0  0
    0.8490    4.7121    0.9011 O   0  0  0  0  0  0  0  0  0  0  0  0
   -0.2943    6.7163    0.1004 C   0  0  2  0  0  0  0  0  0  0  0  0
    1.0046    7.3727   -0.1370 N   0  0  0  0  0  0  0  0  0  0  0  0
   -0.8877    7.1409    1.4499 C   0  0  1  0  0  0  0  0  0  0  0  0
   -1.1350    8.5338    1.4367 O   0  0  0  0  0  0  0  0  0  0  0  0
   -2.2036    6.3928    1.7116 C   0  0  2  0  0  0  0  0  0  0  0  0
   -2.6512    6.6771    3.0232 O   0  0  0  0  0  0  0  0  0  0  0  0
   -2.0329    4.8701    1.5367 C   0  0  2  0  0  0  0  0  0  0  0  0
   -1.4132    4.5603    0.2889 O   0  0  0  0  0  0  0  0  0  0  0  0
   -3.4287    4.2214    1.5998 C   0  0  0  0  0  0  0  0  0  0  0  0
   -4.1574    4.6049    2.7965 O   0  0  0  0  0  0  0  0  0  0  0  0
    1.4089    0.6885   -0.5229 C   0  0  2  0  0  0  0  0  0  0  0  0
    2.0066   -0.6593   -0.4426 N   0  0  0  0  0  0  0  0  0  0  0  0
    2.5036    1.7477   -0.6740 C   0  0  0  0  0  0  0  0  0  0  0  0
    1.9067    3.1488   -0.6160 C   0  0  2  0  0  0  0  0  0  0  0  0
    2.9486    4.1542   -0.8597 N   0  0  0  0  0  0  0  0  0  0  0  0
    1.2316    3.3360    0.7626 C   0  0  2  0  0  0  0  0  0  0  0  0
    0.0605    2.4101    0.8459 C   0  0  2  0  0  0  0  0  0  0  0  0
   -0.5669    2.6270    2.0964 O   0  0  0  0  0  0  0  0  0  0  0  0
    0.5339    0.9752    0.7118 C   0  0  1  0  0  0  0  0  0  0  0  0
   -0.5444    0.0586    0.6995 O   0  0  0  0  0  0  0  0  0  0  0  0
    0.2378    2.5324    3.2671 C   0  0  1  0  0  0  0  0  0  0  0  0
   -0.6242    2.9465    4.4616 C   0  0  2  0  0  0  0  0  0  0  0  0
    0.1765    3.6434    5.3975 O   0  0  0  0  0  0  0  0  0  0  0  0
   -1.1240    1.5961    4.9926 C   0  0  2  0  0  0  0  0  0  0  0  0
   -1.5430    1.6585    6.3561 O   0  0  0  0  0  0  0  0  0  0  0  0
    0.1192    0.7345    4.7394 C   0  0  2  0  0  0  0  0  0  0  0  0
    0.6113    1.1773    3.4824 O   0  0  0  0  0  0  0  0  0  0  0  0
   -0.1591   -0.7712    4.6627 C   0  0  0  0  0  0  0  0  0  0  0  0
    0.9949   -1.4952    4.2922 O   0  0  0  0  0  0  0  0  0  0  0  0
   -2.7072    2.4502    6.5846 C   0  0  2  0  0  0  0  0  0  0  0  0
   -2.9261    2.7247    8.0801 C   0  0  2  0  0  0  0  0  0  0  0  0
   -1.7326    3.3422    8.6821 N   0  0  0  0  0  0  0  0  0  0  0  0
   -3.3331    1.4444    8.8250 C   0  0  1  0  0  0  0  0  0  0  0  0
   -3.6041    1.7736   10.1737 O   0  0  0  0  0  0  0  0  0  0  0  0
   -4.5938    0.8720    8.1551 C   0  0  2  0  0  0  0  0  0  0  0  0
   -4.9879   -0.3366    8.7785 O   0  0  0  0  0  0  0  0  0  0  0  0
   -4.3654    0.6503    6.6457 C   0  0  1  0  0  0  0  0  0  0  0  0
   -3.8567    1.8278    6.0150 O   0  0  0  0  0  0  0  0  0  0  0  0
   -3.5058   -0.5839    6.3349 C   0  0  0  0  0  0  0  0  0  0  0  0
   -3.4588   -0.8542    4.8888 N   0  0  0  0  0  0  0  0  0  0  0  0
  1  3  1  0  0  0  0
  1  2  1  1  0  0  0
  3  4  1  1  0  0  0
  5  6  1  6  0  0  0
  5  3  1  0  0  0  0
  7  9  1  0  0  0  0
  7  5  1  0  0  0  0
  7  8  1  1  0  0  0
  9 10  1  0  0  0  0
  9 11  1  6  0  0  0
 10  1  1  0  0  0  0
 11 12  1  0  0  0  0
 13 14  1  1  0  0  0
 13 21  1  0  0  0  0
 15 13  1  0  0  0  0
 16 15  1  0  0  0  0
 16 18  1  0  0  0  0
 16 17  1  1  0  0  0
 18  2  1  6  0  0  0
 18 19  1  0  0  0  0
 19 21  1  0  0  0  0
 19 20  1  1  0  0  0
 21 22  1  6  0  0  0
 23 20  1  6  0  0  0
 23 29  1  0  0  0  0
 23 24  1  0  0  0  0
 24 26  1  0  0  0  0
 24 25  1  1  0  0  0
 26 27  1  1  0  0  0
 28 26  1  0  0  0  0
 28 30  1  6  0  0  0
 29 28  1  0  0  0  0
 30 31  1  0  0  0  0
 32 27  1  1  0  0  0
 32 40  1  0  0  0  0
 32 33  1  0  0  0  0
 33 35  1  0  0  0  0
 33 34  1  1  0  0  0
 35 37  1  0  0  0  0
 35 36  1  1  0  0  0
 37 38  1  1  0  0  0
 39 37  1  0  0  0  0
 39 41  1  1  0  0  0
 40 39  1  0  0  0  0
 42 41  1  0  0  0  0
M  END
>  <CHROM.1>
65.79290543,-169.94539696,162.46271361,-72.29268026,68.99433883,174.40516764
-53.23579484,-145.39175587,-164.95546316,-53.98841060,174.20763829,179.53351472
-67.21001901,66.90402585,-167.66983598,173.89712015,67.82007743,174.21644855
-178.16613107,179.75065379,172.69058704,55.62341901,-1.08199601,2.73234024
3.39567353,0.78101867,0.92575541,-0.46858883

>  <Name>
lig.pdb

>  <RI>
0

>  <Rbt.Current_Directory>
/home/itssahil/PROJECTS/Mol_Feturizer/New_Systems/rnas/2mxs

>  <Rbt.Executable>
rbdock ($Id: //depot/dev/client3/rdock/2013.1/src/exe/rbdock.cxx#4 $)

>  <Rbt.Library>
libRbt.so (2013.1, Build901 2013/11/27)

>  <Rbt.Parameter_File>
/export/apps/rDock/src/rDock_2013.1_src/data/scripts/dock_solv.prm

>  <Rbt.Receptor>
prm/pocket_docking_4.prm

>  <SCORE>
-39.4902

>  <SCORE.INTER>
-36.1705

>  <SCORE.INTER.CONST>
1

>  <SCORE.INTER.POLAR>
-4.47656

>  <SCORE.INTER.ROT>
9

>  <SCORE.INTER.SOLV>
18.4977

>  <SCORE.INTER.VDW>
-24.9577

>  <SCORE.INTER.norm>
-0.861203

>  <SCORE.INTRA>
-4.20421

>  <SCORE.INTRA.DIHEDRAL>
-21.4323

>  <SCORE.INTRA.DIHEDRAL.0>
30.1357

>  <SCORE.INTRA.POLAR>
0.616899

>  <SCORE.INTRA.POLAR.0>
-0.631696

>  <SCORE.INTRA.REPUL>
0.0090888

>  <SCORE.INTRA.REPUL.0>
0

>  <SCORE.INTRA.SOLV>
0.0563956

>  <SCORE.INTRA.SOLV.lig_0>
-55.904

>  <SCORE.INTRA.VDW>
4.34086

>  <SCORE.INTRA.VDW.0>
-8.21197

>  <SCORE.INTRA.norm>
-0.1001

>  <SCORE.RESTR>
0.884531

>  <SCORE.RESTR.CAVITY>
0.884531

>  <SCORE.RESTR.norm>
0.0210603

>  <SCORE.SYSTEM>
0

>  <SCORE.SYSTEM.CONST>
0

>  <SCORE.SYSTEM.DIHEDRAL>
0

>  <SCORE.SYSTEM.SOLV>
0

>  <SCORE.SYSTEM.norm>
0

>  <SCORE.heavy>
42

>  <SCORE.norm>
-0.940243

>  <RMSD>
4.726

$$$$
lig.pdb
 OpenBabel11021811453D
libRbt.so/2013.1/901 2013/11/27
 42 45  0  0  0  0  0  0  0  0999 V2000
   -0.2441    2.5584    0.8093 C   0  0  2  0  0  0  0  0  0  0  0  0
   -1.1903    3.5675    0.4518 O   0  0  0  0  0  0  0  0  0  0  0  0
    1.1150    2.8223    0.1438 C   0  0  2  0  0  0  0  0  0  0  0  0
    1.6041    4.1773    0.4587 N   0  0  0  0  0  0  0  0  0  0  0  0
    1.0364    2.6036   -1.3727 C   0  0  1  0  0  0  0  0  0  0  0  0
    2.3330    2.7051   -1.9296 O   0  0  0  0  0  0  0  0  0  0  0  0
    0.4575    1.2144   -1.6807 C   0  0  2  0  0  0  0  0  0  0  0  0
    0.2458    1.0936   -3.0742 O   0  0  0  0  0  0  0  0  0  0  0  0
   -0.8672    0.9744   -0.9286 C   0  0  2  0  0  0  0  0  0  0  0  0
   -0.7309    1.2644    0.4622 O   0  0  0  0  0  0  0  0  0  0  0  0
   -1.2634   -0.5025   -1.1157 C   0  0  0  0  0  0  0  0  0  0  0  0
   -0.4205   -1.3980   -0.3423 O   0  0  0  0  0  0  0  0  0  0  0  0
   -0.7874    6.6202    3.4600 C   0  0  2  0  0  0  0  0  0  0  0  0
   -1.3308    7.6779    4.3354 N   0  0  0  0  0  0  0  0  0  0  0  0
   -1.0199    6.9753    1.9893 C   0  0  0  0  0  0  0  0  0  0  0  0
   -0.5897    5.8263    1.0851 C   0  0  2  0  0  0  0  0  0  0  0  0
   -0.7243    6.2132   -0.3249 N   0  0  0  0  0  0  0  0  0  0  0  0
   -1.4460    4.5857    1.4301 C   0  0  2  0  0  0  0  0  0  0  0  0
   -1.0995    4.1417    2.8152 C   0  0  2  0  0  0  0  0  0  0  0  0
   -1.8625    2.9824    3.0950 O   0  0  0  0  0  0  0  0  0  0  0  0
   -1.4102    5.2531    3.8000 C   0  0  1  0  0  0  0  0  0  0  0  0
   -1.0228    4.9178    5.1193 O   0  0  0  0  0  0  0  0  0  0  0  0
   -1.2024    1.8908    3.7272 C   0  0  1  0  0  0  0  0  0  0  0  0
   -0.4341    2.4423    4.9301 C   0  0  2  0  0  0  0  0  0  0  0  0
    0.7786    1.7280    5.0784 O   0  0  0  0  0  0  0  0  0  0  0  0
   -1.4136    2.2017    6.0867 C   0  0  2  0  0  0  0  0  0  0  0  0
   -0.7704    2.1808    7.3613 O   0  0  0  0  0  0  0  0  0  0  0  0
   -2.0186    0.8624    5.6483 C   0  0  2  0  0  0  0  0  0  0  0  0
   -2.1672    0.9809    4.2404 O   0  0  0  0  0  0  0  0  0  0  0  0
   -3.3858    0.5520    6.2689 C   0  0  0  0  0  0  0  0  0  0  0  0
   -3.3386    0.5954    7.6792 O   0  0  0  0  0  0  0  0  0  0  0  0
   -1.5482    2.7195    8.4285 C   0  0  2  0  0  0  0  0  0  0  0  0
   -0.9002    3.9762    9.0291 C   0  0  2  0  0  0  0  0  0  0  0  0
   -0.6475    4.9867    7.9883 N   0  0  0  0  0  0  0  0  0  0  0  0
    0.3839    3.6254    9.7957 C   0  0  1  0  0  0  0  0  0  0  0  0
    0.8871    4.8030   10.3965 O   0  0  0  0  0  0  0  0  0  0  0  0
    0.0372    2.5857   10.8749 C   0  0  2  0  0  0  0  0  0  0  0  0
    1.1978    2.1943   11.5851 O   0  0  0  0  0  0  0  0  0  0  0  0
   -0.6556    1.3550   10.2545 C   0  0  1  0  0  0  0  0  0  0  0  0
   -1.7650    1.7356    9.4374 O   0  0  0  0  0  0  0  0  0  0  0  0
    0.3117    0.4225    9.5104 C   0  0  0  0  0  0  0  0  0  0  0  0
    1.1585   -0.3313   10.4490 N   0  0  0  0  0  0  0  0  0  0  0  0
  1  3  1  0  0  0  0
  1  2  1  6  0  0  0
  3  4  1  6  0  0  0
  5  6  1  1  0  0  0
  5  3  1  0  0  0  0
  7  9  1  0  0  0  0
  7  5  1  0  0  0  0
  7  8  1  6  0  0  0
  9 10  1  0  0  0  0
  9 11  1  1  0  0  0
 10  1  1  0  0  0  0
 11 12  1  0  0  0  0
 13 14  1  1  0  0  0
 13 21  1  0  0  0  0
 15 13  1  0  0  0  0
 16 15  1  0  0  0  0
 16 18  1  0  0  0  0
 16 17  1  6  0  0  0
 18  2  1  6  0  0  0
 18 19  1  0  0  0  0
 19 21  1  0  0  0  0
 19 20  1  1  0  0  0
 21 22  1  1  0  0  0
 23 20  1  1  0  0  0
 23 29  1  0  0  0  0
 23 24  1  0  0  0  0
 24 26  1  0  0  0  0
 24 25  1  1  0  0  0
 26 27  1  1  0  0  0
 28 26  1  0  0  0  0
 28 30  1  1  0  0  0
 29 28  1  0  0  0  0
 30 31  1  0  0  0  0
 32 27  1  6  0  0  0
 32 40  1  0  0  0  0
 32 33  1  0  0  0  0
 33 35  1  0  0  0  0
 33 34  1  6  0  0  0
 35 37  1  0  0  0  0
 35 36  1  1  0  0  0
 37 38  1  6  0  0  0
 39 37  1  0  0  0  0
 39 41  1  6  0  0  0
 40 39  1  0  0  0  0
 42 41  1  0  0  0  0
M  END
>  <CHROM.1>
97.65907892,-101.83750959,-79.31087486,-171.66669412,-60.25607694,59.39619341
72.81771034,-170.53968688,-157.86542531,135.91452867,49.01233049,68.92787674
-176.35565195,145.58923308,-116.17254891,-55.66156446,-67.57069399,-153.84602206
-172.19838816,65.92266502,72.95068093,176.66085316,-0.56036181,2.80328322
4.24280199,0.38251225,-1.53411880,-2.73115734

>  <Name>
lig.pdb

>  <RI>
224

>  <Rbt.Current_Directory>
/home/itssahil/PROJECTS/Mol_Feturizer/New_Systems/rnas/2mxs

>  <Rbt.Executable>
rbdock ($Id: //depot/dev/client3/rdock/2013.1/src/exe/rbdock.cxx#4 $)

>  <Rbt.Library>
libRbt.so (2013.1, Build901 2013/11/27)

>  <Rbt.Parameter_File>
/export/apps/rDock/src/rDock_2013.1_src/data/scripts/dock_solv.prm

>  <Rbt.Receptor>
prm/pocket_docking_2.prm

>  <SCORE>
-16.4988

>  <SCORE.INTER>
-29.0099

>  <SCORE.INTER.CONST>
1

>  <SCORE.INTER.POLAR>
-3.4615

>  <SCORE.INTER.ROT>
9

>  <SCORE.INTER.SOLV>
16.5927

>  <SCORE.INTER.VDW>
-22.9325

>  <SCORE.INTER.norm>
-0.690712

>  <SCORE.INTRA>
8.22941

>  <SCORE.INTRA.DIHEDRAL>
5.54016

>  <SCORE.INTRA.DIHEDRAL.0>
30.1357

>  <SCORE.INTRA.POLAR>
-0.632209

>  <SCORE.INTRA.POLAR.0>
-0.631696

>  <SCORE.INTRA.REPUL>
0.028577

>  <SCORE.INTRA.REPUL.0>
0

>  <SCORE.INTRA.SOLV>
2.59899

>  <SCORE.INTRA.SOLV.lig_0>
-55.904

>  <SCORE.INTRA.VDW>
6.16646

>  <SCORE.INTRA.VDW.0>
-8.21197

>  <SCORE.INTRA.norm>
0.195938

>  <SCORE.RESTR>
4.28173

>  <SCORE.RESTR.CAVITY>
4.28173

>  <SCORE.RESTR.norm>
0.101946

>  <SCORE.SYSTEM>
0

>  <SCORE.SYSTEM.CONST>
0

>  <SCORE.SYSTEM.DIHEDRAL>
0

>  <SCORE.SYSTEM.SOLV>
0

>  <SCORE.SYSTEM.norm>
0

>  <SCORE.heavy>
42

>  <SCORE.norm>
-0.392828

>  <RMSD>
4.743

$$$$
lig.pdb
 OpenBabel11021811453D
libRbt.so/2013.1/901 2013/11/27
 42 45  0  0  0  0  0  0  0  0999 V2000
   -2.3175    3.3457    3.8642 C   0  0  2  0  0  0  0  0  0  0  0  0
   -1.7005    2.8228    2.6863 O   0  0  0  0  0  0  0  0  0  0  0  0
   -3.7456    3.8269    3.5663 C   0  0  2  0  0  0  0  0  0  0  0  0
   -4.5477    2.7539    2.9501 N   0  0  0  0  0  0  0  0  0  0  0  0
   -3.7302    5.0804    2.6819 C   0  0  1  0  0  0  0  0  0  0  0  0
   -5.0470    5.5819    2.5552 O   0  0  0  0  0  0  0  0  0  0  0  0
   -2.8322    6.1600    3.3046 C   0  0  2  0  0  0  0  0  0  0  0  0
   -2.7050    7.2416    2.4016 O   0  0  0  0  0  0  0  0  0  0  0  0
   -1.4367    5.6033    3.6524 C   0  0  2  0  0  0  0  0  0  0  0  0
   -1.5361    4.4021    4.4167 O   0  0  0  0  0  0  0  0  0  0  0  0
   -0.6820    6.6745    4.4624 C   0  0  0  0  0  0  0  0  0  0  0  0
   -0.4848    7.8973    3.7034 O   0  0  0  0  0  0  0  0  0  0  0  0
    1.7095    0.2019    2.5040 C   0  0  2  0  0  0  0  0  0  0  0  0
    3.1263   -0.1257    2.7602 N   0  0  0  0  0  0  0  0  0  0  0  0
    1.6032    1.4362    1.6049 C   0  0  0  0  0  0  0  0  0  0  0  0
    0.1486    1.8644    1.4508 C   0  0  2  0  0  0  0  0  0  0  0  0
    0.0476    2.9869    0.5098 N   0  0  0  0  0  0  0  0  0  0  0  0
   -0.4047    2.2279    2.8484 C   0  0  2  0  0  0  0  0  0  0  0  0
   -0.4508    0.9845    3.6774 C   0  0  2  0  0  0  0  0  0  0  0  0
   -0.9983    1.3310    4.9362 O   0  0  0  0  0  0  0  0  0  0  0  0
    0.9487    0.4180    3.8257 C   0  0  1  0  0  0  0  0  0  0  0  0
    0.9536   -0.8081    4.5326 O   0  0  0  0  0  0  0  0  0  0  0  0
   -1.3101    0.2738    5.8373 C   0  0  1  0  0  0  0  0  0  0  0  0
   -0.2862    0.3110    6.9739 C   0  0  2  0  0  0  0  0  0  0  0  0
    0.0086   -1.0117    7.3817 O   0  0  0  0  0  0  0  0  0  0  0  0
   -1.0195    1.1187    8.0532 C   0  0  2  0  0  0  0  0  0  0  0  0
   -0.4962    0.8952    9.3627 O   0  0  0  0  0  0  0  0  0  0  0  0
   -2.4512    0.6134    7.8366 C   0  0  2  0  0  0  0  0  0  0  0  0
   -2.5834    0.5072    6.4260 O   0  0  0  0  0  0  0  0  0  0  0  0
   -3.5408    1.5511    8.3695 C   0  0  0  0  0  0  0  0  0  0  0  0
   -4.8248    0.9761    8.2520 O   0  0  0  0  0  0  0  0  0  0  0  0
    0.8643    1.2875    9.5341 C   0  0  2  0  0  0  0  0  0  0  0  0
    1.4319    0.8065   10.8782 C   0  0  2  0  0  0  0  0  0  0  0  0
    1.2723   -0.6498   11.0259 N   0  0  0  0  0  0  0  0  0  0  0  0
    0.7939    1.5641   12.0523 C   0  0  1  0  0  0  0  0  0  0  0  0
    1.4141    1.1428   13.2518 O   0  0  0  0  0  0  0  0  0  0  0  0
    1.0196    3.0706   11.8391 C   0  0  2  0  0  0  0  0  0  0  0  0
    0.4116    3.8201   12.8750 O   0  0  0  0  0  0  0  0  0  0  0  0
    0.4853    3.5203   10.4637 C   0  0  1  0  0  0  0  0  0  0  0  0
    0.9981    2.7016    9.4100 O   0  0  0  0  0  0  0  0  0  0  0  0
   -1.0457    3.6301   10.4115 C   0  0  0  0  0  0  0  0  0  0  0  0
   -1.5148    4.8818   11.0275 N   0  0  0  0  0  0  0  0  0  0  0  0
  1  3  1  0  0  0  0
  1  2  1  6  0  0  0
  3  4  1  6  0  0  0
  5  6  1  1  0  0  0
  5  3  1  0  0  0  0
  7  9  1  0  0  0  0
  7  5  1  0  0  0  0
  7  8  1  6  0  0  0
  9 10  1  0  0  0  0
  9 11  1  1  0  0  0
 10  1  1  0  0  0  0
 11 12  1  0  0  0  0
 13 14  1  1  0  0  0
 13 21  1  0  0  0  0
 15 13  1  0  0  0  0
 16 15  1  0  0  0  0
 16 18  1  0  0  0  0
 16 17  1  6  0  0  0
 18  2  1  6  0  0  0
 18 19  1  0  0  0  0
 19 21  1  0  0  0  0
 19 20  1  1  0  0  0
 21 22  1  6  0  0  0
 23 20  1  6  0  0  0
 23 29  1  0  0  0  0
 23 24  1  0  0  0  0
 24 26  1  0  0  0  0
 24 25  1  1  0  0  0
 26 27  1  1  0  0  0
 28 26  1  0  0  0  0
 28 30  1  6  0  0  0
 29 28  1  0  0  0  0
 30 31  1  0  0  0  0
 32 27  1  1  0  0  0
 32 40  1  0  0  0  0
 32 33  1  0  0  0  0
 33 35  1  0  0  0  0
 33 34  1  1  0  0  0
 35 37  1  0  0  0  0
 35 36  1  1  0  0  0
 37 38  1  1  0  0  0
 39 37  1  0  0  0  0
 39 41  1  1  0  0  0
 40 39  1  0  0  0  0
 42 41  1  0  0  0  0
M  END
>  <CHROM.1>
-174.07251480,-174.61867852,61.27666639,162.24154219,-65.29775855,-62.29223014
-61.79310376,176.44341176,-177.98288577,171.67002811,108.34992202,83.70047812
95.26812493,62.41645823,-170.35217945,-174.54762514,-64.71466368,166.79414688
-177.56056451,-48.00599384,79.26307088,66.54293100,-0.83370018,2.46426972
6.20813033,1.96959767,0.98680940,-1.64453154

>  <Name>
lig.pdb

>  <RI>
3.99633e+07

>  <Rbt.Current_Directory>
/home/itssahil/PROJECTS/Mol_Feturizer/New_Systems/rnas/2mxs

>  <Rbt.Executable>
rbdock ($Id: //depot/dev/client3/rdock/2013.1/src/exe/rbdock.cxx#4 $)

>  <Rbt.Library>
libRbt.so (2013.1, Build901 2013/11/27)

>  <Rbt.Parameter_File>
/export/apps/rDock/src/rDock_2013.1_src/data/scripts/dock_solv.prm

>  <Rbt.Receptor>
prm/pocket_docking_5.prm

>  <SCORE>
-34.1644

>  <SCORE.INTER>
-34.7383

>  <SCORE.INTER.CONST>
1

>  <SCORE.INTER.POLAR>
-5.30747

>  <SCORE.INTER.ROT>
9

>  <SCORE.INTER.SOLV>
20.7549

>  <SCORE.INTER.VDW>
-21.9856

>  <SCORE.INTER.norm>
-0.827103

>  <SCORE.INTRA>
-0.0202163

>  <SCORE.INTRA.DIHEDRAL>
-10.733

>  <SCORE.INTRA.DIHEDRAL.0>
30.1357

>  <SCORE.INTRA.POLAR>
0.450826

>  <SCORE.INTRA.POLAR.0>
-0.631696

>  <SCORE.INTRA.REPUL>
0

>  <SCORE.INTRA.REPUL.0>
0

>  <SCORE.INTRA.SOLV>
-0.262616

>  <SCORE.INTRA.SOLV.lig_0>
-55.904

>  <SCORE.INTRA.VDW>
3.9448

>  <SCORE.INTRA.VDW.0>
-8.21197

>  <SCORE.INTRA.norm>
-0.000481341

>  <SCORE.RESTR>
0.594164

>  <SCORE.RESTR.CAVITY>
0.594164

>  <SCORE.RESTR.norm>
0.0141468

>  <SCORE.SYSTEM>
0

>  <SCORE.SYSTEM.CONST>
0

>  <SCORE.SYSTEM.DIHEDRAL>
0

>  <SCORE.SYSTEM.SOLV>
0

>  <SCORE.SYSTEM.norm>
0

>  <SCORE.heavy>
42

>  <SCORE.norm>
-0.813437

>  <RMSD>
4.743

$$$$
lig.pdb
 OpenBabel11021811453D
libRbt.so/2013.1/901 2013/11/27
 42 45  0  0  0  0  0  0  0  0999 V2000
    2.4772    5.9707   -0.7495 C   0  0  2  0  0  0  0  0  0  0  0  0
    2.6346    4.8404   -1.6092 O   0  0  0  0  0  0  0  0  0  0  0  0
    1.1611    6.7051   -1.0468 C   0  0  2  0  0  0  0  0  0  0  0  0
    0.0120    5.7845   -0.9681 N   0  0  0  0  0  0  0  0  0  0  0  0
    1.2165    7.4016   -2.4126 C   0  0  1  0  0  0  0  0  0  0  0  0
    0.0543    8.1897   -2.5854 O   0  0  0  0  0  0  0  0  0  0  0  0
    2.4589    8.3005   -2.5016 C   0  0  2  0  0  0  0  0  0  0  0  0
    2.5771    8.8074   -3.8171 O   0  0  0  0  0  0  0  0  0  0  0  0
    3.7410    7.5326   -2.1209 C   0  0  2  0  0  0  0  0  0  0  0  0
    3.5865    6.8572   -0.8731 O   0  0  0  0  0  0  0  0  0  0  0  0
    4.8960    8.5474   -2.0237 C   0  0  0  0  0  0  0  0  0  0  0  0
    5.3191    8.7661   -0.6513 O   0  0  0  0  0  0  0  0  0  0  0  0
    3.5040    0.7124   -0.7520 C   0  0  2  0  0  0  0  0  0  0  0  0
    4.1113   -0.3571    0.0650 N   0  0  0  0  0  0  0  0  0  0  0  0
    4.5849    1.6641   -1.2708 C   0  0  0  0  0  0  0  0  0  0  0  0
    3.9551    2.8476   -1.9959 C   0  0  2  0  0  0  0  0  0  0  0  0
    4.9997    3.7022   -2.5740 N   0  0  0  0  0  0  0  0  0  0  0  0
    3.0651    3.6180   -0.9929 C   0  0  2  0  0  0  0  0  0  0  0  0
    1.9167    2.7412   -0.6085 C   0  0  2  0  0  0  0  0  0  0  0  0
    1.0936    3.4793    0.2759 O   0  0  0  0  0  0  0  0  0  0  0  0
    2.4374    1.4789    0.0525 C   0  0  1  0  0  0  0  0  0  0  0  0
    1.3956    0.5725    0.3621 O   0  0  0  0  0  0  0  0  0  0  0  0
    0.2905    2.7505    1.1982 C   0  0  1  0  0  0  0  0  0  0  0  0
    0.2992    3.5093    2.5270 C   0  0  2  0  0  0  0  0  0  0  0  0
    0.2840    2.5817    3.5957 O   0  0  0  0  0  0  0  0  0  0  0  0
   -0.9872    4.3416    2.4410 C   0  0  2  0  0  0  0  0  0  0  0  0
   -1.4603    4.7629    3.7206 O   0  0  0  0  0  0  0  0  0  0  0  0
   -1.8992    3.3467    1.7124 C   0  0  2  0  0  0  0  0  0  0  0  0
   -1.0580    2.7313    0.7470 O   0  0  0  0  0  0  0  0  0  0  0  0
   -3.0923    3.9896    0.9957 C   0  0  0  0  0  0  0  0  0  0  0  0
   -4.0885    3.0377    0.6879 O   0  0  0  0  0  0  0  0  0  0  0  0
   -2.4735    5.7658    3.6791 C   0  0  2  0  0  0  0  0  0  0  0  0
   -1.9957    7.0297    2.9482 C   0  0  2  0  0  0  0  0  0  0  0  0
   -1.5095    6.7042    1.5970 N   0  0  0  0  0  0  0  0  0  0  0  0
   -0.9287    7.7730    3.7658 C   0  0  1  0  0  0  0  0  0  0  0  0
   -0.5911    8.9675    3.0876 O   0  0  0  0  0  0  0  0  0  0  0  0
   -1.5152    8.0967    5.1504 C   0  0  2  0  0  0  0  0  0  0  0  0
   -0.5544    8.7464    5.9624 O   0  0  0  0  0  0  0  0  0  0  0  0
   -2.0319    6.8195    5.8442 C   0  0  1  0  0  0  0  0  0  0  0  0
   -2.9175    6.0851    4.9959 O   0  0  0  0  0  0  0  0  0  0  0  0
   -0.9089    5.9344    6.4048 C   0  0  0  0  0  0  0  0  0  0  0  0
   -0.5116    6.3636    7.7554 N   0  0  0  0  0  0  0  0  0  0  0  0
  1  3  1  0  0  0  0
  1  2  1  6  0  0  0
  3  4  1  6  0  0  0
  5  6  1  1  0  0  0
  5  3  1  0  0  0  0
  7  9  1  0  0  0  0
  7  5  1  0  0  0  0
  7  8  1  6  0  0  0
  9 10  1  0  0  0  0
  9 11  1  1  0  0  0
 10  1  1  0  0  0  0
 11 12  1  0  0  0  0
 13 14  1  1  0  0  0
 13 21  1  0  0  0  0
 15 13  1  0  0  0  0
 16 15  1  0  0  0  0
 16 18  1  0  0  0  0
 16 17  1  1  0  0  0
 18  2  1  6  0  0  0
 18 19  1  0  0  0  0
 19 21  1  0  0  0  0
 19 20  1  1  0  0  0
 21 22  1  6  0  0  0
 23 20  1  6  0  0  0
 23 29  1  0  0  0  0
 23 24  1  0  0  0  0
 24 26  1  0  0  0  0
 24 25  1  1  0  0  0
 26 27  1  1  0  0  0
 28 26  1  0  0  0  0
 28 30  1  6  0  0  0
 29 28  1  0  0  0  0
 30 31  1  0  0  0  0
 32 27  1  1  0  0  0
 32 40  1  0  0  0  0
 32 33  1  0  0  0  0
 33 35  1  0  0  0  0
 33 34  1  6  0  0  0
 35 37  1  0  0  0  0
 35 36  1  6  0  0  0
 37 38  1  1  0  0  0
 39 37  1  0  0  0  0
 39 41  1  6  0  0  0
 40 39  1  0  0  0  0
 42 41  1  0  0  0  0
M  END
>  <CHROM.1>
-146.30524622,-134.71466414,160.92747129,-177.06086509,64.02538330,66.91877323
108.76666171,-0.88538287,-88.13614726,-154.20799555,141.05377587,62.85475807
-137.98205804,167.15730134,-58.45938128,-162.69178902,-58.22198461,155.17159315
-179.55135983,44.38430178,85.73627736,74.05615723,0.79886718,5.19489388,0.96211000
-0.15050688,0.89616011,-0.04125860

>  <Name>
lig.pdb

>  <RI>
3.17932e+07

>  <Rbt.Current_Directory>
/home/itssahil/PROJECTS/Mol_Feturizer/New_Systems/rnas/2mxs

>  <Rbt.Executable>
rbdock ($Id: //depot/dev/client3/rdock/2013.1/src/exe/rbdock.cxx#4 $)

>  <Rbt.Library>
libRbt.so (2013.1, Build901 2013/11/27)

>  <Rbt.Parameter_File>
/export/apps/rDock/src/rDock_2013.1_src/data/scripts/dock_solv.prm

>  <Rbt.Receptor>
prm/blind_docking_100.prm

>  <SCORE>
46.8541

>  <SCORE.INTER>
5.31057

>  <SCORE.INTER.CONST>
1

>  <SCORE.INTER.POLAR>
-5.46809

>  <SCORE.INTER.ROT>
9

>  <SCORE.INTER.SOLV>
31.9707

>  <SCORE.INTER.VDW>
1.51043

>  <SCORE.INTER.norm>
0.126442

>  <SCORE.INTRA>
15.7775

>  <SCORE.INTRA.DIHEDRAL>
12.4439

>  <SCORE.INTRA.DIHEDRAL.0>
30.1357

>  <SCORE.INTRA.POLAR>
-0.684941

>  <SCORE.INTRA.POLAR.0>
-0.631696

>  <SCORE.INTRA.REPUL>
0

>  <SCORE.INTRA.REPUL.0>
0

>  <SCORE.INTRA.SOLV>
0.0716735

>  <SCORE.INTRA.SOLV.lig_0>
-55.904

>  <SCORE.INTRA.VDW>
11.8486

>  <SCORE.INTRA.VDW.0>
-8.21197

>  <SCORE.INTRA.norm>
0.375655

>  <SCORE.RESTR>
25.766

>  <SCORE.RESTR.CAVITY>
25.766

>  <SCORE.RESTR.norm>
0.613477

>  <SCORE.SYSTEM>
0

>  <SCORE.SYSTEM.CONST>
0

>  <SCORE.SYSTEM.DIHEDRAL>
0

>  <SCORE.SYSTEM.SOLV>
0

>  <SCORE.SYSTEM.norm>
0

>  <SCORE.heavy>
42

>  <SCORE.norm>
1.11557

>  <RMSD>
4.756

$$$$
lig.pdb
 OpenBabel11021811453D
libRbt.so/2013.1/901 2013/11/27
 42 45  0  0  0  0  0  0  0  0999 V2000
   -0.3469    3.9406    1.1082 C   0  0  2  0  0  0  0  0  0  0  0  0
    0.3995    3.6982    2.3022 O   0  0  0  0  0  0  0  0  0  0  0  0
   -0.1716    5.3926    0.6386 C   0  0  2  0  0  0  0  0  0  0  0  0
    1.2553    5.7281    0.4780 N   0  0  0  0  0  0  0  0  0  0  0  0
   -0.8621    6.3686    1.5999 C   0  0  1  0  0  0  0  0  0  0  0  0
   -0.8122    7.6749    1.0589 O   0  0  0  0  0  0  0  0  0  0  0  0
   -2.3280    5.9605    1.8104 C   0  0  2  0  0  0  0  0  0  0  0  0
   -2.9008    6.7737    2.8165 O   0  0  0  0  0  0  0  0  0  0  0  0
   -2.4502    4.4753    2.2071 C   0  0  2  0  0  0  0  0  0  0  0  0
   -1.7261    3.6390    1.3052 O   0  0  0  0  0  0  0  0  0  0  0  0
   -3.9429    4.0949    2.1848 C   0  0  0  0  0  0  0  0  0  0  0  0
   -4.5486    4.3297    0.8854 O   0  0  0  0  0  0  0  0  0  0  0  0
   -0.5576   -0.4326    3.0447 C   0  0  2  0  0  0  0  0  0  0  0  0
   -0.3912   -1.7065    3.7727 N   0  0  0  0  0  0  0  0  0  0  0  0
    0.7580   -0.0264    2.3758 C   0  0  0  0  0  0  0  0  0  0  0  0
    0.6340    1.3540    1.7418 C   0  0  2  0  0  0  0  0  0  0  0  0
    1.8667    1.6926    1.0195 N   0  0  0  0  0  0  0  0  0  0  0  0
    0.3156    2.3773    2.8566 C   0  0  2  0  0  0  0  0  0  0  0  0
   -1.0436    2.0758    3.4018 C   0  0  2  0  0  0  0  0  0  0  0  0
   -1.3322    3.0477    4.3900 O   0  0  0  0  0  0  0  0  0  0  0  0
   -1.0595    0.6767    3.9880 C   0  0  1  0  0  0  0  0  0  0  0  0
   -2.3470    0.3062    4.4442 O   0  0  0  0  0  0  0  0  0  0  0  0
   -0.3795    3.2383    5.4307 C   0  0  1  0  0  0  0  0  0  0  0  0
   -0.4791    4.6929    5.8951 C   0  0  2  0  0  0  0  0  0  0  0  0
    0.8108    5.1646    6.2365 O   0  0  0  0  0  0  0  0  0  0  0  0
   -1.4165    4.5900    7.1058 C   0  0  2  0  0  0  0  0  0  0  0  0
   -1.2951    5.7001    7.9955 O   0  0  0  0  0  0  0  0  0  0  0  0
   -0.9561    3.2466    7.6850 C   0  0  2  0  0  0  0  0  0  0  0  0
   -0.7229    2.4279    6.5476 O   0  0  0  0  0  0  0  0  0  0  0  0
   -1.9867    2.5607    8.5894 C   0  0  0  0  0  0  0  0  0  0  0  0
   -1.9680    3.0937    9.8965 O   0  0  0  0  0  0  0  0  0  0  0  0
   -2.4976    6.0485    8.6787 C   0  0  2  0  0  0  0  0  0  0  0  0
   -2.7890    7.5542    8.5891 C   0  0  2  0  0  0  0  0  0  0  0  0
   -2.8218    8.0013    7.1865 N   0  0  0  0  0  0  0  0  0  0  0  0
   -1.7780    8.3647    9.4141 C   0  0  1  0  0  0  0  0  0  0  0  0
   -2.1458    9.7296    9.3646 O   0  0  0  0  0  0  0  0  0  0  0  0
   -1.8168    7.8571   10.8656 C   0  0  2  0  0  0  0  0  0  0  0  0
   -0.8693    8.5440   11.6624 O   0  0  0  0  0  0  0  0  0  0  0  0
   -1.5696    6.3356   10.9259 C   0  0  1  0  0  0  0  0  0  0  0  0
   -2.4407    5.6285   10.0401 O   0  0  0  0  0  0  0  0  0  0  0  0
   -0.0985    5.9489   10.7135 C   0  0  0  0  0  0  0  0  0  0  0  0
    0.1492    4.5501   11.0988 N   0  0  0  0  0  0  0  0  0  0  0  0
  1  3  1  0  0  0  0
  1  2  1  1  0  0  0
  3  4  1  1  0  0  0
  5  6  1  6  0  0  0
  5  3  1  0  0  0  0
  7  9  1  0  0  0  0
  7  5  1  0  0  0  0
  7  8  1  1  0  0  0
  9 10  1  0  0  0  0
  9 11  1  6  0  0  0
 10  1  1  0  0  0  0
 11 12  1  0  0  0  0
 13 14  1  1  0  0  0
 13 21  1  0  0  0  0
 15 13  1  0  0  0  0
 16 15  1  0  0  0  0
 16 18  1  0  0  0  0
 16 17  1  1  0  0  0
 18  2  1  6  0  0  0
 18 19  1  0  0  0  0
 19 21  1  0  0  0  0
 19 20  1  1  0  0  0
 21 22  1  6  0  0  0
 23 20  1  6  0  0  0
 23 29  1  0  0  0  0
 23 24  1  0  0  0  0
 24 26  1  0  0  0  0
 24 25  1  1  0  0  0
 26 27  1  1  0  0  0
 28 26  1  0  0  0  0
 28 30  1  1  0  0  0
 29 28  1  0  0  0  0
 30 31  1  0  0  0  0
 32 27  1  1  0  0  0
 32 40  1  0  0  0  0
 32 33  1  0  0  0  0
 33 35  1  0  0  0  0
 33 34  1  6  0  0  0
 35 37  1  0  0  0  0
 35 36  1  1  0  0  0
 37 38  1  1  0  0  0
 39 37  1  0  0  0  0
 39 41  1  6  0  0  0
 40 39  1  0  0  0  0
 42 41  1  0  0  0  0
M  END
>  <CHROM.1>
51.66923679,179.54452432,-20.08206730,-74.81555788,-59.59482016,-60.04721700
57.73637906,-44.05997532,-58.07084790,-52.88595827,150.77865840,70.74918887
64.95829828,148.57028809,-131.08935114,-81.23030043,76.95119336,62.22709691
64.77671594,59.08678079,166.14735012,173.99186741,-1.15382347,4.42407658
5.33018883,1.03384247,1.36700346,-1.50192955

>  <Name>
lig.pdb

>  <RI>
0

>  <Rbt.Current_Directory>
/home/itssahil/PROJECTS/Mol_Feturizer/New_Systems/rnas/2mxs

>  <Rbt.Executable>
rbdock ($Id: //depot/dev/client3/rdock/2013.1/src/exe/rbdock.cxx#4 $)

>  <Rbt.Library>
libRbt.so (2013.1, Build901 2013/11/27)

>  <Rbt.Parameter_File>
/export/apps/rDock/src/rDock_2013.1_src/data/scripts/dock_solv.prm

>  <Rbt.Receptor>
prm/pocket_docking_7.prm

>  <SCORE>
-31.6826

>  <SCORE.INTER>
-28.1419

>  <SCORE.INTER.CONST>
1

>  <SCORE.INTER.POLAR>
-4.3621

>  <SCORE.INTER.ROT>
9

>  <SCORE.INTER.SOLV>
14.4631

>  <SCORE.INTER.VDW>
-18.642

>  <SCORE.INTER.norm>
-0.670045

>  <SCORE.INTRA>
-3.54071

>  <SCORE.INTRA.DIHEDRAL>
-6.38884

>  <SCORE.INTRA.DIHEDRAL.0>
30.1357

>  <SCORE.INTRA.POLAR>
-1.44408

>  <SCORE.INTRA.POLAR.0>
-0.631696

>  <SCORE.INTRA.REPUL>
0.027027

>  <SCORE.INTRA.REPUL.0>
0

>  <SCORE.INTRA.SOLV>
0.821851

>  <SCORE.INTRA.SOLV.lig_0>
-55.904

>  <SCORE.INTRA.VDW>
4.01751

>  <SCORE.INTRA.VDW.0>
-8.21197

>  <SCORE.INTRA.norm>
-0.0843026

>  <SCORE.RESTR>
0

>  <SCORE.RESTR.CAVITY>
0

>  <SCORE.RESTR.norm>
0

>  <SCORE.SYSTEM>
0

>  <SCORE.SYSTEM.CONST>
0

>  <SCORE.SYSTEM.DIHEDRAL>
0

>  <SCORE.SYSTEM.SOLV>
0

>  <SCORE.SYSTEM.norm>
0

>  <SCORE.heavy>
42

>  <SCORE.norm>
-0.754347

>  <RMSD>
4.789

$$$$
lig.pdb
 OpenBabel11021811453D
libRbt.so/2013.1/901 2013/11/27
 42 45  0  0  0  0  0  0  0  0999 V2000
    0.2644    4.7537    1.5604 C   0  0  2  0  0  0  0  0  0  0  0  0
    0.9765    5.4351    0.5259 O   0  0  0  0  0  0  0  0  0  0  0  0
   -1.1574    4.3962    1.1019 C   0  0  2  0  0  0  0  0  0  0  0  0
   -1.1299    3.6235   -0.1537 N   0  0  0  0  0  0  0  0  0  0  0  0
   -2.0208    5.6558    0.9547 C   0  0  1  0  0  0  0  0  0  0  0  0
   -3.3571    5.2800    0.6818 O   0  0  0  0  0  0  0  0  0  0  0  0
   -1.9789    6.4838    2.2479 C   0  0  2  0  0  0  0  0  0  0  0  0
   -2.6481    7.7126    2.0393 O   0  0  0  0  0  0  0  0  0  0  0  0
   -0.5294    6.7492    2.7028 C   0  0  2  0  0  0  0  0  0  0  0  0
    0.2267    5.5396    2.7490 O   0  0  0  0  0  0  0  0  0  0  0  0
   -0.5765    7.3872    4.1042 C   0  0  0  0  0  0  0  0  0  0  0  0
   -1.2574    8.6705    4.0993 O   0  0  0  0  0  0  0  0  0  0  0  0
    3.4807    3.0599   -2.0468 C   0  0  2  0  0  0  0  0  0  0  0  0
    4.7880    2.5161   -2.4658 N   0  0  0  0  0  0  0  0  0  0  0  0
    3.4961    4.5893   -2.1090 C   0  0  0  0  0  0  0  0  0  0  0  0
    2.2014    5.1626   -1.5453 C   0  0  2  0  0  0  0  0  0  0  0  0
    2.1841    6.6227   -1.6992 N   0  0  0  0  0  0  0  0  0  0  0  0
    2.0811    4.7344   -0.0642 C   0  0  2  0  0  0  0  0  0  0  0  0
    1.9044    3.2506   -0.0133 C   0  0  2  0  0  0  0  0  0  0  0  0
    1.7547    2.8851    1.3463 O   0  0  0  0  0  0  0  0  0  0  0  0
    3.1108    2.5715   -0.6336 C   0  0  1  0  0  0  0  0  0  0  0  0
    2.9596    1.1654   -0.6882 O   0  0  0  0  0  0  0  0  0  0  0  0
    1.1084    1.6495    1.6335 C   0  0  1  0  0  0  0  0  0  0  0  0
    1.5974    1.1733    3.0030 C   0  0  2  0  0  0  0  0  0  0  0  0
    1.7031   -0.2379    2.9976 O   0  0  0  0  0  0  0  0  0  0  0  0
    0.4981    1.6858    3.9431 C   0  0  2  0  0  0  0  0  0  0  0  0
    0.4583    0.9808    5.1841 O   0  0  0  0  0  0  0  0  0  0  0  0
   -0.7314    1.4852    3.0485 C   0  0  2  0  0  0  0  0  0  0  0  0
   -0.2933    1.8586    1.7497 O   0  0  0  0  0  0  0  0  0  0  0  0
   -1.9408    2.3457    3.4326 C   0  0  0  0  0  0  0  0  0  0  0  0
   -1.5693    3.6857    3.6761 O   0  0  0  0  0  0  0  0  0  0  0  0
   -0.1136    1.7134    6.2659 C   0  0  2  0  0  0  0  0  0  0  0  0
    0.9264    2.0362    7.3495 C   0  0  2  0  0  0  0  0  0  0  0  0
    2.0821    2.7451    6.7752 N   0  0  0  0  0  0  0  0  0  0  0  0
    1.3603    0.7665    8.0972 C   0  0  1  0  0  0  0  0  0  0  0  0
    2.2485    1.1348    9.1347 O   0  0  0  0  0  0  0  0  0  0  0  0
    0.1070    0.0959    8.6850 C   0  0  2  0  0  0  0  0  0  0  0  0
    0.4472   -1.1064    9.3505 O   0  0  0  0  0  0  0  0  0  0  0  0
   -0.9418   -0.1742    7.5866 C   0  0  1  0  0  0  0  0  0  0  0  0
   -1.2168    1.0036    6.8246 O   0  0  0  0  0  0  0  0  0  0  0  0
   -0.5889   -1.3691    6.6885 C   0  0  0  0  0  0  0  0  0  0  0  0
   -1.5317   -2.4825    6.8825 N   0  0  0  0  0  0  0  0  0  0  0  0
  1  3  1  0  0  0  0
  1  2  1  6  0  0  0
  3  4  1  6  0  0  0
  5  6  1  1  0  0  0
  5  3  1  0  0  0  0
  7  9  1  0  0  0  0
  7  5  1  0  0  0  0
  7  8  1  6  0  0  0
  9 10  1  0  0  0  0
  9 11  1  1  0  0  0
 10  1  1  0  0  0  0
 11 12  1  0  0  0  0
 13 14  1  1  0  0  0
 13 21  1  0  0  0  0
 15 13  1  0  0  0  0
 16 15  1  0  0  0  0
 16 18  1  0  0  0  0
 16 17  1  1  0  0  0
 18  2  1  6  0  0  0
 18 19  1  0  0  0  0
 19 21  1  0  0  0  0
 19 20  1  1  0  0  0
 21 22  1  6  0  0  0
 23 20  1  1  0  0  0
 23 29  1  0  0  0  0
 23 24  1  0  0  0  0
 24 26  1  0  0  0  0
 24 25  1  6  0  0  0
 26 27  1  1  0  0  0
 28 26  1  0  0  0  0
 28 30  1  1  0  0  0
 29 28  1  0  0  0  0
 30 31  1  0  0  0  0
 32 27  1  6  0  0  0
 32 40  1  0  0  0  0
 32 33  1  0  0  0  0
 33 35  1  0  0  0  0
 33 34  1  6  0  0  0
 35 37  1  0  0  0  0
 35 36  1  1  0  0  0
 37 38  1  6  0  0  0
 39 37  1  0  0  0  0
 39 41  1  6  0  0  0
 40 39  1  0  0  0  0
 42 41  1  0  0  0  0
M  END
>  <CHROM.1>
148.37326571,-112.25974863,77.36488894,-68.21310300,-57.73597950,-68.21001815
-62.48515996,-176.66596674,-54.96550822,157.84311005,155.00668303,66.68804763
177.04303826,155.41000642,-113.43508049,46.04372163,-169.61547577,-65.05205254
178.43552218,67.01745423,112.68549106,146.27418586,0.43221776,3.02787964
2.98928141,1.39650297,0.87401510,-0.88397542

>  <Name>
lig.pdb

>  <RI>
0

>  <Rbt.Current_Directory>
/home/itssahil/PROJECTS/Mol_Feturizer/New_Systems/rnas/2mxs

>  <Rbt.Executable>
rbdock ($Id: //depot/dev/client3/rdock/2013.1/src/exe/rbdock.cxx#4 $)

>  <Rbt.Library>
libRbt.so (2013.1, Build901 2013/11/27)

>  <Rbt.Parameter_File>
/export/apps/rDock/src/rDock_2013.1_src/data/scripts/dock_solv.prm

>  <Rbt.Receptor>
prm/blind_docking_80.prm

>  <SCORE>
-17.0387

>  <SCORE.INTER>
-39.5519

>  <SCORE.INTER.CONST>
1

>  <SCORE.INTER.POLAR>
-4.60341

>  <SCORE.INTER.ROT>
9

>  <SCORE.INTER.SOLV>
33.7584

>  <SCORE.INTER.VDW>
-31.8761

>  <SCORE.INTER.norm>
-0.941712

>  <SCORE.INTRA>
10.434

>  <SCORE.INTRA.DIHEDRAL>
5.91656

>  <SCORE.INTRA.DIHEDRAL.0>
30.1357

>  <SCORE.INTRA.POLAR>
0.0301057

>  <SCORE.INTRA.POLAR.0>
-0.631696

>  <SCORE.INTRA.REPUL>
0

>  <SCORE.INTRA.REPUL.0>
0

>  <SCORE.INTRA.SOLV>
2.40731

>  <SCORE.INTRA.SOLV.lig_0>
-55.904

>  <SCORE.INTRA.VDW>
6.16969

>  <SCORE.INTRA.VDW.0>
-8.21197

>  <SCORE.INTRA.norm>
0.248428

>  <SCORE.RESTR>
12.0792

>  <SCORE.RESTR.CAVITY>
12.0792

>  <SCORE.RESTR.norm>
0.287601

>  <SCORE.SYSTEM>
0

>  <SCORE.SYSTEM.CONST>
0

>  <SCORE.SYSTEM.DIHEDRAL>
0

>  <SCORE.SYSTEM.SOLV>
0

>  <SCORE.SYSTEM.norm>
0

>  <SCORE.heavy>
42

>  <SCORE.norm>
-0.405683

>  <RMSD>
4.830

$$$$
lig.pdb
 OpenBabel11021811453D
libRbt.so/2013.1/901 2013/11/27
 42 45  0  0  0  0  0  0  0  0999 V2000
    3.7565    3.4952   -2.3565 C   0  0  2  0  0  0  0  0  0  0  0  0
    4.3267    2.9573   -1.1620 O   0  0  0  0  0  0  0  0  0  0  0  0
    4.8542    3.9452   -3.3323 C   0  0  2  0  0  0  0  0  0  0  0  0
    5.7953    2.8454   -3.6138 N   0  0  0  0  0  0  0  0  0  0  0  0
    5.5929    5.1790   -2.7980 C   0  0  1  0  0  0  0  0  0  0  0  0
    6.4875    5.6550   -3.7853 O   0  0  0  0  0  0  0  0  0  0  0  0
    4.5902    6.2873   -2.4430 C   0  0  2  0  0  0  0  0  0  0  0  0
    5.2730    7.3508   -1.8073 O   0  0  0  0  0  0  0  0  0  0  0  0
    3.4694    5.7624   -1.5229 C   0  0  2  0  0  0  0  0  0  0  0  0
    2.8786    4.5767   -2.0540 O   0  0  0  0  0  0  0  0  0  0  0  0
    2.4001    6.8639   -1.3943 C   0  0  0  0  0  0  0  0  0  0  0  0
    1.4294    6.8137   -2.4739 O   0  0  0  0  0  0  0  0  0  0  0  0
    1.8413   -0.3961   -0.1092 C   0  0  2  0  0  0  0  0  0  0  0  0
    1.1756   -1.2782    0.8701 N   0  0  0  0  0  0  0  0  0  0  0  0
    3.3592   -0.4365    0.0841 C   0  0  0  0  0  0  0  0  0  0  0  0
    4.0436    0.5757   -0.8268 C   0  0  2  0  0  0  0  0  0  0  0  0
    5.5024    0.4612   -0.7062 N   0  0  0  0  0  0  0  0  0  0  0  0
    3.5400    1.9891   -0.4526 C   0  0  2  0  0  0  0  0  0  0  0  0
    2.0869    2.0795   -0.7927 C   0  0  2  0  0  0  0  0  0  0  0  0
    1.6566    3.3920   -0.4817 O   0  0  0  0  0  0  0  0  0  0  0  0
    1.3116    1.0459    0.0023 C   0  0  1  0  0  0  0  0  0  0  0  0
   -0.0609    1.0299   -0.3427 O   0  0  0  0  0  0  0  0  0  0  0  0
    0.3018    3.7291   -0.7603 C   0  0  1  0  0  0  0  0  0  0  0  0
   -0.4972    3.5617    0.5339 C   0  0  2  0  0  0  0  0  0  0  0  0
   -1.7904    3.0760    0.2261 O   0  0  0  0  0  0  0  0  0  0  0  0
   -0.5146    4.9886    1.0986 C   0  0  2  0  0  0  0  0  0  0  0  0
   -1.5773    5.2029    2.0279 O   0  0  0  0  0  0  0  0  0  0  0  0
   -0.6272    5.7889   -0.2047 C   0  0  2  0  0  0  0  0  0  0  0  0
    0.2149    5.1022   -1.1199 O   0  0  0  0  0  0  0  0  0  0  0  0
   -0.1608    7.2453   -0.0955 C   0  0  0  0  0  0  0  0  0  0  0  0
   -0.9003    7.9569    0.8740 O   0  0  0  0  0  0  0  0  0  0  0  0
   -1.5094    4.3994    3.2043 C   0  0  2  0  0  0  0  0  0  0  0  0
   -2.8453    4.3838    3.9626 C   0  0  2  0  0  0  0  0  0  0  0  0
   -3.9447    3.9528    3.0830 N   0  0  0  0  0  0  0  0  0  0  0  0
   -3.1374    5.7509    4.5992 C   0  0  1  0  0  0  0  0  0  0  0  0
   -4.3306    5.6526    5.3524 O   0  0  0  0  0  0  0  0  0  0  0  0
   -1.9599    6.1217    5.5167 C   0  0  2  0  0  0  0  0  0  0  0  0
   -2.1592    7.3974    6.0974 O   0  0  0  0  0  0  0  0  0  0  0  0
   -0.6247    6.0834    4.7452 C   0  0  1  0  0  0  0  0  0  0  0  0
   -0.4546    4.8433    4.0548 O   0  0  0  0  0  0  0  0  0  0  0  0
   -0.4237    7.2896    3.8158 C   0  0  0  0  0  0  0  0  0  0  0  0
   -0.4581    8.5557    4.5656 N   0  0  0  0  0  0  0  0  0  0  0  0
  1  3  1  0  0  0  0
  1  2  1  1  0  0  0
  3  4  1  1  0  0  0
  5  6  1  6  0  0  0
  5  3  1  0  0  0  0
  7  9  1  0  0  0  0
  7  5  1  0  0  0  0
  7  8  1  1  0  0  0
  9 10  1  0  0  0  0
  9 11  1  6  0  0  0
 10  1  1  0  0  0  0
 11 12  1  0  0  0  0
 13 14  1  1  0  0  0
 13 21  1  0  0  0  0
 15 13  1  0  0  0  0
 16 15  1  0  0  0  0
 16 18  1  0  0  0  0
 16 17  1  1  0  0  0
 18  2  1  6  0  0  0
 18 19  1  0  0  0  0
 19 21  1  0  0  0  0
 19 20  1  1  0  0  0
 21 22  1  6  0  0  0
 23 20  1  1  0  0  0
 23 29  1  0  0  0  0
 23 24  1  0  0  0  0
 24 26  1  0  0  0  0
 24 25  1  6  0  0  0
 26 27  1  1  0  0  0
 28 26  1  0  0  0  0
 28 30  1  1  0  0  0
 29 28  1  0  0  0  0
 30 31  1  0  0  0  0
 32 27  1  6  0  0  0
 32 40  1  0  0  0  0
 32 33  1  0  0  0  0
 33 35  1  0  0  0  0
 33 34  1  6  0  0  0
 35 37  1  0  0  0  0
 35 36  1  1  0  0  0
 37 38  1  6  0  0  0
 39 37  1  0  0  0  0
 39 41  1  6  0  0  0
 40 39  1  0  0  0  0
 42 41  1  0  0  0  0
M  END
>  <CHROM.1>
98.75056578,-152.92393644,-111.23802054,-171.20355043,-166.60490312,68.56571950
85.87747463,-168.76210419,-144.99353662,178.21181592,96.86643366,-58.63900164
-53.35829776,62.85275806,-164.21075288,-59.14815568,29.38919211,66.16928642
-61.60461299,51.08428330,58.97317252,85.64831506,1.12037191,4.34274421,0.48513602
-0.28277287,0.74477264,0.00585473

>  <Name>
lig.pdb

>  <RI>
3.17932e+07

>  <Rbt.Current_Directory>
/home/itssahil/PROJECTS/Mol_Feturizer/New_Systems/rnas/2mxs

>  <Rbt.Executable>
rbdock ($Id: //depot/dev/client3/rdock/2013.1/src/exe/rbdock.cxx#4 $)

>  <Rbt.Library>
libRbt.so (2013.1, Build901 2013/11/27)

>  <Rbt.Parameter_File>
/export/apps/rDock/src/rDock_2013.1_src/data/scripts/dock_solv.prm

>  <Rbt.Receptor>
prm/blind_docking_100.prm

>  <SCORE>
13.7077

>  <SCORE.INTER>
-21.7107

>  <SCORE.INTER.CONST>
1

>  <SCORE.INTER.POLAR>
-2.9013

>  <SCORE.INTER.ROT>
9

>  <SCORE.INTER.SOLV>
28.4147

>  <SCORE.INTER.VDW>
-23.8744

>  <SCORE.INTER.norm>
-0.516921

>  <SCORE.INTRA>
10.896

>  <SCORE.INTRA.DIHEDRAL>
0.350914

>  <SCORE.INTRA.DIHEDRAL.0>
30.1357

>  <SCORE.INTRA.POLAR>
-1.56897

>  <SCORE.INTRA.POLAR.0>
-0.631696

>  <SCORE.INTRA.REPUL>
0.23063

>  <SCORE.INTRA.REPUL.0>
0

>  <SCORE.INTRA.SOLV>
3.38506

>  <SCORE.INTRA.SOLV.lig_0>
-55.904

>  <SCORE.INTRA.VDW>
13.2094

>  <SCORE.INTRA.VDW.0>
-8.21197

>  <SCORE.INTRA.norm>
0.259429

>  <SCORE.RESTR>
24.5224

>  <SCORE.RESTR.CAVITY>
24.5224

>  <SCORE.RESTR.norm>
0.583866

>  <SCORE.SYSTEM>
0

>  <SCORE.SYSTEM.CONST>
0

>  <SCORE.SYSTEM.DIHEDRAL>
0

>  <SCORE.SYSTEM.SOLV>
0

>  <SCORE.SYSTEM.norm>
0

>  <SCORE.heavy>
42

>  <SCORE.norm>
0.326374

>  <RMSD>
4.864

$$$$
lig.pdb
 OpenBabel11021811453D
libRbt.so/2013.1/901 2013/11/27
 42 45  0  0  0  0  0  0  0  0999 V2000
   -0.5355    1.4487    1.1194 C   0  0  2  0  0  0  0  0  0  0  0  0
    0.4865    2.3870    0.7782 O   0  0  0  0  0  0  0  0  0  0  0  0
    0.0475    0.0357    1.2711 C   0  0  2  0  0  0  0  0  0  0  0  0
    1.1580    0.0228    2.2412 N   0  0  0  0  0  0  0  0  0  0  0  0
    0.4948   -0.5232   -0.0857 C   0  0  1  0  0  0  0  0  0  0  0  0
    0.8820   -1.8753    0.0678 O   0  0  0  0  0  0  0  0  0  0  0  0
   -0.6535   -0.4350   -1.1023 C   0  0  2  0  0  0  0  0  0  0  0  0
   -0.1762   -0.8055   -2.3815 O   0  0  0  0  0  0  0  0  0  0  0  0
   -1.2504    0.9859   -1.1592 C   0  0  2  0  0  0  0  0  0  0  0  0
   -1.5771    1.4610    0.1464 O   0  0  0  0  0  0  0  0  0  0  0  0
   -2.5215    0.9368   -2.0282 C   0  0  0  0  0  0  0  0  0  0  0  0
   -3.4208   -0.1299   -1.6237 O   0  0  0  0  0  0  0  0  0  0  0  0
    0.3108    6.6840    0.5870 C   0  0  2  0  0  0  0  0  0  0  0  0
   -0.3350    7.9536    0.1980 N   0  0  0  0  0  0  0  0  0  0  0  0
    0.6195    5.8422   -0.6537 C   0  0  0  0  0  0  0  0  0  0  0  0
    1.1562    4.4730   -0.2536 C   0  0  2  0  0  0  0  0  0  0  0  0
    1.5412    3.7106   -1.4480 N   0  0  0  0  0  0  0  0  0  0  0  0
    0.0711    3.7453    0.5738 C   0  0  2  0  0  0  0  0  0  0  0  0
   -0.1155    4.4817    1.8615 C   0  0  2  0  0  0  0  0  0  0  0  0
   -1.0809    3.7767    2.6202 O   0  0  0  0  0  0  0  0  0  0  0  0
   -0.5716    5.9002    1.5767 C   0  0  1  0  0  0  0  0  0  0  0  0
   -0.6835    6.6701    2.7590 O   0  0  0  0  0  0  0  0  0  0  0  0
   -0.6836    3.2658    3.8883 C   0  0  1  0  0  0  0  0  0  0  0  0
   -0.2994    4.4545    4.7718 C   0  0  2  0  0  0  0  0  0  0  0  0
    0.7845    4.0878    5.6045 O   0  0  0  0  0  0  0  0  0  0  0  0
   -1.5925    4.7154    5.5558 C   0  0  2  0  0  0  0  0  0  0  0  0
   -1.3694    5.4396    6.7660 O   0  0  0  0  0  0  0  0  0  0  0  0
   -2.0820    3.2747    5.7481 C   0  0  2  0  0  0  0  0  0  0  0  0
   -1.7903    2.6305    4.5159 O   0  0  0  0  0  0  0  0  0  0  0  0
   -3.5832    3.1488    6.0326 C   0  0  0  0  0  0  0  0  0  0  0  0
   -3.8408    3.0085    7.4135 O   0  0  0  0  0  0  0  0  0  0  0  0
   -0.7344    4.6892    7.7993 C   0  0  2  0  0  0  0  0  0  0  0  0
   -1.3545    4.9749    9.1755 C   0  0  2  0  0  0  0  0  0  0  0  0
   -2.8076    4.7373    9.1575 N   0  0  0  0  0  0  0  0  0  0  0  0
   -1.0233    6.3984    9.6481 C   0  0  1  0  0  0  0  0  0  0  0  0
   -1.5442    6.5742   10.9514 O   0  0  0  0  0  0  0  0  0  0  0  0
    0.5060    6.5629    9.6614 C   0  0  2  0  0  0  0  0  0  0  0  0
    0.8656    7.8760   10.0499 O   0  0  0  0  0  0  0  0  0  0  0  0
    1.1103    6.2241    8.2831 C   0  0  1  0  0  0  0  0  0  0  0  0
    0.6678    4.9472    7.8173 O   0  0  0  0  0  0  0  0  0  0  0  0
    0.8906    7.3248    7.2348 C   0  0  0  0  0  0  0  0  0  0  0  0
   -0.5004    7.8058    7.2459 N   0  0  0  0  0  0  0  0  0  0  0  0
  1  3  1  0  0  0  0
  1  2  1  6  0  0  0
  3  4  1  1  0  0  0
  5  6  1  1  0  0  0
  5  3  1  0  0  0  0
  7  9  1  0  0  0  0
  7  5  1  0  0  0  0
  7  8  1  6  0  0  0
  9 10  1  0  0  0  0
  9 11  1  6  0  0  0
 10  1  1  0  0  0  0
 11 12  1  0  0  0  0
 13 14  1  6  0  0  0
 13 21  1  0  0  0  0
 15 13  1  0  0  0  0
 16 15  1  0  0  0  0
 16 18  1  0  0  0  0
 16 17  1  6  0  0  0
 18  2  1  1  0  0  0
 18 19  1  0  0  0  0
 19 21  1  0  0  0  0
 19 20  1  1  0  0  0
 21 22  1  1  0  0  0
 23 20  1  6  0  0  0
 23 29  1  0  0  0  0
 23 24  1  0  0  0  0
 24 26  1  0  0  0  0
 24 25  1  1  0  0  0
 26 27  1  1  0  0  0
 28 26  1  0  0  0  0
 28 30  1  6  0  0  0
 29 28  1  0  0  0  0
 30 31  1  0  0  0  0
 32 27  1  6  0  0  0
 32 40  1  0  0  0  0
 32 33  1  0  0  0  0
 33 35  1  0  0  0  0
 33 34  1  6  0  0  0
 35 37  1  0  0  0  0
 35 36  1  1  0  0  0
 37 38  1  6  0  0  0
 39 37  1  0  0  0  0
 39 41  1  6  0  0  0
 40 39  1  0  0  0  0
 42 41  1  0  0  0  0
M  END
>  <CHROM.1>
-159.94410147,178.52841553,179.79118160,-179.06872967,-56.33876204,179.87412495
50.12456537,-168.29574551,-163.72025303,119.47585917,62.35571682,-36.50477699
179.30000829,-72.21559994,-138.86456239,-98.29590708,-67.46397771,41.79412361
-61.59398645,59.48273280,-46.07611922,-174.63185028,-0.59817910,3.78135308
3.64544179,1.48249072,-1.21585215,-2.13985066

>  <Name>
lig.pdb

>  <RI>
0

>  <Rbt.Current_Directory>
/home/itssahil/PROJECTS/Mol_Feturizer/New_Systems/rnas/2mxs

>  <Rbt.Executable>
rbdock ($Id: //depot/dev/client3/rdock/2013.1/src/exe/rbdock.cxx#4 $)

>  <Rbt.Library>
libRbt.so (2013.1, Build901 2013/11/27)

>  <Rbt.Parameter_File>
/export/apps/rDock/src/rDock_2013.1_src/data/scripts/dock_solv.prm

>  <Rbt.Receptor>
prm/pocket_docking_4.prm

>  <SCORE>
-32.0924

>  <SCORE.INTER>
-30.3302

>  <SCORE.INTER.CONST>
1

>  <SCORE.INTER.POLAR>
-4.26229

>  <SCORE.INTER.ROT>
9

>  <SCORE.INTER.SOLV>
13.591

>  <SCORE.INTER.VDW>
-20.1429

>  <SCORE.INTER.norm>
-0.722148

>  <SCORE.INTRA>
-1.77664

>  <SCORE.INTRA.DIHEDRAL>
-4.94486

>  <SCORE.INTRA.DIHEDRAL.0>
30.1357

>  <SCORE.INTRA.POLAR>
-1.8602

>  <SCORE.INTRA.POLAR.0>
-0.631696

>  <SCORE.INTRA.REPUL>
0

>  <SCORE.INTRA.REPUL.0>
0

>  <SCORE.INTRA.SOLV>
2.74424

>  <SCORE.INTRA.SOLV.lig_0>
-55.904

>  <SCORE.INTRA.VDW>
5.64836

>  <SCORE.INTRA.VDW.0>
-8.21197

>  <SCORE.INTRA.norm>
-0.042301

>  <SCORE.RESTR>
0.0145085

>  <SCORE.RESTR.CAVITY>
0.0145085

>  <SCORE.RESTR.norm>
0.000345441

>  <SCORE.SYSTEM>
0

>  <SCORE.SYSTEM.CONST>
0

>  <SCORE.SYSTEM.DIHEDRAL>
0

>  <SCORE.SYSTEM.SOLV>
0

>  <SCORE.SYSTEM.norm>
0

>  <SCORE.heavy>
42

>  <SCORE.norm>
-0.764104

>  <RMSD>
4.933

$$$$
lig.pdb
 OpenBabel11021811453D
libRbt.so/2013.1/901 2013/11/27
 42 45  0  0  0  0  0  0  0  0999 V2000
   -0.9894    1.2344    1.5932 C   0  0  2  0  0  0  0  0  0  0  0  0
   -0.1388    2.3792    1.5076 O   0  0  0  0  0  0  0  0  0  0  0  0
   -0.1625   -0.0593    1.6412 C   0  0  2  0  0  0  0  0  0  0  0  0
    0.8224   -0.0173    2.7378 N   0  0  0  0  0  0  0  0  0  0  0  0
    0.5232   -0.3239    0.2946 C   0  0  1  0  0  0  0  0  0  0  0  0
    1.1470   -1.5933    0.3267 O   0  0  0  0  0  0  0  0  0  0  0  0
   -0.5083   -0.2923   -0.8432 C   0  0  2  0  0  0  0  0  0  0  0  0
    0.1621   -0.3797   -2.0859 O   0  0  0  0  0  0  0  0  0  0  0  0
   -1.3602    0.9925   -0.7988 C   0  0  2  0  0  0  0  0  0  0  0  0
   -1.9067    1.2046    0.5025 O   0  0  0  0  0  0  0  0  0  0  0  0
   -2.5003    0.8470   -1.8245 C   0  0  0  0  0  0  0  0  0  0  0  0
   -3.2036   -0.4166   -1.6862 O   0  0  0  0  0  0  0  0  0  0  0  0
   -1.1169    6.3915    2.7223 C   0  0  2  0  0  0  0  0  0  0  0  0
   -1.9108    7.6330    2.6283 N   0  0  0  0  0  0  0  0  0  0  0  0
   -0.4102    6.1102    1.3939 C   0  0  0  0  0  0  0  0  0  0  0  0
    0.2963    4.7604    1.4370 C   0  0  2  0  0  0  0  0  0  0  0  0
    1.0515    4.5437    0.1967 N   0  0  0  0  0  0  0  0  0  0  0  0
   -0.7653    3.6601    1.6692 C   0  0  2  0  0  0  0  0  0  0  0  0
   -1.3432    3.8408    3.0363 C   0  0  2  0  0  0  0  0  0  0  0  0
   -2.2808    2.8004    3.2441 O   0  0  0  0  0  0  0  0  0  0  0  0
   -2.0048    5.2024    3.1347 C   0  0  1  0  0  0  0  0  0  0  0  0
   -2.4968    5.4614    4.4362 O   0  0  0  0  0  0  0  0  0  0  0  0
   -2.0404    1.8957    4.3168 C   0  0  1  0  0  0  0  0  0  0  0  0
   -0.6045    2.1131    4.7988 C   0  0  2  0  0  0  0  0  0  0  0  0
   -0.0481    0.8712    5.1873 O   0  0  0  0  0  0  0  0  0  0  0  0
   -0.7939    3.0770    5.9779 C   0  0  2  0  0  0  0  0  0  0  0  0
    0.3070    3.0623    6.8870 O   0  0  0  0  0  0  0  0  0  0  0  0
   -2.1106    2.5393    6.5518 C   0  0  2  0  0  0  0  0  0  0  0  0
   -2.8916    2.2139    5.4105 O   0  0  0  0  0  0  0  0  0  0  0  0
   -2.8830    3.5451    7.4134 C   0  0  0  0  0  0  0  0  0  0  0  0
   -3.5471    4.5065    6.6212 O   0  0  0  0  0  0  0  0  0  0  0  0
    0.1482    3.9050    8.0266 C   0  0  2  0  0  0  0  0  0  0  0  0
    1.5015    4.3721    8.5840 C   0  0  2  0  0  0  0  0  0  0  0  0
    2.3021    5.0311    7.5386 N   0  0  0  0  0  0  0  0  0  0  0  0
    2.2676    3.2069    9.2282 C   0  0  1  0  0  0  0  0  0  0  0  0
    3.4603    3.7107    9.7976 O   0  0  0  0  0  0  0  0  0  0  0  0
    1.3797    2.5856   10.3198 C   0  0  2  0  0  0  0  0  0  0  0  0
    2.0237    1.4758   10.9183 O   0  0  0  0  0  0  0  0  0  0  0  0
    0.0094    2.1690    9.7470 C   0  0  1  0  0  0  0  0  0  0  0  0
   -0.6099    3.2443    9.0374 O   0  0  0  0  0  0  0  0  0  0  0  0
    0.0656    0.8845    8.9070 C   0  0  0  0  0  0  0  0  0  0  0  0
    1.3567    0.7543    8.2123 N   0  0  0  0  0  0  0  0  0  0  0  0
  1  3  1  0  0  0  0
  1  2  1  6  0  0  0
  3  4  1  1  0  0  0
  5  6  1  1  0  0  0
  5  3  1  0  0  0  0
  7  9  1  0  0  0  0
  7  5  1  0  0  0  0
  7  8  1  6  0  0  0
  9 10  1  0  0  0  0
  9 11  1  6  0  0  0
 10  1  1  0  0  0  0
 11 12  1  0  0  0  0
 13 14  1  6  0  0  0
 13 21  1  0  0  0  0
 15 13  1  0  0  0  0
 16 15  1  0  0  0  0
 16 18  1  0  0  0  0
 16 17  1  6  0  0  0
 18  2  1  1  0  0  0
 18 19  1  0  0  0  0
 19 21  1  0  0  0  0
 19 20  1  6  0  0  0
 21 22  1  1  0  0  0
 23 20  1  6  0  0  0
 23 29  1  0  0  0  0
 23 24  1  0  0  0  0
 24 26  1  0  0  0  0
 24 25  1  1  0  0  0
 26 27  1  1  0  0  0
 28 26  1  0  0  0  0
 28 30  1  6  0  0  0
 29 28  1  0  0  0  0
 30 31  1  0  0  0  0
 32 27  1  6  0  0  0
 32 40  1  0  0  0  0
 32 33  1  0  0  0  0
 33 35  1  0  0  0  0
 33 34  1  6  0  0  0
 35 37  1  0  0  0  0
 35 36  1  1  0  0  0
 37 38  1  6  0  0  0
 39 37  1  0  0  0  0
 39 41  1  6  0  0  0
 40 39  1  0  0  0  0
 42 41  1  0  0  0  0
M  END
>  <CHROM.1>
-175.75322554,-170.39567130,175.41585030,-69.21506300,-43.04093513,175.41084917
49.50123068,-56.96560175,69.12819212,118.79847961,-12.74851931,64.20385553
-62.33022879,-177.61856802,-153.04186497,76.54730379,-51.59435284,-68.07605590
63.97754409,175.87252188,-32.07525887,177.06401751,-0.45091958,2.58722291
4.25620831,-2.01971734,-1.13466579,0.96097849

>  <Name>
lig.pdb

>  <RI>
0

>  <Rbt.Current_Directory>
/home/itssahil/PROJECTS/Mol_Feturizer/New_Systems/rnas/2mxs

>  <Rbt.Executable>
rbdock ($Id: //depot/dev/client3/rdock/2013.1/src/exe/rbdock.cxx#4 $)

>  <Rbt.Library>
libRbt.so (2013.1, Build901 2013/11/27)

>  <Rbt.Parameter_File>
/export/apps/rDock/src/rDock_2013.1_src/data/scripts/dock_solv.prm

>  <Rbt.Receptor>
prm/pocket_docking_3.prm

>  <SCORE>
-29.4186

>  <SCORE.INTER>
-28.5091

>  <SCORE.INTER.CONST>
1

>  <SCORE.INTER.POLAR>
-3.64576

>  <SCORE.INTER.ROT>
9

>  <SCORE.INTER.SOLV>
15.0158

>  <SCORE.INTER.VDW>
-21.4588

>  <SCORE.INTER.norm>
-0.678787

>  <SCORE.INTRA>
-1.72935

>  <SCORE.INTRA.DIHEDRAL>
-5.78728

>  <SCORE.INTRA.DIHEDRAL.0>
30.1357

>  <SCORE.INTRA.POLAR>
-2.4914

>  <SCORE.INTRA.POLAR.0>
-0.631696

>  <SCORE.INTRA.REPUL>
0

>  <SCORE.INTRA.REPUL.0>
0

>  <SCORE.INTRA.SOLV>
4.06254

>  <SCORE.INTRA.SOLV.lig_0>
-55.904

>  <SCORE.INTRA.VDW>
7.6038

>  <SCORE.INTRA.VDW.0>
-8.21197

>  <SCORE.INTRA.norm>
-0.0411749

>  <SCORE.RESTR>
0.819749

>  <SCORE.RESTR.CAVITY>
0.819749

>  <SCORE.RESTR.norm>
0.0195178

>  <SCORE.SYSTEM>
0

>  <SCORE.SYSTEM.CONST>
0

>  <SCORE.SYSTEM.DIHEDRAL>
0

>  <SCORE.SYSTEM.SOLV>
0

>  <SCORE.SYSTEM.norm>
0

>  <SCORE.heavy>
42

>  <SCORE.norm>
-0.700444

>  <RMSD>
4.948

$$$$
lig.pdb
 OpenBabel11021811453D
libRbt.so/2013.1/901 2013/11/27
 42 45  0  0  0  0  0  0  0  0999 V2000
   -0.7122    0.2143    1.8796 C   0  0  2  0  0  0  0  0  0  0  0  0
   -0.1368    0.9452    0.7952 O   0  0  0  0  0  0  0  0  0  0  0  0
   -0.9591   -1.2491    1.4831 C   0  0  2  0  0  0  0  0  0  0  0  0
    0.2780   -1.8783    0.9851 N   0  0  0  0  0  0  0  0  0  0  0  0
   -2.0865   -1.3557    0.4481 C   0  0  1  0  0  0  0  0  0  0  0  0
   -2.3890   -2.7191    0.2219 O   0  0  0  0  0  0  0  0  0  0  0  0
   -3.3437   -0.6326    0.9544 C   0  0  2  0  0  0  0  0  0  0  0  0
   -4.3147   -0.6054   -0.0741 O   0  0  0  0  0  0  0  0  0  0  0  0
   -3.0243    0.8060    1.4090 C   0  0  2  0  0  0  0  0  0  0  0  0
   -1.9225    0.8279    2.3160 O   0  0  0  0  0  0  0  0  0  0  0  0
   -4.2769    1.3798    2.0981 C   0  0  0  0  0  0  0  0  0  0  0  0
   -4.1443    2.7981    2.3828 O   0  0  0  0  0  0  0  0  0  0  0  0
    0.0158    5.1858    0.0706 C   0  0  2  0  0  0  0  0  0  0  0  0
   -0.5752    6.5390    0.0768 N   0  0  0  0  0  0  0  0  0  0  0  0
   -0.8016    4.2524   -0.8257 C   0  0  0  0  0  0  0  0  0  0  0  0
   -0.2825    2.8228   -0.7273 C   0  0  2  0  0  0  0  0  0  0  0  0
   -1.0079    1.9545   -1.6630 N   0  0  0  0  0  0  0  0  0  0  0  0
   -0.4307    2.3486    0.7372 C   0  0  2  0  0  0  0  0  0  0  0  0
    0.4915    3.1574    1.5922 C   0  0  2  0  0  0  0  0  0  0  0  0
    0.3712    2.6800    2.9197 O   0  0  0  0  0  0  0  0  0  0  0  0
    0.1163    4.6245    1.5014 C   0  0  1  0  0  0  0  0  0  0  0  0
    1.0104    5.4476    2.2267 O   0  0  0  0  0  0  0  0  0  0  0  0
   -0.8835    2.8439    3.5722 C   0  0  1  0  0  0  0  0  0  0  0  0
   -0.8203    2.0912    4.9029 C   0  0  2  0  0  0  0  0  0  0  0  0
   -2.0857    1.5206    5.1785 O   0  0  0  0  0  0  0  0  0  0  0  0
   -0.4376    3.2003    5.8922 C   0  0  2  0  0  0  0  0  0  0  0  0
   -0.7767    2.8793    7.2416 O   0  0  0  0  0  0  0  0  0  0  0  0
   -1.2222    4.3737    5.2925 C   0  0  2  0  0  0  0  0  0  0  0  0
   -1.0828    4.2162    3.8874 O   0  0  0  0  0  0  0  0  0  0  0  0
   -0.6966    5.7571    5.6930 C   0  0  0  0  0  0  0  0  0  0  0  0
    0.4991    6.0759    5.0134 O   0  0  0  0  0  0  0  0  0  0  0  0
   -0.1650    1.6919    7.7417 C   0  0  2  0  0  0  0  0  0  0  0  0
   -1.0829    0.9468    8.7227 C   0  0  2  0  0  0  0  0  0  0  0  0
   -2.3880    0.6571    8.1056 N   0  0  0  0  0  0  0  0  0  0  0  0
   -1.2427    1.7287   10.0352 C   0  0  1  0  0  0  0  0  0  0  0  0
   -2.0236    0.9578   10.9278 O   0  0  0  0  0  0  0  0  0  0  0  0
    0.1551    1.9733   10.6288 C   0  0  2  0  0  0  0  0  0  0  0  0
    0.0676    2.7303   11.8220 O   0  0  0  0  0  0  0  0  0  0  0  0
    1.0728    2.6787    9.6091 C   0  0  1  0  0  0  0  0  0  0  0  0
    1.0865    1.9925    8.3552 O   0  0  0  0  0  0  0  0  0  0  0  0
    0.7615    4.1733    9.4418 C   0  0  0  0  0  0  0  0  0  0  0  0
    0.9940    4.9128   10.6929 N   0  0  0  0  0  0  0  0  0  0  0  0
  1  3  1  0  0  0  0
  1  2  1  6  0  0  0
  3  4  1  6  0  0  0
  5  6  1  1  0  0  0
  5  3  1  0  0  0  0
  7  9  1  0  0  0  0
  7  5  1  0  0  0  0
  7  8  1  6  0  0  0
  9 10  1  0  0  0  0
  9 11  1  1  0  0  0
 10  1  1  0  0  0  0
 11 12  1  0  0  0  0
 13 14  1  1  0  0  0
 13 21  1  0  0  0  0
 15 13  1  0  0  0  0
 16 15  1  0  0  0  0
 16 18  1  0  0  0  0
 16 17  1  6  0  0  0
 18  2  1  6  0  0  0
 18 19  1  0  0  0  0
 19 21  1  0  0  0  0
 19 20  1  1  0  0  0
 21 22  1  1  0  0  0
 23 20  1  1  0  0  0
 23 29  1  0  0  0  0
 23 24  1  0  0  0  0
 24 26  1  0  0  0  0
 24 25  1  1  0  0  0
 26 27  1  1  0  0  0
 28 26  1  0  0  0  0
 28 30  1  1  0  0  0
 29 28  1  0  0  0  0
 30 31  1  0  0  0  0
 32 27  1  1  0  0  0
 32 40  1  0  0  0  0
 32 33  1  0  0  0  0
 33 35  1  0  0  0  0
 33 34  1  6  0  0  0
 35 37  1  0  0  0  0
 35 36  1  1  0  0  0
 37 38  1  1  0  0  0
 39 37  1  0  0  0  0
 39 41  1  6  0  0  0
 40 39  1  0  0  0  0
 42 41  1  0  0  0  0
M  END
>  <CHROM.1>
-155.56782164,150.73456899,-39.42673227,-178.77104621,-62.25559971,166.73557539
-171.33423225,-35.09142295,-34.54597605,-64.78029920,172.53380352,170.25155690
53.21395899,59.11589185,-145.98459972,74.63328847,-52.55800107,-92.28556897
-62.04007768,62.00614631,63.41981948,-47.22430154,-0.93363159,2.26320100
4.14778098,1.93617509,-1.18256989,-1.38039408

>  <Name>
lig.pdb

>  <RI>
224

>  <Rbt.Current_Directory>
/home/itssahil/PROJECTS/Mol_Feturizer/New_Systems/rnas/2mxs

>  <Rbt.Executable>
rbdock ($Id: //depot/dev/client3/rdock/2013.1/src/exe/rbdock.cxx#4 $)

>  <Rbt.Library>
libRbt.so (2013.1, Build901 2013/11/27)

>  <Rbt.Parameter_File>
/export/apps/rDock/src/rDock_2013.1_src/data/scripts/dock_solv.prm

>  <Rbt.Receptor>
prm/pocket_docking_2.prm

>  <SCORE>
-23.7951

>  <SCORE.INTER>
-20.9868

>  <SCORE.INTER.CONST>
1

>  <SCORE.INTER.POLAR>
-3.56414

>  <SCORE.INTER.ROT>
9

>  <SCORE.INTER.SOLV>
15.3671

>  <SCORE.INTER.VDW>
-16.8331

>  <SCORE.INTER.norm>
-0.499687

>  <SCORE.INTRA>
-8.34193

>  <SCORE.INTRA.DIHEDRAL>
-9.76138

>  <SCORE.INTRA.DIHEDRAL.0>
30.1357

>  <SCORE.INTRA.POLAR>
-2.6653

>  <SCORE.INTRA.POLAR.0>
-0.631696

>  <SCORE.INTRA.REPUL>
0

>  <SCORE.INTRA.REPUL.0>
0

>  <SCORE.INTRA.SOLV>
2.80727

>  <SCORE.INTRA.SOLV.lig_0>
-55.904

>  <SCORE.INTRA.VDW>
4.19714

>  <SCORE.INTRA.VDW.0>
-8.21197

>  <SCORE.INTRA.norm>
-0.198617

>  <SCORE.RESTR>
5.53366

>  <SCORE.RESTR.CAVITY>
5.53366

>  <SCORE.RESTR.norm>
0.131754

>  <SCORE.SYSTEM>
0

>  <SCORE.SYSTEM.CONST>
0

>  <SCORE.SYSTEM.DIHEDRAL>
0

>  <SCORE.SYSTEM.SOLV>
0

>  <SCORE.SYSTEM.norm>
0

>  <SCORE.heavy>
42

>  <SCORE.norm>
-0.56655

>  <RMSD>
4.976

$$$$
lig.pdb
 OpenBabel11021811453D
libRbt.so/2013.1/901 2013/11/27
 42 45  0  0  0  0  0  0  0  0999 V2000
   -0.5971    5.0551    1.8035 C   0  0  2  0  0  0  0  0  0  0  0  0
   -0.1626    5.3933    0.4851 O   0  0  0  0  0  0  0  0  0  0  0  0
   -2.0932    4.7069    1.8141 C   0  0  2  0  0  0  0  0  0  0  0  0
   -2.3954    3.6414    0.8405 N   0  0  0  0  0  0  0  0  0  0  0  0
   -2.9495    5.9524    1.5513 C   0  0  1  0  0  0  0  0  0  0  0  0
   -4.3160    5.6268    1.7193 O   0  0  0  0  0  0  0  0  0  0  0  0
   -2.5700    7.0751    2.5286 C   0  0  2  0  0  0  0  0  0  0  0  0
   -3.2545    8.2600    2.1697 O   0  0  0  0  0  0  0  0  0  0  0  0
   -1.0492    7.3314    2.5324 C   0  0  2  0  0  0  0  0  0  0  0  0
   -0.3217    6.1170    2.7136 O   0  0  0  0  0  0  0  0  0  0  0  0
   -0.7306    8.3054    3.6826 C   0  0  0  0  0  0  0  0  0  0  0  0
   -0.6814    7.6350    4.9704 O   0  0  0  0  0  0  0  0  0  0  0  0
    2.6945    3.3320   -1.9886 C   0  0  2  0  0  0  0  0  0  0  0  0
    4.0208    2.7335   -2.2393 N   0  0  0  0  0  0  0  0  0  0  0  0
    2.8339    4.8257   -1.6841 C   0  0  0  0  0  0  0  0  0  0  0  0
    1.4881    5.4204   -1.2866 C   0  0  2  0  0  0  0  0  0  0  0  0
    1.6122    6.8705   -1.0923 N   0  0  0  0  0  0  0  0  0  0  0  0
    0.9957    4.7042   -0.0075 C   0  0  2  0  0  0  0  0  0  0  0  0
    0.7058    3.2769   -0.3460 C   0  0  2  0  0  0  0  0  0  0  0  0
    0.2177    2.6511    0.8264 O   0  0  0  0  0  0  0  0  0  0  0  0
    1.9715    2.6027   -0.8407 C   0  0  1  0  0  0  0  0  0  0  0  0
    1.7365    1.2701   -1.2556 O   0  0  0  0  0  0  0  0  0  0  0  0
    0.9860    2.7833    2.0177 C   0  0  1  0  0  0  0  0  0  0  0  0
    0.0165    2.7849    3.2015 C   0  0  2  0  0  0  0  0  0  0  0  0
    0.4971    3.6664    4.1989 O   0  0  0  0  0  0  0  0  0  0  0  0
    0.0339    1.3158    3.6450 C   0  0  2  0  0  0  0  0  0  0  0  0
   -0.3975    1.1401    4.9947 O   0  0  0  0  0  0  0  0  0  0  0  0
    1.5083    0.9789    3.3908 C   0  0  2  0  0  0  0  0  0  0  0  0
    1.8229    1.6446    2.1758 O   0  0  0  0  0  0  0  0  0  0  0  0
    1.7964   -0.5181    3.2274 C   0  0  0  0  0  0  0  0  0  0  0  0
    1.6380   -0.9349    1.8879 O   0  0  0  0  0  0  0  0  0  0  0  0
   -0.6055   -0.2171    5.3804 C   0  0  2  0  0  0  0  0  0  0  0  0
   -1.9900   -0.4249    6.0129 C   0  0  2  0  0  0  0  0  0  0  0  0
   -3.0559    0.0446    5.1121 N   0  0  0  0  0  0  0  0  0  0  0  0
   -2.0780    0.2519    7.3890 C   0  0  1  0  0  0  0  0  0  0  0  0
   -3.3385   -0.0446    7.9582 O   0  0  0  0  0  0  0  0  0  0  0  0
   -0.9512   -0.3031    8.2769 C   0  0  2  0  0  0  0  0  0  0  0  0
   -0.9605    0.3214    9.5475 O   0  0  0  0  0  0  0  0  0  0  0  0
    0.4236   -0.1269    7.5998 C   0  0  1  0  0  0  0  0  0  0  0  0
    0.4223   -0.6491    6.2692 O   0  0  0  0  0  0  0  0  0  0  0  0
    0.9459    1.3166    7.6490 C   0  0  0  0  0  0  0  0  0  0  0  0
    1.9928    1.5427    6.6395 N   0  0  0  0  0  0  0  0  0  0  0  0
  1  3  1  0  0  0  0
  1  2  1  6  0  0  0
  3  4  1  6  0  0  0
  5  6  1  1  0  0  0
  5  3  1  0  0  0  0
  7  9  1  0  0  0  0
  7  5  1  0  0  0  0
  7  8  1  6  0  0  0
  9 10  1  0  0  0  0
  9 11  1  1  0  0  0
 10  1  1  0  0  0  0
 11 12  1  0  0  0  0
 13 14  1  1  0  0  0
 13 21  1  0  0  0  0
 15 13  1  0  0  0  0
 16 15  1  0  0  0  0
 16 18  1  0  0  0  0
 16 17  1  1  0  0  0
 18  2  1  6  0  0  0
 18 19  1  0  0  0  0
 19 21  1  0  0  0  0
 19 20  1  1  0  0  0
 21 22  1  6  0  0  0
 23 20  1  6  0  0  0
 23 29  1  0  0  0  0
 23 24  1  0  0  0  0
 24 26  1  0  0  0  0
 24 25  1  1  0  0  0
 26 27  1  1  0  0  0
 28 26  1  0  0  0  0
 28 30  1  6  0  0  0
 29 28  1  0  0  0  0
 30 31  1  0  0  0  0
 32 27  1  1  0  0  0
 32 40  1  0  0  0  0
 32 33  1  0  0  0  0
 33 35  1  0  0  0  0
 33 34  1  6  0  0  0
 35 37  1  0  0  0  0
 35 36  1  1  0  0  0
 37 38  1  1  0  0  0
 39 37  1  0  0  0  0
 39 41  1  6  0  0  0
 40 39  1  0  0  0  0
 42 41  1  0  0  0  0
M  END
>  <CHROM.1>
-167.40132627,-128.50414745,160.42433257,69.32368789,-82.81980490,64.49425712
79.63338130,45.81160624,-50.36144860,-51.68924156,148.23209707,77.81671322
-178.42368608,170.28469866,-128.32174378,87.43835534,-166.60110688,89.77000916
70.41093889,61.95259729,-160.94241711,84.95015877,-0.11118369,3.02958226
2.95474769,1.33368215,0.87391310,-0.76154656

>  <Name>
lig.pdb

>  <RI>
0

>  <Rbt.Current_Directory>
/home/itssahil/PROJECTS/Mol_Feturizer/New_Systems/rnas/2mxs

>  <Rbt.Executable>
rbdock ($Id: //depot/dev/client3/rdock/2013.1/src/exe/rbdock.cxx#4 $)

>  <Rbt.Library>
libRbt.so (2013.1, Build901 2013/11/27)

>  <Rbt.Parameter_File>
/export/apps/rDock/src/rDock_2013.1_src/data/scripts/dock_solv.prm

>  <Rbt.Receptor>
prm/blind_docking_80.prm

>  <SCORE>
5.22738

>  <SCORE.INTER>
-12.8552

>  <SCORE.INTER.CONST>
1

>  <SCORE.INTER.POLAR>
-2.70399

>  <SCORE.INTER.ROT>
9

>  <SCORE.INTER.SOLV>
30.1739

>  <SCORE.INTER.VDW>
-19.2148

>  <SCORE.INTER.norm>
-0.306075

>  <SCORE.INTRA>
6.20181

>  <SCORE.INTRA.DIHEDRAL>
4.5569

>  <SCORE.INTRA.DIHEDRAL.0>
30.1357

>  <SCORE.INTRA.POLAR>
-0.679268

>  <SCORE.INTRA.POLAR.0>
-0.631696

>  <SCORE.INTRA.REPUL>
0

>  <SCORE.INTRA.REPUL.0>
0

>  <SCORE.INTRA.SOLV>
1.16383

>  <SCORE.INTRA.SOLV.lig_0>
-55.904

>  <SCORE.INTRA.VDW>
5.65095

>  <SCORE.INTRA.VDW.0>
-8.21197

>  <SCORE.INTRA.norm>
0.147662

>  <SCORE.RESTR>
11.8807

>  <SCORE.RESTR.CAVITY>
11.8807

>  <SCORE.RESTR.norm>
0.282875

>  <SCORE.SYSTEM>
0

>  <SCORE.SYSTEM.CONST>
0

>  <SCORE.SYSTEM.DIHEDRAL>
0

>  <SCORE.SYSTEM.SOLV>
0

>  <SCORE.SYSTEM.norm>
0

>  <SCORE.heavy>
42

>  <SCORE.norm>
0.124462

>  <RMSD>
4.977

$$$$
lig.pdb
 OpenBabel11021811453D
libRbt.so/2013.1/901 2013/11/27
 42 45  0  0  0  0  0  0  0  0999 V2000
   -2.1542    0.8475   -0.4078 C   0  0  2  0  0  0  0  0  0  0  0  0
   -1.0379    1.4524    0.2475 O   0  0  0  0  0  0  0  0  0  0  0  0
   -3.4583    1.1424    0.3486 C   0  0  2  0  0  0  0  0  0  0  0  0
   -3.6449    2.5931    0.5359 N   0  0  0  0  0  0  0  0  0  0  0  0
   -3.4931    0.4044    1.6931 C   0  0  1  0  0  0  0  0  0  0  0  0
   -4.7645    0.5748    2.2896 O   0  0  0  0  0  0  0  0  0  0  0  0
   -3.2253   -1.0939    1.4848 C   0  0  2  0  0  0  0  0  0  0  0  0
   -3.1045   -1.7276    2.7438 O   0  0  0  0  0  0  0  0  0  0  0  0
   -1.9461   -1.3300    0.6565 C   0  0  2  0  0  0  0  0  0  0  0  0
   -1.9587   -0.5578   -0.5438 O   0  0  0  0  0  0  0  0  0  0  0  0
   -1.8698   -2.8291    0.3100 C   0  0  0  0  0  0  0  0  0  0  0  0
   -1.9769   -3.6701    1.4897 O   0  0  0  0  0  0  0  0  0  0  0  0
    1.8739    4.1766   -1.3746 C   0  0  2  0  0  0  0  0  0  0  0  0
    2.2771    5.2983   -2.2461 N   0  0  0  0  0  0  0  0  0  0  0  0
    1.2986    3.0321   -2.2126 C   0  0  0  0  0  0  0  0  0  0  0  0
    0.7513    1.9304   -1.3129 C   0  0  2  0  0  0  0  0  0  0  0  0
    0.2917    0.7955   -2.1233 N   0  0  0  0  0  0  0  0  0  0  0  0
   -0.3859    2.5242   -0.4493 C   0  0  2  0  0  0  0  0  0  0  0  0
    0.2053    3.5314    0.4843 C   0  0  2  0  0  0  0  0  0  0  0  0
   -0.8440    4.0314    1.2927 O   0  0  0  0  0  0  0  0  0  0  0  0
    0.8603    4.6435   -0.3130 C   0  0  1  0  0  0  0  0  0  0  0  0
    1.5105    5.5837    0.5213 O   0  0  0  0  0  0  0  0  0  0  0  0
   -1.3509    3.1852    2.3193 C   0  0  1  0  0  0  0  0  0  0  0  0
   -0.1984    2.8663    3.2739 C   0  0  2  0  0  0  0  0  0  0  0  0
   -0.3331    1.5380    3.7431 O   0  0  0  0  0  0  0  0  0  0  0  0
   -0.3872    3.9122    4.3810 C   0  0  2  0  0  0  0  0  0  0  0  0
    0.2437    3.5404    5.6068 O   0  0  0  0  0  0  0  0  0  0  0  0
   -1.9188    3.9678    4.4357 C   0  0  2  0  0  0  0  0  0  0  0  0
   -2.3283    3.8863    3.0777 O   0  0  0  0  0  0  0  0  0  0  0  0
   -2.4840    5.2539    5.0498 C   0  0  0  0  0  0  0  0  0  0  0  0
   -2.0184    6.4018    4.3726 O   0  0  0  0  0  0  0  0  0  0  0  0
    0.1904    4.5344    6.6281 C   0  0  2  0  0  0  0  0  0  0  0  0
    1.2995    4.3391    7.6731 C   0  0  2  0  0  0  0  0  0  0  0  0
    2.6248    4.3005    7.0328 N   0  0  0  0  0  0  0  0  0  0  0  0
    1.0476    3.0830    8.5206 C   0  0  1  0  0  0  0  0  0  0  0  0
    2.0485    3.0024    9.5169 O   0  0  0  0  0  0  0  0  0  0  0  0
   -0.3404    3.2060    9.1718 C   0  0  2  0  0  0  0  0  0  0  0  0
   -0.6414    2.0505    9.9326 O   0  0  0  0  0  0  0  0  0  0  0  0
   -1.4305    3.4498    8.1079 C   0  0  1  0  0  0  0  0  0  0  0  0
   -1.0914    4.5438    7.2526 O   0  0  0  0  0  0  0  0  0  0  0  0
   -1.7949    2.1892    7.3097 C   0  0  0  0  0  0  0  0  0  0  0  0
   -0.5917    1.4441    6.9054 N   0  0  0  0  0  0  0  0  0  0  0  0
  1  3  1  0  0  0  0
  1  2  1  1  0  0  0
  3  4  1  1  0  0  0
  5  6  1  6  0  0  0
  5  3  1  0  0  0  0
  7  9  1  0  0  0  0
  7  5  1  0  0  0  0
  7  8  1  1  0  0  0
  9 10  1  0  0  0  0
  9 11  1  6  0  0  0
 10  1  1  0  0  0  0
 11 12  1  0  0  0  0
 13 14  1  6  0  0  0
 13 21  1  0  0  0  0
 15 13  1  0  0  0  0
 16 15  1  0  0  0  0
 16 18  1  0  0  0  0
 16 17  1  6  0  0  0
 18  2  1  1  0  0  0
 18 19  1  0  0  0  0
 19 21  1  0  0  0  0
 19 20  1  6  0  0  0
 21 22  1  1  0  0  0
 23 20  1  6  0  0  0
 23 29  1  0  0  0  0
 23 24  1  0  0  0  0
 24 26  1  0  0  0  0
 24 25  1  1  0  0  0
 26 27  1  1  0  0  0
 28 26  1  0  0  0  0
 28 30  1  6  0  0  0
 29 28  1  0  0  0  0
 30 31  1  0  0  0  0
 32 27  1  6  0  0  0
 32 40  1  0  0  0  0
 32 33  1  0  0  0  0
 33 35  1  0  0  0  0
 33 34  1  6  0  0  0
 35 37  1  0  0  0  0
 35 36  1  1  0  0  0
 37 38  1  6  0  0  0
 39 37  1  0  0  0  0
 39 41  1  6  0  0  0
 40 39  1  0  0  0  0
 42 41  1  0  0  0  0
M  END
>  <CHROM.1>
-90.87770900,-112.65647452,-97.21466347,-71.66351988,-62.90803782,-55.35796687
-53.31111553,-74.57004979,-51.17626898,74.08900213,60.27059284,-51.96899989
62.99708209,174.92125400,-157.75825238,56.36448358,167.20619815,143.68722391
-169.98404725,175.64276132,-44.23531973,-56.85944179,-0.80961212,2.41718830
3.05961799,1.78143611,-1.00351890,-1.66698049

>  <Name>
lig.pdb

>  <RI>
224

>  <Rbt.Current_Directory>
/home/itssahil/PROJECTS/Mol_Feturizer/New_Systems/rnas/2mxs

>  <Rbt.Executable>
rbdock ($Id: //depot/dev/client3/rdock/2013.1/src/exe/rbdock.cxx#4 $)

>  <Rbt.Library>
libRbt.so (2013.1, Build901 2013/11/27)

>  <Rbt.Parameter_File>
/export/apps/rDock/src/rDock_2013.1_src/data/scripts/dock_solv.prm

>  <Rbt.Receptor>
prm/pocket_docking_2.prm

>  <SCORE>
-17.6961

>  <SCORE.INTER>
-19.3251

>  <SCORE.INTER.CONST>
1

>  <SCORE.INTER.POLAR>
-3.18595

>  <SCORE.INTER.ROT>
9

>  <SCORE.INTER.SOLV>
13.8333

>  <SCORE.INTER.VDW>
-16.4747

>  <SCORE.INTER.norm>
-0.460121

>  <SCORE.INTRA>
-2.65999

>  <SCORE.INTRA.DIHEDRAL>
-6.42162

>  <SCORE.INTRA.DIHEDRAL.0>
30.1357

>  <SCORE.INTRA.POLAR>
-2.10901

>  <SCORE.INTRA.POLAR.0>
-0.631696

>  <SCORE.INTRA.REPUL>
0.00282138

>  <SCORE.INTRA.REPUL.0>
0

>  <SCORE.INTRA.SOLV>
2.74887

>  <SCORE.INTRA.SOLV.lig_0>
-55.904

>  <SCORE.INTRA.VDW>
6.33291

>  <SCORE.INTRA.VDW.0>
-8.21197

>  <SCORE.INTRA.norm>
-0.0633331

>  <SCORE.RESTR>
4.28896

>  <SCORE.RESTR.CAVITY>
4.28896

>  <SCORE.RESTR.norm>
0.102118

>  <SCORE.SYSTEM>
0

>  <SCORE.SYSTEM.CONST>
0

>  <SCORE.SYSTEM.DIHEDRAL>
0

>  <SCORE.SYSTEM.SOLV>
0

>  <SCORE.SYSTEM.norm>
0

>  <SCORE.heavy>
42

>  <SCORE.norm>
-0.421336

>  <RMSD>
5.019

$$$$
lig.pdb
 OpenBabel11021811453D
libRbt.so/2013.1/901 2013/11/27
 42 45  0  0  0  0  0  0  0  0999 V2000
   -0.7363    1.1779    1.3760 C   0  0  2  0  0  0  0  0  0  0  0  0
    0.1805    2.2444    1.1235 O   0  0  0  0  0  0  0  0  0  0  0  0
   -0.0033   -0.1706    1.4375 C   0  0  2  0  0  0  0  0  0  0  0  0
    1.0902   -0.1338    2.4262 N   0  0  0  0  0  0  0  0  0  0  0  0
    0.5191   -0.5763    0.0533 C   0  0  1  0  0  0  0  0  0  0  0  0
    1.0507   -1.8858    0.1172 O   0  0  0  0  0  0  0  0  0  0  0  0
   -0.6196   -0.5389   -0.9771 C   0  0  2  0  0  0  0  0  0  0  0  0
   -0.0891   -0.7603   -2.2698 O   0  0  0  0  0  0  0  0  0  0  0  0
   -1.3684    0.8088   -0.9438 C   0  0  2  0  0  0  0  0  0  0  0  0
   -1.7611    1.1483    0.3857 O   0  0  0  0  0  0  0  0  0  0  0  0
   -2.6159    0.6858   -1.8394 C   0  0  0  0  0  0  0  0  0  0  0  0
   -3.2462   -0.6180   -1.7246 O   0  0  0  0  0  0  0  0  0  0  0  0
   -0.2116    6.5233    1.3853 C   0  0  2  0  0  0  0  0  0  0  0  0
   -1.0026    7.7600    1.5436 N   0  0  0  0  0  0  0  0  0  0  0  0
   -0.6685    5.7550    0.1427 C   0  0  0  0  0  0  0  0  0  0  0  0
    0.0442    4.4110    0.0503 C   0  0  2  0  0  0  0  0  0  0  0  0
   -0.3263    3.7252   -1.1940 N   0  0  0  0  0  0  0  0  0  0  0  0
   -0.3187    3.5780    1.3016 C   0  0  2  0  0  0  0  0  0  0  0  0
    0.2678    4.2478    2.5028 C   0  0  2  0  0  0  0  0  0  0  0  0
   -0.0399    3.4484    3.6300 O   0  0  0  0  0  0  0  0  0  0  0  0
   -0.3135    5.6419    2.6444 C   0  0  1  0  0  0  0  0  0  0  0  0
    0.2699    6.3544    3.7190 O   0  0  0  0  0  0  0  0  0  0  0  0
   -1.3865    3.4441    4.0921 C   0  0  1  0  0  0  0  0  0  0  0  0
   -1.4662    2.4976    5.2918 C   0  0  2  0  0  0  0  0  0  0  0  0
   -2.7122    1.8269    5.2769 O   0  0  0  0  0  0  0  0  0  0  0  0
   -1.3193    3.4573    6.4803 C   0  0  2  0  0  0  0  0  0  0  0  0
   -1.8306    2.9130    7.6973 O   0  0  0  0  0  0  0  0  0  0  0  0
   -2.0914    4.6679    5.9414 C   0  0  2  0  0  0  0  0  0  0  0  0
   -1.7328    4.7384    4.5685 O   0  0  0  0  0  0  0  0  0  0  0  0
   -1.7364    5.9972    6.6177 C   0  0  0  0  0  0  0  0  0  0  0  0
   -2.3742    6.1302    7.8701 O   0  0  0  0  0  0  0  0  0  0  0  0
   -1.5529    3.6917    8.8595 C   0  0  2  0  0  0  0  0  0  0  0  0
   -0.1019    3.5141    9.3321 C   0  0  2  0  0  0  0  0  0  0  0  0
    0.8458    3.8164    8.2465 N   0  0  0  0  0  0  0  0  0  0  0  0
    0.1270    2.1063    9.9025 C   0  0  1  0  0  0  0  0  0  0  0  0
    1.4494    2.0296   10.3985 O   0  0  0  0  0  0  0  0  0  0  0  0
   -0.8809    1.8730   11.0408 C   0  0  2  0  0  0  0  0  0  0  0  0
   -0.7411    0.5693   11.5748 O   0  0  0  0  0  0  0  0  0  0  0  0
   -2.3266    2.1042   10.5549 C   0  0  1  0  0  0  0  0  0  0  0  0
   -2.4648    3.3712    9.9077 O   0  0  0  0  0  0  0  0  0  0  0  0
   -2.8693    0.9564    9.6908 C   0  0  0  0  0  0  0  0  0  0  0  0
   -3.7918    1.4533    8.6571 N   0  0  0  0  0  0  0  0  0  0  0  0
  1  3  1  0  0  0  0
  1  2  1  6  0  0  0
  3  4  1  1  0  0  0
  5  6  1  1  0  0  0
  5  3  1  0  0  0  0
  7  9  1  0  0  0  0
  7  5  1  0  0  0  0
  7  8  1  6  0  0  0
  9 10  1  0  0  0  0
  9 11  1  6  0  0  0
 10  1  1  0  0  0  0
 11 12  1  0  0  0  0
 13 14  1  1  0  0  0
 13 21  1  0  0  0  0
 15 13  1  0  0  0  0
 16 15  1  0  0  0  0
 16 18  1  0  0  0  0
 16 17  1  6  0  0  0
 18  2  1  6  0  0  0
 18 19  1  0  0  0  0
 19 21  1  0  0  0  0
 19 20  1  1  0  0  0
 21 22  1  1  0  0  0
 23 20  1  1  0  0  0
 23 29  1  0  0  0  0
 23 24  1  0  0  0  0
 24 26  1  0  0  0  0
 24 25  1  1  0  0  0
 26 27  1  1  0  0  0
 28 26  1  0  0  0  0
 28 30  1  1  0  0  0
 29 28  1  0  0  0  0
 30 31  1  0  0  0  0
 32 27  1  6  0  0  0
 32 40  1  0  0  0  0
 32 33  1  0  0  0  0
 33 35  1  0  0  0  0
 33 34  1  6  0  0  0
 35 37  1  0  0  0  0
 35 36  1  1  0  0  0
 37 38  1  6  0  0  0
 39 37  1  0  0  0  0
 39 41  1  6  0  0  0
 40 39  1  0  0  0  0
 42 41  1  0  0  0  0
M  END
>  <CHROM.1>
-130.72737034,-168.05690628,54.97790076,176.33966192,-45.60939661,177.31946595
38.47517579,-23.49793538,63.94880127,-72.61820981,179.08937177,172.79880733
-178.12453119,171.90077360,-77.21565769,-78.97074775,-178.11783787,168.83771836
179.54676923,-179.13123921,-146.72118436,-52.46519652,-0.92671914,2.69327905
4.21713201,0.12730613,-1.50779415,3.12753879

>  <Name>
lig.pdb

>  <RI>
0

>  <Rbt.Current_Directory>
/home/itssahil/PROJECTS/Mol_Feturizer/New_Systems/rnas/2mxs

>  <Rbt.Executable>
rbdock ($Id: //depot/dev/client3/rdock/2013.1/src/exe/rbdock.cxx#4 $)

>  <Rbt.Library>
libRbt.so (2013.1, Build901 2013/11/27)

>  <Rbt.Parameter_File>
/export/apps/rDock/src/rDock_2013.1_src/data/scripts/dock_solv.prm

>  <Rbt.Receptor>
prm/pocket_docking_4.prm

>  <SCORE>
-36.5383

>  <SCORE.INTER>
-35.5048

>  <SCORE.INTER.CONST>
1

>  <SCORE.INTER.POLAR>
-5.5229

>  <SCORE.INTER.ROT>
9

>  <SCORE.INTER.SOLV>
16.1054

>  <SCORE.INTER.VDW>
-20.2287

>  <SCORE.INTER.norm>
-0.845353

>  <SCORE.INTRA>
-1.03344

>  <SCORE.INTRA.DIHEDRAL>
-9.64596

>  <SCORE.INTRA.DIHEDRAL.0>
30.1357

>  <SCORE.INTRA.POLAR>
-0.54544

>  <SCORE.INTRA.POLAR.0>
-0.631696

>  <SCORE.INTRA.REPUL>
0.00342712

>  <SCORE.INTRA.REPUL.0>
0

>  <SCORE.INTRA.SOLV>
1.48657

>  <SCORE.INTRA.SOLV.lig_0>
-55.904

>  <SCORE.INTRA.VDW>
4.88361

>  <SCORE.INTRA.VDW.0>
-8.21197

>  <SCORE.INTRA.norm>
-0.0246057

>  <SCORE.RESTR>
0

>  <SCORE.RESTR.CAVITY>
0

>  <SCORE.RESTR.norm>
0

>  <SCORE.SYSTEM>
0

>  <SCORE.SYSTEM.CONST>
0

>  <SCORE.SYSTEM.DIHEDRAL>
0

>  <SCORE.SYSTEM.SOLV>
0

>  <SCORE.SYSTEM.norm>
0

>  <SCORE.heavy>
42

>  <SCORE.norm>
-0.869959

>  <RMSD>
5.035

$$$$
lig.pdb
 OpenBabel11021811453D
libRbt.so/2013.1/901 2013/11/27
 42 45  0  0  0  0  0  0  0  0999 V2000
   -1.7522    1.2584   -0.1055 C   0  0  2  0  0  0  0  0  0  0  0  0
   -1.1629    2.2312    0.7594 O   0  0  0  0  0  0  0  0  0  0  0  0
   -3.0546    0.7090    0.4958 C   0  0  2  0  0  0  0  0  0  0  0  0
   -3.9901    1.8019    0.8197 N   0  0  0  0  0  0  0  0  0  0  0  0
   -2.7684   -0.1553    1.7306 C   0  0  1  0  0  0  0  0  0  0  0  0
   -3.9686   -0.7658    2.1649 O   0  0  0  0  0  0  0  0  0  0  0  0
   -1.7379   -1.2429    1.3916 C   0  0  2  0  0  0  0  0  0  0  0  0
   -1.3703   -1.9252    2.5752 O   0  0  0  0  0  0  0  0  0  0  0  0
   -0.4836   -0.6447    0.7228 C   0  0  2  0  0  0  0  0  0  0  0  0
   -0.8359    0.1997   -0.3726 O   0  0  0  0  0  0  0  0  0  0  0  0
    0.3930   -1.8083    0.2219 C   0  0  0  0  0  0  0  0  0  0  0  0
    1.6805   -1.3511   -0.2717 O   0  0  0  0  0  0  0  0  0  0  0  0
    0.1106    6.2576   -0.0756 C   0  0  2  0  0  0  0  0  0  0  0  0
    0.0358    7.5273   -0.8257 N   0  0  0  0  0  0  0  0  0  0  0  0
    0.4508    5.1014   -1.0193 C   0  0  0  0  0  0  0  0  0  0  0  0
    0.3913    3.7698   -0.2803 C   0  0  2  0  0  0  0  0  0  0  0  0
    0.8141    2.6786   -1.1670 N   0  0  0  0  0  0  0  0  0  0  0  0
   -1.0490    3.5657    0.2442 C   0  0  2  0  0  0  0  0  0  0  0  0
   -1.3247    4.6019    1.2862 C   0  0  2  0  0  0  0  0  0  0  0  0
   -2.6308    4.3715    1.7820 O   0  0  0  0  0  0  0  0  0  0  0  0
   -1.2070    5.9849    0.6742 C   0  0  1  0  0  0  0  0  0  0  0  0
   -1.3759    7.0084    1.6371 O   0  0  0  0  0  0  0  0  0  0  0  0
   -2.8566    4.5713    3.1734 C   0  0  1  0  0  0  0  0  0  0  0  0
   -2.1893    3.4180    3.9257 C   0  0  2  0  0  0  0  0  0  0  0  0
   -2.9770    3.0748    5.0502 O   0  0  0  0  0  0  0  0  0  0  0  0
   -0.8296    4.0168    4.3100 C   0  0  2  0  0  0  0  0  0  0  0  0
   -0.2169    3.3393    5.4074 O   0  0  0  0  0  0  0  0  0  0  0  0
   -1.2484    5.4636    4.5987 C   0  0  2  0  0  0  0  0  0  0  0  0
   -2.2091    5.7646    3.5964 O   0  0  0  0  0  0  0  0  0  0  0  0
   -0.1055    6.4821    4.5149 C   0  0  0  0  0  0  0  0  0  0  0  0
   -0.5909    7.7939    4.3230 O   0  0  0  0  0  0  0  0  0  0  0  0
   -0.5360    3.8754    6.6899 C   0  0  2  0  0  0  0  0  0  0  0  0
    0.7165    4.0549    7.5611 C   0  0  2  0  0  0  0  0  0  0  0  0
    1.7232    4.8794    6.8720 N   0  0  0  0  0  0  0  0  0  0  0  0
    1.2963    2.6970    7.9849 C   0  0  1  0  0  0  0  0  0  0  0  0
    2.3909    2.9241    8.8516 O   0  0  0  0  0  0  0  0  0  0  0  0
    0.1975    1.9053    8.7141 C   0  0  2  0  0  0  0  0  0  0  0  0
    0.6683    0.6240    9.0896 O   0  0  0  0  0  0  0  0  0  0  0  0
   -1.0666    1.7799    7.8390 C   0  0  1  0  0  0  0  0  0  0  0  0
   -1.4948    3.0540    7.3526 O   0  0  0  0  0  0  0  0  0  0  0  0
   -0.9237    0.7521    6.7067 C   0  0  0  0  0  0  0  0  0  0  0  0
   -1.0064   -0.6251    7.2193 N   0  0  0  0  0  0  0  0  0  0  0  0
  1  3  1  0  0  0  0
  1  2  1  1  0  0  0
  3  4  1  1  0  0  0
  5  6  1  6  0  0  0
  5  3  1  0  0  0  0
  7  9  1  0  0  0  0
  7  5  1  0  0  0  0
  7  8  1  1  0  0  0
  9 10  1  0  0  0  0
  9 11  1  6  0  0  0
 10  1  1  0  0  0  0
 11 12  1  0  0  0  0
 13 14  1  6  0  0  0
 13 21  1  0  0  0  0
 15 13  1  0  0  0  0
 16 15  1  0  0  0  0
 16 18  1  0  0  0  0
 16 17  1  6  0  0  0
 18  2  1  1  0  0  0
 18 19  1  0  0  0  0
 19 21  1  0  0  0  0
 19 20  1  6  0  0  0
 21 22  1  1  0  0  0
 23 20  1  6  0  0  0
 23 29  1  0  0  0  0
 23 24  1  0  0  0  0
 24 26  1  0  0  0  0
 24 25  1  1  0  0  0
 26 27  1  1  0  0  0
 28 26  1  0  0  0  0
 28 30  1  6  0  0  0
 29 28  1  0  0  0  0
 30 31  1  0  0  0  0
 32 27  1  6  0  0  0
 32 40  1  0  0  0  0
 32 33  1  0  0  0  0
 33 35  1  0  0  0  0
 33 34  1  6  0  0  0
 35 37  1  0  0  0  0
 35 36  1  1  0  0  0
 37 38  1  6  0  0  0
 39 37  1  0  0  0  0
 39 41  1  6  0  0  0
 40 39  1  0  0  0  0
 42 41  1  0  0  0  0
M  END
>  <CHROM.1>
-98.54109231,-117.11909139,-160.47361841,-170.30641612,-177.01766071,-172.00628354
-172.63584046,128.37313887,-166.09498756,142.26329600,-72.75725214,87.69980174
-163.00120472,-90.82817306,-132.98836199,159.43068688,-61.19104273,65.23479575
69.05840012,68.11309205,75.10079557,57.01285754,-0.84711074,2.82062810,3.26036395
2.69142824,-1.41389343,-0.50177216

>  <Name>
lig.pdb

>  <RI>
224

>  <Rbt.Current_Directory>
/home/itssahil/PROJECTS/Mol_Feturizer/New_Systems/rnas/2mxs

>  <Rbt.Executable>
rbdock ($Id: //depot/dev/client3/rdock/2013.1/src/exe/rbdock.cxx#4 $)

>  <Rbt.Library>
libRbt.so (2013.1, Build901 2013/11/27)

>  <Rbt.Parameter_File>
/export/apps/rDock/src/rDock_2013.1_src/data/scripts/dock_solv.prm

>  <Rbt.Receptor>
prm/pocket_docking_2.prm

>  <SCORE>
-28.8715

>  <SCORE.INTER>
-37.2588

>  <SCORE.INTER.CONST>
1

>  <SCORE.INTER.POLAR>
-4.81343

>  <SCORE.INTER.ROT>
9

>  <SCORE.INTER.SOLV>
15.6458

>  <SCORE.INTER.VDW>
-23.6097

>  <SCORE.INTER.norm>
-0.887113

>  <SCORE.INTRA>
1.36659

>  <SCORE.INTRA.DIHEDRAL>
11.6285

>  <SCORE.INTRA.DIHEDRAL.0>
30.1357

>  <SCORE.INTRA.POLAR>
-2.93643

>  <SCORE.INTRA.POLAR.0>
-0.631696

>  <SCORE.INTRA.REPUL>
0.0902495

>  <SCORE.INTRA.REPUL.0>
0

>  <SCORE.INTRA.SOLV>
1.70934

>  <SCORE.INTRA.SOLV.lig_0>
-55.904

>  <SCORE.INTRA.VDW>
4.23028

>  <SCORE.INTRA.VDW.0>
-8.21197

>  <SCORE.INTRA.norm>
0.0325379

>  <SCORE.RESTR>
7.02066

>  <SCORE.RESTR.CAVITY>
7.02066

>  <SCORE.RESTR.norm>
0.167159

>  <SCORE.SYSTEM>
0

>  <SCORE.SYSTEM.CONST>
0

>  <SCORE.SYSTEM.DIHEDRAL>
0

>  <SCORE.SYSTEM.SOLV>
0

>  <SCORE.SYSTEM.norm>
0

>  <SCORE.heavy>
42

>  <SCORE.norm>
-0.687417

>  <RMSD>
5.038

$$$$
lig.pdb
 OpenBabel11021811453D
libRbt.so/2013.1/901 2013/11/27
 42 45  0  0  0  0  0  0  0  0999 V2000
    2.1950    5.5709   -0.8654 C   0  0  2  0  0  0  0  0  0  0  0  0
    2.4556    4.4387   -1.6971 O   0  0  0  0  0  0  0  0  0  0  0  0
    1.0052    6.3814   -1.4014 C   0  0  2  0  0  0  0  0  0  0  0  0
   -0.1859    5.5276   -1.5646 N   0  0  0  0  0  0  0  0  0  0  0  0
    1.3654    7.0818   -2.7179 C   0  0  1  0  0  0  0  0  0  0  0  0
    0.3048    7.9363   -3.1007 O   0  0  0  0  0  0  0  0  0  0  0  0
    2.6487    7.9086   -2.5469 C   0  0  2  0  0  0  0  0  0  0  0  0
    3.0502    8.4160   -3.8050 O   0  0  0  0  0  0  0  0  0  0  0  0
    3.7871    7.0663   -1.9363 C   0  0  2  0  0  0  0  0  0  0  0  0
    3.3541    6.3931   -0.7545 O   0  0  0  0  0  0  0  0  0  0  0  0
    4.9546    8.0126   -1.5979 C   0  0  0  0  0  0  0  0  0  0  0  0
    5.6328    8.4935   -2.7891 O   0  0  0  0  0  0  0  0  0  0  0  0
    3.5371    0.3760   -0.7723 C   0  0  2  0  0  0  0  0  0  0  0  0
    4.0853   -0.6637    0.1215 N   0  0  0  0  0  0  0  0  0  0  0  0
    4.6001    1.4365   -1.0696 C   0  0  0  0  0  0  0  0  0  0  0  0
    4.0028    2.5844   -1.8749 C   0  0  2  0  0  0  0  0  0  0  0  0
    5.0501    3.5470   -2.2389 N   0  0  0  0  0  0  0  0  0  0  0  0
    2.8806    3.2383   -1.0356 C   0  0  2  0  0  0  0  0  0  0  0  0
    1.7684    2.2511   -0.8812 C   0  0  2  0  0  0  0  0  0  0  0  0
    0.7358    2.8829   -0.1470 O   0  0  0  0  0  0  0  0  0  0  0  0
    2.2776    1.0174   -0.1601 C   0  0  1  0  0  0  0  0  0  0  0  0
    1.2859    0.0126   -0.0606 O   0  0  0  0  0  0  0  0  0  0  0  0
    0.3842    2.3269    1.1156 C   0  0  1  0  0  0  0  0  0  0  0  0
    0.1595    3.4849    2.0902 C   0  0  2  0  0  0  0  0  0  0  0  0
    0.6134    3.1086    3.3768 O   0  0  0  0  0  0  0  0  0  0  0  0
   -1.3614    3.6796    2.0274 C   0  0  2  0  0  0  0  0  0  0  0  0
   -1.8805    4.3554    3.1730 O   0  0  0  0  0  0  0  0  0  0  0  0
   -1.8103    2.2203    1.8818 C   0  0  2  0  0  0  0  0  0  0  0  0
   -0.8550    1.6380    1.0063 O   0  0  0  0  0  0  0  0  0  0  0  0
   -3.2093    2.0456    1.2795 C   0  0  0  0  0  0  0  0  0  0  0  0
   -3.2998    2.6282   -0.0033 O   0  0  0  0  0  0  0  0  0  0  0  0
   -2.8431    5.3665    2.8812 C   0  0  2  0  0  0  0  0  0  0  0  0
   -2.4752    6.1566    1.6161 C   0  0  2  0  0  0  0  0  0  0  0  0
   -2.2832    5.2536    0.4690 N   0  0  0  0  0  0  0  0  0  0  0  0
   -1.2384    7.0366    1.8521 C   0  0  1  0  0  0  0  0  0  0  0  0
   -0.9997    7.8018    0.6867 O   0  0  0  0  0  0  0  0  0  0  0  0
   -1.5219    7.9634    3.0465 C   0  0  2  0  0  0  0  0  0  0  0  0
   -0.3938    8.7688    3.3348 O   0  0  0  0  0  0  0  0  0  0  0  0
   -1.9359    7.1507    4.2906 C   0  0  1  0  0  0  0  0  0  0  0  0
   -3.0009    6.2448    3.9933 O   0  0  0  0  0  0  0  0  0  0  0  0
   -0.7570    6.4448    4.9767 C   0  0  0  0  0  0  0  0  0  0  0  0
    0.2819    6.0685    4.0045 N   0  0  0  0  0  0  0  0  0  0  0  0
  1  3  1  0  0  0  0
  1  2  1  6  0  0  0
  3  4  1  6  0  0  0
  5  6  1  1  0  0  0
  5  3  1  0  0  0  0
  7  9  1  0  0  0  0
  7  5  1  0  0  0  0
  7  8  1  6  0  0  0
  9 10  1  0  0  0  0
  9 11  1  1  0  0  0
 10  1  1  0  0  0  0
 11 12  1  0  0  0  0
 13 14  1  1  0  0  0
 13 21  1  0  0  0  0
 15 13  1  0  0  0  0
 16 15  1  0  0  0  0
 16 18  1  0  0  0  0
 16 17  1  1  0  0  0
 18  2  1  6  0  0  0
 18 19  1  0  0  0  0
 19 21  1  0  0  0  0
 19 20  1  1  0  0  0
 21 22  1  6  0  0  0
 23 20  1  6  0  0  0
 23 29  1  0  0  0  0
 23 24  1  0  0  0  0
 24 26  1  0  0  0  0
 24 25  1  1  0  0  0
 26 27  1  1  0  0  0
 28 26  1  0  0  0  0
 28 30  1  6  0  0  0
 29 28  1  0  0  0  0
 30 31  1  0  0  0  0
 32 27  1  1  0  0  0
 32 40  1  0  0  0  0
 32 33  1  0  0  0  0
 33 35  1  0  0  0  0
 33 34  1  6  0  0  0
 35 37  1  0  0  0  0
 35 36  1  6  0  0  0
 37 38  1  1  0  0  0
 39 37  1  0  0  0  0
 39 41  1  6  0  0  0
 40 39  1  0  0  0  0
 42 41  1  0  0  0  0
M  END
>  <CHROM.1>
-139.11221478,-143.55732623,-93.55347082,156.52391314,105.68784501,-165.18203300
-71.57730727,-31.44639085,154.50622722,-117.74574896,138.68245882,101.68981192
-144.15420051,136.28758050,-38.64132523,58.71071354,141.45036695,146.78717889
-74.25445805,149.53052849,-31.12633771,50.86266239,0.77828973,4.77273682
0.31879185,0.03627833,0.70571326,-0.12343133

>  <Name>
lig.pdb

>  <RI>
0

>  <Rbt.Current_Directory>
/home/itssahil/PROJECTS/Mol_Feturizer/New_Systems/rnas/2mxs

>  <Rbt.Executable>
rbdock ($Id: //depot/dev/client3/rdock/2013.1/src/exe/rbdock.cxx#4 $)

>  <Rbt.Library>
libRbt.so (2013.1, Build901 2013/11/27)

>  <Rbt.Parameter_File>
/export/apps/rDock/src/rDock_2013.1_src/data/scripts/dock_solv.prm

>  <Rbt.Receptor>
prm/blind_docking_60.prm

>  <SCORE>
87.4125

>  <SCORE.INTER>
23.6901

>  <SCORE.INTER.CONST>
1

>  <SCORE.INTER.POLAR>
-4.0168

>  <SCORE.INTER.ROT>
9

>  <SCORE.INTER.SOLV>
29.979

>  <SCORE.INTER.VDW>
9.58973

>  <SCORE.INTER.norm>
0.564049

>  <SCORE.INTRA>
34.5474

>  <SCORE.INTRA.DIHEDRAL>
40.9605

>  <SCORE.INTRA.DIHEDRAL.0>
30.1357

>  <SCORE.INTRA.POLAR>
-2.37134

>  <SCORE.INTRA.POLAR.0>
-0.631696

>  <SCORE.INTRA.REPUL>
0

>  <SCORE.INTRA.REPUL.0>
0

>  <SCORE.INTRA.SOLV>
4.97801

>  <SCORE.INTRA.SOLV.lig_0>
-55.904

>  <SCORE.INTRA.VDW>
19.6406

>  <SCORE.INTRA.VDW.0>
-8.21197

>  <SCORE.INTRA.norm>
0.822556

>  <SCORE.RESTR>
29.1751

>  <SCORE.RESTR.CAVITY>
29.1751

>  <SCORE.RESTR.norm>
0.694644

>  <SCORE.SYSTEM>
0

>  <SCORE.SYSTEM.CONST>
0

>  <SCORE.SYSTEM.DIHEDRAL>
0

>  <SCORE.SYSTEM.SOLV>
0

>  <SCORE.SYSTEM.norm>
0

>  <SCORE.heavy>
42

>  <SCORE.norm>
2.08125

>  <RMSD>
5.110

$$$$
lig.pdb
 OpenBabel11021811453D
libRbt.so/2013.1/901 2013/11/27
 42 45  0  0  0  0  0  0  0  0999 V2000
    0.3131    1.5342    1.0908 C   0  0  2  0  0  0  0  0  0  0  0  0
    1.1635    2.6824    1.0846 O   0  0  0  0  0  0  0  0  0  0  0  0
    1.0862    0.2832    1.5345 C   0  0  2  0  0  0  0  0  0  0  0  0
    1.7364    0.4984    2.8404 N   0  0  0  0  0  0  0  0  0  0  0  0
    2.1102   -0.1362    0.4719 C   0  0  1  0  0  0  0  0  0  0  0  0
    2.6924   -1.3713    0.8422 O   0  0  0  0  0  0  0  0  0  0  0  0
    1.4269   -0.2854   -0.8958 C   0  0  2  0  0  0  0  0  0  0  0  0
    2.4091   -0.5160   -1.8876 O   0  0  0  0  0  0  0  0  0  0  0  0
    0.6046    0.9682   -1.2570 C   0  0  2  0  0  0  0  0  0  0  0  0
   -0.2734    1.3337   -0.1928 O   0  0  0  0  0  0  0  0  0  0  0  0
   -0.2149    0.6551   -2.5233 C   0  0  0  0  0  0  0  0  0  0  0  0
   -1.2497    1.6456   -2.7651 O   0  0  0  0  0  0  0  0  0  0  0  0
    1.7070    5.8620   -1.7659 C   0  0  2  0  0  0  0  0  0  0  0  0
    1.5451    6.4649   -3.1040 N   0  0  0  0  0  0  0  0  0  0  0  0
    2.5047    4.5591   -1.8625 C   0  0  0  0  0  0  0  0  0  0  0  0
    2.5555    3.8591   -0.5096 C   0  0  2  0  0  0  0  0  0  0  0  0
    3.4036    2.6632   -0.5891 N   0  0  0  0  0  0  0  0  0  0  0  0
    1.1095    3.5170   -0.0814 C   0  0  2  0  0  0  0  0  0  0  0  0
    0.3749    4.7951    0.1688 C   0  0  2  0  0  0  0  0  0  0  0  0
   -0.9314    4.4592    0.5992 O   0  0  0  0  0  0  0  0  0  0  0  0
    0.3376    5.6198   -1.1039 C   0  0  1  0  0  0  0  0  0  0  0  0
   -0.2741    6.8801   -0.9027 O   0  0  0  0  0  0  0  0  0  0  0  0
   -1.0827    3.9400    1.9161 C   0  0  1  0  0  0  0  0  0  0  0  0
   -0.4930    4.9607    2.8917 C   0  0  2  0  0  0  0  0  0  0  0  0
    0.1275    4.2782    3.9650 O   0  0  0  0  0  0  0  0  0  0  0  0
   -1.7313    5.7560    3.3266 C   0  0  2  0  0  0  0  0  0  0  0  0
   -1.5441    6.4364    4.5679 O   0  0  0  0  0  0  0  0  0  0  0  0
   -2.7722    4.6301    3.3596 C   0  0  2  0  0  0  0  0  0  0  0  0
   -2.4651    3.8260    2.2294 O   0  0  0  0  0  0  0  0  0  0  0  0
   -4.2249    5.1078    3.2510 C   0  0  0  0  0  0  0  0  0  0  0  0
   -4.4468    5.8311    2.0590 O   0  0  0  0  0  0  0  0  0  0  0  0
   -0.1820    6.5902    4.9619 C   0  0  2  0  0  0  0  0  0  0  0  0
    0.0776    6.0054    6.3586 C   0  0  2  0  0  0  0  0  0  0  0  0
   -0.3427    4.5959    6.4254 N   0  0  0  0  0  0  0  0  0  0  0  0
   -0.6039    6.8476    7.4476 C   0  0  1  0  0  0  0  0  0  0  0  0
   -0.2603    6.3144    8.7119 O   0  0  0  0  0  0  0  0  0  0  0  0
   -0.1005    8.2962    7.3283 C   0  0  2  0  0  0  0  0  0  0  0  0
   -0.7321    9.1268    8.2852 O   0  0  0  0  0  0  0  0  0  0  0  0
   -0.3279    8.8448    5.9046 C   0  0  1  0  0  0  0  0  0  0  0  0
    0.2025    7.9624    4.9129 O   0  0  0  0  0  0  0  0  0  0  0  0
   -1.7916    9.2134    5.6207 C   0  0  0  0  0  0  0  0  0  0  0  0
   -2.6599    8.8771    6.7606 N   0  0  0  0  0  0  0  0  0  0  0  0
  1  3  1  0  0  0  0
  1  2  1  6  0  0  0
  3  4  1  1  0  0  0
  5  6  1  1  0  0  0
  5  3  1  0  0  0  0
  7  9  1  0  0  0  0
  7  5  1  0  0  0  0
  7  8  1  6  0  0  0
  9 10  1  0  0  0  0
  9 11  1  6  0  0  0
 10  1  1  0  0  0  0
 11 12  1  0  0  0  0
 13 14  1  6  0  0  0
 13 21  1  0  0  0  0
 15 13  1  0  0  0  0
 16 15  1  0  0  0  0
 16 18  1  0  0  0  0
 16 17  1  6  0  0  0
 18  2  1  1  0  0  0
 18 19  1  0  0  0  0
 19 21  1  0  0  0  0
 19 20  1  6  0  0  0
 21 22  1  1  0  0  0
 23 20  1  6  0  0  0
 23 29  1  0  0  0  0
 23 24  1  0  0  0  0
 24 26  1  0  0  0  0
 24 25  1  1  0  0  0
 26 27  1  1  0  0  0
 28 26  1  0  0  0  0
 28 30  1  6  0  0  0
 29 28  1  0  0  0  0
 30 31  1  0  0  0  0
 32 27  1  1  0  0  0
 32 40  1  0  0  0  0
 32 33  1  0  0  0  0
 33 35  1  0  0  0  0
 33 34  1  6  0  0  0
 35 37  1  0  0  0  0
 35 36  1  1  0  0  0
 37 38  1  1  0  0  0
 39 37  1  0  0  0  0
 39 41  1  6  0  0  0
 40 39  1  0  0  0  0
 42 41  1  0  0  0  0
M  END
>  <CHROM.1>
-134.38722758,132.81257670,62.51157568,172.30632539,28.53680020,26.22515661
166.46733985,-48.04085338,-173.64852085,73.11876609,56.72091423,-56.20565292
134.39137786,17.78542910,-124.35996136,58.71576163,72.84624489,-71.52661692
66.69284032,61.61330885,-3.45702403,-64.17823762,-0.03082447,4.36135292,2.14764613
-0.73634346,-1.22204498,1.69431147

>  <Name>
lig.pdb

>  <RI>
3.17932e+07

>  <Rbt.Current_Directory>
/home/itssahil/PROJECTS/Mol_Feturizer/New_Systems/rnas/2mxs

>  <Rbt.Executable>
rbdock ($Id: //depot/dev/client3/rdock/2013.1/src/exe/rbdock.cxx#4 $)

>  <Rbt.Library>
libRbt.so (2013.1, Build901 2013/11/27)

>  <Rbt.Parameter_File>
/export/apps/rDock/src/rDock_2013.1_src/data/scripts/dock_solv.prm

>  <Rbt.Receptor>
prm/blind_docking_100.prm

>  <SCORE>
40.8824

>  <SCORE.INTER>
-7.77084

>  <SCORE.INTER.CONST>
1

>  <SCORE.INTER.POLAR>
-3.23703

>  <SCORE.INTER.ROT>
9

>  <SCORE.INTER.SOLV>
30.1341

>  <SCORE.INTER.VDW>
-14.0351

>  <SCORE.INTER.norm>
-0.18502

>  <SCORE.INTRA>
21.364

>  <SCORE.INTRA.DIHEDRAL>
18.6964

>  <SCORE.INTRA.DIHEDRAL.0>
30.1357

>  <SCORE.INTRA.POLAR>
-0.67465

>  <SCORE.INTRA.POLAR.0>
-0.631696

>  <SCORE.INTRA.REPUL>
0.0199148

>  <SCORE.INTRA.REPUL.0>
0

>  <SCORE.INTRA.SOLV>
2.64997

>  <SCORE.INTRA.SOLV.lig_0>
-55.904

>  <SCORE.INTRA.VDW>
12.885

>  <SCORE.INTRA.VDW.0>
-8.21197

>  <SCORE.INTRA.norm>
0.508666

>  <SCORE.RESTR>
27.2893

>  <SCORE.RESTR.CAVITY>
27.2893

>  <SCORE.RESTR.norm>
0.649744

>  <SCORE.SYSTEM>
0

>  <SCORE.SYSTEM.CONST>
0

>  <SCORE.SYSTEM.DIHEDRAL>
0

>  <SCORE.SYSTEM.SOLV>
0

>  <SCORE.SYSTEM.norm>
0

>  <SCORE.heavy>
42

>  <SCORE.norm>
0.97339

>  <RMSD>
5.128

$$$$
lig.pdb
 OpenBabel11021811453D
libRbt.so/2013.1/901 2013/11/27
 42 45  0  0  0  0  0  0  0  0999 V2000
   -0.8222    6.0079    0.3099 C   0  0  2  0  0  0  0  0  0  0  0  0
    0.4133    5.6194    0.9133 O   0  0  0  0  0  0  0  0  0  0  0  0
   -1.3960    7.2578    0.9941 C   0  0  2  0  0  0  0  0  0  0  0  0
   -0.4124    8.3564    0.9999 N   0  0  0  0  0  0  0  0  0  0  0  0
   -1.8715    6.9366    2.4168 C   0  0  1  0  0  0  0  0  0  0  0  0
   -2.5298    8.0659    2.9582 O   0  0  0  0  0  0  0  0  0  0  0  0
   -2.8394    5.7439    2.3979 C   0  0  2  0  0  0  0  0  0  0  0  0
   -3.1411    5.3642    3.7269 O   0  0  0  0  0  0  0  0  0  0  0  0
   -2.2431    4.5438    1.6347 C   0  0  2  0  0  0  0  0  0  0  0  0
   -1.7620    4.9369    0.3497 O   0  0  0  0  0  0  0  0  0  0  0  0
   -3.3475    3.4817    1.4742 C   0  0  0  0  0  0  0  0  0  0  0  0
   -3.9983    3.1733    2.7358 O   0  0  0  0  0  0  0  0  0  0  0  0
    2.4326    3.7279   -2.3846 C   0  0  2  0  0  0  0  0  0  0  0  0
    3.5372    2.9406   -2.9679 N   0  0  0  0  0  0  0  0  0  0  0  0
    2.9720    5.0120   -1.7495 C   0  0  0  0  0  0  0  0  0  0  0  0
    1.8602    5.7600   -1.0235 C   0  0  2  0  0  0  0  0  0  0  0  0
    2.3645    7.0367   -0.5024 N   0  0  0  0  0  0  0  0  0  0  0  0
    1.3125    4.8506    0.1010 C   0  0  2  0  0  0  0  0  0  0  0  0
    0.6420    3.6715   -0.5280 C   0  0  2  0  0  0  0  0  0  0  0  0
    0.1123    2.8749    0.5157 O   0  0  0  0  0  0  0  0  0  0  0  0
    1.6482    2.8934   -1.3547 C   0  0  1  0  0  0  0  0  0  0  0  0
    1.0481    1.8115   -2.0421 O   0  0  0  0  0  0  0  0  0  0  0  0
    0.7748    2.9064    1.7754 C   0  0  1  0  0  0  0  0  0  0  0  0
   -0.2381    2.4969    2.8467 C   0  0  2  0  0  0  0  0  0  0  0  0
    0.0061    3.2360    4.0286 O   0  0  0  0  0  0  0  0  0  0  0  0
    0.0433    0.9973    3.0118 C   0  0  2  0  0  0  0  0  0  0  0  0
   -0.4170    0.4823    4.2615 O   0  0  0  0  0  0  0  0  0  0  0  0
    1.5666    0.9916    2.8343 C   0  0  2  0  0  0  0  0  0  0  0  0
    1.8092    1.9307    1.7962 O   0  0  0  0  0  0  0  0  0  0  0  0
    2.1511   -0.3653    2.4249 C   0  0  0  0  0  0  0  0  0  0  0  0
    1.9459   -0.6272    1.0529 O   0  0  0  0  0  0  0  0  0  0  0  0
    0.3702   -0.5821    4.7919 C   0  0  2  0  0  0  0  0  0  0  0  0
   -0.5042   -1.7134    5.3538 C   0  0  2  0  0  0  0  0  0  0  0  0
   -1.4495   -2.2027    4.3364 N   0  0  0  0  0  0  0  0  0  0  0  0
   -1.2328   -1.2687    6.6309 C   0  0  1  0  0  0  0  0  0  0  0  0
   -1.9506   -2.3721    7.1486 O   0  0  0  0  0  0  0  0  0  0  0  0
   -0.1828   -0.7938    7.6495 C   0  0  2  0  0  0  0  0  0  0  0  0
   -0.8063   -0.3310    8.8334 O   0  0  0  0  0  0  0  0  0  0  0  0
    0.7137    0.3074    7.0467 C   0  0  1  0  0  0  0  0  0  0  0  0
    1.2642   -0.0955    5.7905 O   0  0  0  0  0  0  0  0  0  0  0  0
    0.0210    1.6752    6.9572 C   0  0  0  0  0  0  0  0  0  0  0  0
    0.9866    2.7472    6.6663 N   0  0  0  0  0  0  0  0  0  0  0  0
  1  3  1  0  0  0  0
  1  2  1  1  0  0  0
  3  4  1  1  0  0  0
  5  6  1  6  0  0  0
  5  3  1  0  0  0  0
  7  9  1  0  0  0  0
  7  5  1  0  0  0  0
  7  8  1  1  0  0  0
  9 10  1  0  0  0  0
  9 11  1  6  0  0  0
 10  1  1  0  0  0  0
 11 12  1  0  0  0  0
 13 14  1  1  0  0  0
 13 21  1  0  0  0  0
 15 13  1  0  0  0  0
 16 15  1  0  0  0  0
 16 18  1  0  0  0  0
 16 17  1  1  0  0  0
 18  2  1  6  0  0  0
 18 19  1  0  0  0  0
 19 21  1  0  0  0  0
 19 20  1  1  0  0  0
 21 22  1  6  0  0  0
 23 20  1  6  0  0  0
 23 29  1  0  0  0  0
 23 24  1  0  0  0  0
 24 26  1  0  0  0  0
 24 25  1  1  0  0  0
 26 27  1  1  0  0  0
 28 26  1  0  0  0  0
 28 30  1  6  0  0  0
 29 28  1  0  0  0  0
 30 31  1  0  0  0  0
 32 27  1  1  0  0  0
 32 40  1  0  0  0  0
 32 33  1  0  0  0  0
 33 35  1  0  0  0  0
 33 34  1  6  0  0  0
 35 37  1  0  0  0  0
 35 36  1  1  0  0  0
 37 38  1  1  0  0  0
 39 37  1  0  0  0  0
 39 41  1  6  0  0  0
 40 39  1  0  0  0  0
 42 41  1  0  0  0  0
M  END
>  <CHROM.1>
69.00629933,-155.88991841,-55.64949649,-65.62428690,62.19576165,-51.86682443
-50.91398043,-134.15702368,-6.07302888,-28.89429544,156.38608676,-52.67885684
175.31231122,-147.78728198,-136.71383029,77.50059370,-65.16306205,65.19844896
-63.75630471,-44.66752370,167.28553805,137.36007752,-0.04406237,2.80056124
2.50283113,1.39955696,0.87485563,-0.69180175

>  <Name>
lig.pdb

>  <RI>
0

>  <Rbt.Current_Directory>
/home/itssahil/PROJECTS/Mol_Feturizer/New_Systems/rnas/2mxs

>  <Rbt.Executable>
rbdock ($Id: //depot/dev/client3/rdock/2013.1/src/exe/rbdock.cxx#4 $)

>  <Rbt.Library>
libRbt.so (2013.1, Build901 2013/11/27)

>  <Rbt.Parameter_File>
/export/apps/rDock/src/rDock_2013.1_src/data/scripts/dock_solv.prm

>  <Rbt.Receptor>
prm/blind_docking_80.prm

>  <SCORE>
18.0023

>  <SCORE.INTER>
-2.0436

>  <SCORE.INTER.CONST>
1

>  <SCORE.INTER.POLAR>
-2.18996

>  <SCORE.INTER.ROT>
9

>  <SCORE.INTER.SOLV>
28.1468

>  <SCORE.INTER.VDW>
-13.0448

>  <SCORE.INTER.norm>
-0.0486571

>  <SCORE.INTRA>
10.924

>  <SCORE.INTRA.DIHEDRAL>
3.15489

>  <SCORE.INTRA.DIHEDRAL.0>
30.1357

>  <SCORE.INTRA.POLAR>
-0.124233

>  <SCORE.INTRA.POLAR.0>
-0.631696

>  <SCORE.INTRA.REPUL>
0.0391709

>  <SCORE.INTRA.REPUL.0>
0

>  <SCORE.INTRA.SOLV>
1.84959

>  <SCORE.INTRA.SOLV.lig_0>
-55.904

>  <SCORE.INTRA.VDW>
8.64827

>  <SCORE.INTRA.VDW.0>
-8.21197

>  <SCORE.INTRA.norm>
0.260095

>  <SCORE.RESTR>
9.12188

>  <SCORE.RESTR.CAVITY>
9.12188

>  <SCORE.RESTR.norm>
0.217188

>  <SCORE.SYSTEM>
0

>  <SCORE.SYSTEM.CONST>
0

>  <SCORE.SYSTEM.DIHEDRAL>
0

>  <SCORE.SYSTEM.SOLV>
0

>  <SCORE.SYSTEM.norm>
0

>  <SCORE.heavy>
42

>  <SCORE.norm>
0.428625

>  <RMSD>
5.128

$$$$
lig.pdb
 OpenBabel11021811453D
libRbt.so/2013.1/901 2013/11/27
 42 45  0  0  0  0  0  0  0  0999 V2000
   -1.5661    4.1534    1.9527 C   0  0  2  0  0  0  0  0  0  0  0  0
   -1.1488    4.7177    0.7081 O   0  0  0  0  0  0  0  0  0  0  0  0
   -2.9932    4.5997    2.3047 C   0  0  2  0  0  0  0  0  0  0  0  0
   -3.9310    4.2849    1.2112 N   0  0  0  0  0  0  0  0  0  0  0  0
   -3.0324    6.0937    2.6511 C   0  0  1  0  0  0  0  0  0  0  0  0
   -4.3245    6.4343    3.1158 O   0  0  0  0  0  0  0  0  0  0  0  0
   -1.9986    6.4146    3.7410 C   0  0  2  0  0  0  0  0  0  0  0  0
   -1.9392    7.8150    3.9326 O   0  0  0  0  0  0  0  0  0  0  0  0
   -0.6009    5.8787    3.3700 C   0  0  2  0  0  0  0  0  0  0  0  0
   -0.6586    4.5029    2.9948 O   0  0  0  0  0  0  0  0  0  0  0  0
    0.3169    6.0456    4.5960 C   0  0  0  0  0  0  0  0  0  0  0  0
   -0.0603    5.1634    5.6868 O   0  0  0  0  0  0  0  0  0  0  0  0
    2.0598    3.6198   -1.9432 C   0  0  2  0  0  0  0  0  0  0  0  0
    3.4208    3.1163   -2.2162 N   0  0  0  0  0  0  0  0  0  0  0  0
    2.1238    4.8949   -1.0987 C   0  0  0  0  0  0  0  0  0  0  0  0
    0.7240    5.3419   -0.6944 C   0  0  2  0  0  0  0  0  0  0  0  0
    0.7886    6.6170    0.0306 N   0  0  0  0  0  0  0  0  0  0  0  0
    0.0802    4.2229    0.1569 C   0  0  2  0  0  0  0  0  0  0  0  0
   -0.1298    3.0263   -0.7147 C   0  0  2  0  0  0  0  0  0  0  0  0
   -0.7570    2.0302    0.0720 O   0  0  0  0  0  0  0  0  0  0  0  0
    1.2055    2.5430   -1.2482 C   0  0  1  0  0  0  0  0  0  0  0  0
    1.0580    1.4609   -2.1484 O   0  0  0  0  0  0  0  0  0  0  0  0
    0.0699    1.0320    0.6607 C   0  0  1  0  0  0  0  0  0  0  0  0
    0.7201    1.6384    1.9061 C   0  0  2  0  0  0  0  0  0  0  0  0
    2.0339    1.1304    2.0426 O   0  0  0  0  0  0  0  0  0  0  0  0
   -0.2185    1.1748    3.0282 C   0  0  2  0  0  0  0  0  0  0  0  0
    0.4040    1.1929    4.3131 O   0  0  0  0  0  0  0  0  0  0  0  0
   -0.5841   -0.2212    2.5090 C   0  0  2  0  0  0  0  0  0  0  0  0
   -0.7339   -0.0531    1.1062 O   0  0  0  0  0  0  0  0  0  0  0  0
   -1.8867   -0.7894    3.0843 C   0  0  0  0  0  0  0  0  0  0  0  0
   -1.9648   -2.1884    2.9116 O   0  0  0  0  0  0  0  0  0  0  0  0
   -0.4739    1.4996    5.3945 C   0  0  2  0  0  0  0  0  0  0  0  0
    0.2985    1.8182    6.6837 C   0  0  2  0  0  0  0  0  0  0  0  0
    1.2710    2.9011    6.4605 N   0  0  0  0  0  0  0  0  0  0  0  0
    0.9766    0.5611    7.2488 C   0  0  1  0  0  0  0  0  0  0  0  0
    1.5971    0.8954    8.4752 O   0  0  0  0  0  0  0  0  0  0  0  0
   -0.1011   -0.5128    7.4749 C   0  0  2  0  0  0  0  0  0  0  0  0
    0.4787   -1.7112    7.9566 O   0  0  0  0  0  0  0  0  0  0  0  0
   -0.8949   -0.7807    6.1797 C   0  0  1  0  0  0  0  0  0  0  0  0
   -1.3942    0.4323    5.6116 O   0  0  0  0  0  0  0  0  0  0  0  0
   -0.1190   -1.6183    5.1525 C   0  0  0  0  0  0  0  0  0  0  0  0
    1.1876   -1.0144    4.8451 N   0  0  0  0  0  0  0  0  0  0  0  0
  1  3  1  0  0  0  0
  1  2  1  6  0  0  0
  3  4  1  6  0  0  0
  5  6  1  1  0  0  0
  5  3  1  0  0  0  0
  7  9  1  0  0  0  0
  7  5  1  0  0  0  0
  7  8  1  6  0  0  0
  9 10  1  0  0  0  0
  9 11  1  1  0  0  0
 10  1  1  0  0  0  0
 11 12  1  0  0  0  0
 13 14  1  1  0  0  0
 13 21  1  0  0  0  0
 15 13  1  0  0  0  0
 16 15  1  0  0  0  0
 16 18  1  0  0  0  0
 16 17  1  1  0  0  0
 18  2  1  6  0  0  0
 18 19  1  0  0  0  0
 19 21  1  0  0  0  0
 19 20  1  1  0  0  0
 21 22  1  6  0  0  0
 23 20  1  1  0  0  0
 23 29  1  0  0  0  0
 23 24  1  0  0  0  0
 24 26  1  0  0  0  0
 24 25  1  1  0  0  0
 26 27  1  1  0  0  0
 28 26  1  0  0  0  0
 28 30  1  1  0  0  0
 29 28  1  0  0  0  0
 30 31  1  0  0  0  0
 32 27  1  6  0  0  0
 32 40  1  0  0  0  0
 32 33  1  0  0  0  0
 33 35  1  0  0  0  0
 33 34  1  6  0  0  0
 35 37  1  0  0  0  0
 35 36  1  1  0  0  0
 37 38  1  6  0  0  0
 39 37  1  0  0  0  0
 39 41  1  6  0  0  0
 40 39  1  0  0  0  0
 42 41  1  0  0  0  0
M  END
>  <CHROM.1>
-151.43108759,-170.68283484,46.59315714,65.27527480,-63.15916074,-67.09631919
68.53669464,-174.50083440,-176.92854540,-96.67550732,79.24859890,84.32234150
-51.64400297,147.20542076,-166.94111484,-161.83066571,175.27824145,41.42467762
-162.49111143,55.56248675,-54.45186170,-149.85538977,-0.24295277,2.57204657
2.87097081,1.63180807,1.18432709,-0.95817391

>  <Name>
lig.pdb

>  <RI>
0

>  <Rbt.Current_Directory>
/home/itssahil/PROJECTS/Mol_Feturizer/New_Systems/rnas/2mxs

>  <Rbt.Executable>
rbdock ($Id: //depot/dev/client3/rdock/2013.1/src/exe/rbdock.cxx#4 $)

>  <Rbt.Library>
libRbt.so (2013.1, Build901 2013/11/27)

>  <Rbt.Parameter_File>
/export/apps/rDock/src/rDock_2013.1_src/data/scripts/dock_solv.prm

>  <Rbt.Receptor>
prm/blind_docking_80.prm

>  <SCORE>
8.9053

>  <SCORE.INTER>
-12.6638

>  <SCORE.INTER.CONST>
1

>  <SCORE.INTER.POLAR>
-1.70602

>  <SCORE.INTER.ROT>
9

>  <SCORE.INTER.SOLV>
26.8952

>  <SCORE.INTER.VDW>
-21.3209

>  <SCORE.INTER.norm>
-0.30152

>  <SCORE.INTRA>
2.97521

>  <SCORE.INTRA.DIHEDRAL>
-4.91432

>  <SCORE.INTRA.DIHEDRAL.0>
30.1357

>  <SCORE.INTRA.POLAR>
-0.921821

>  <SCORE.INTRA.POLAR.0>
-0.631696

>  <SCORE.INTRA.REPUL>
0.0144532

>  <SCORE.INTRA.REPUL.0>
0

>  <SCORE.INTRA.SOLV>
3.13636

>  <SCORE.INTRA.SOLV.lig_0>
-55.904

>  <SCORE.INTRA.VDW>
6.92611

>  <SCORE.INTRA.VDW.0>
-8.21197

>  <SCORE.INTRA.norm>
0.0708382

>  <SCORE.RESTR>
18.5939

>  <SCORE.RESTR.CAVITY>
18.5939

>  <SCORE.RESTR.norm>
0.442713

>  <SCORE.SYSTEM>
0

>  <SCORE.SYSTEM.CONST>
0

>  <SCORE.SYSTEM.DIHEDRAL>
0

>  <SCORE.SYSTEM.SOLV>
0

>  <SCORE.SYSTEM.norm>
0

>  <SCORE.heavy>
42

>  <SCORE.norm>
0.212031

>  <RMSD>
5.208

$$$$
lig.pdb
 OpenBabel11021811453D
libRbt.so/2013.1/901 2013/11/27
 42 45  0  0  0  0  0  0  0  0999 V2000
    1.6615    1.5060   -1.0886 C   0  0  2  0  0  0  0  0  0  0  0  0
    1.3284    2.4003   -0.0251 O   0  0  0  0  0  0  0  0  0  0  0  0
    0.8975    0.1807   -0.9485 C   0  0  2  0  0  0  0  0  0  0  0  0
   -0.5554    0.4148   -0.8556 N   0  0  0  0  0  0  0  0  0  0  0  0
    1.4044   -0.6215    0.2569 C   0  0  1  0  0  0  0  0  0  0  0  0
    0.7893   -1.8955    0.2655 O   0  0  0  0  0  0  0  0  0  0  0  0
    2.9290   -0.7929    0.1790 C   0  0  2  0  0  0  0  0  0  0  0  0
    3.3944   -1.3938    1.3722 O   0  0  0  0  0  0  0  0  0  0  0  0
    3.6397    0.5586   -0.0368 C   0  0  2  0  0  0  0  0  0  0  0  0
    3.0672    1.2738   -1.1312 O   0  0  0  0  0  0  0  0  0  0  0  0
    5.1276    0.2773   -0.3204 C   0  0  0  0  0  0  0  0  0  0  0  0
    5.4056    0.1826   -1.7431 O   0  0  0  0  0  0  0  0  0  0  0  0
    0.4225    6.6085   -0.0499 C   0  0  2  0  0  0  0  0  0  0  0  0
    0.0247    7.8599   -0.7252 N   0  0  0  0  0  0  0  0  0  0  0  0
    1.7220    6.0688   -0.6526 C   0  0  0  0  0  0  0  0  0  0  0  0
    2.0640    4.7072   -0.0593 C   0  0  2  0  0  0  0  0  0  0  0  0
    3.3602    4.2430   -0.5695 N   0  0  0  0  0  0  0  0  0  0  0  0
    0.9206    3.7237   -0.4010 C   0  0  2  0  0  0  0  0  0  0  0  0
   -0.3134    4.1636    0.3197 C   0  0  2  0  0  0  0  0  0  0  0  0
   -1.3349    3.2279    0.0270 O   0  0  0  0  0  0  0  0  0  0  0  0
   -0.7005    5.5579   -0.1355 C   0  0  1  0  0  0  0  0  0  0  0  0
   -1.8161    6.0590    0.5768 O   0  0  0  0  0  0  0  0  0  0  0  0
   -2.1666    2.7972    1.0992 C   0  0  1  0  0  0  0  0  0  0  0  0
   -1.5538    3.3136    2.4027 C   0  0  2  0  0  0  0  0  0  0  0  0
   -1.7524    2.3553    3.4250 O   0  0  0  0  0  0  0  0  0  0  0  0
   -2.3343    4.6129    2.6431 C   0  0  2  0  0  0  0  0  0  0  0  0
   -2.3010    5.0341    4.0070 O   0  0  0  0  0  0  0  0  0  0  0  0
   -3.7175    4.1903    2.1329 C   0  0  2  0  0  0  0  0  0  0  0  0
   -3.4486    3.4014    0.9823 O   0  0  0  0  0  0  0  0  0  0  0  0
   -4.6289    5.3570    1.7347 C   0  0  0  0  0  0  0  0  0  0  0  0
   -5.1602    6.0118    2.8671 O   0  0  0  0  0  0  0  0  0  0  0  0
   -1.0082    4.9996    4.6083 C   0  0  2  0  0  0  0  0  0  0  0  0
   -1.0721    5.2888    6.1158 C   0  0  2  0  0  0  0  0  0  0  0  0
   -2.0005    4.3658    6.7897 N   0  0  0  0  0  0  0  0  0  0  0  0
   -1.4435    6.7550    6.3837 C   0  0  1  0  0  0  0  0  0  0  0  0
   -1.4026    6.9834    7.7791 O   0  0  0  0  0  0  0  0  0  0  0  0
   -0.4207    7.6542    5.6688 C   0  0  2  0  0  0  0  0  0  0  0  0
   -0.7428    9.0211    5.8485 O   0  0  0  0  0  0  0  0  0  0  0  0
   -0.3392    7.3127    4.1667 C   0  0  1  0  0  0  0  0  0  0  0  0
   -0.1282    5.9143    3.9587 O   0  0  0  0  0  0  0  0  0  0  0  0
   -1.5333    7.8394    3.3570 C   0  0  0  0  0  0  0  0  0  0  0  0
   -1.1019    8.8004    2.3290 N   0  0  0  0  0  0  0  0  0  0  0  0
  1  3  1  0  0  0  0
  1  2  1  1  0  0  0
  3  4  1  1  0  0  0
  5  6  1  6  0  0  0
  5  3  1  0  0  0  0
  7  9  1  0  0  0  0
  7  5  1  0  0  0  0
  7  8  1  1  0  0  0
  9 10  1  0  0  0  0
  9 11  1  6  0  0  0
 10  1  1  0  0  0  0
 11 12  1  0  0  0  0
 13 14  1  6  0  0  0
 13 21  1  0  0  0  0
 15 13  1  0  0  0  0
 16 15  1  0  0  0  0
 16 18  1  0  0  0  0
 16 17  1  6  0  0  0
 18  2  1  1  0  0  0
 18 19  1  0  0  0  0
 19 21  1  0  0  0  0
 19 20  1  6  0  0  0
 21 22  1  1  0  0  0
 23 20  1  6  0  0  0
 23 29  1  0  0  0  0
 23 24  1  0  0  0  0
 24 26  1  0  0  0  0
 24 25  1  1  0  0  0
 26 27  1  1  0  0  0
 28 26  1  0  0  0  0
 28 30  1  6  0  0  0
 29 28  1  0  0  0  0
 30 31  1  0  0  0  0
 32 27  1  6  0  0  0
 32 40  1  0  0  0  0
 32 33  1  0  0  0  0
 33 35  1  0  0  0  0
 33 34  1  1  0  0  0
 35 37  1  0  0  0  0
 35 36  1  1  0  0  0
 37 38  1  6  0  0  0
 39 37  1  0  0  0  0
 39 41  1  6  0  0  0
 40 39  1  0  0  0  0
 42 41  1  0  0  0  0
M  END
>  <CHROM.1>
-106.97224676,-128.37470553,-160.59206025,62.85651197,76.96566909,-26.20364759
93.31384340,51.16461053,61.97314163,136.87351944,-9.78580772,-15.75824085
-64.94122833,46.48843383,-172.64812586,-75.82867073,70.05388422,-68.86065221
75.50899547,171.36154762,118.39757201,161.47143562,-0.12295295,3.96519802
1.73995099,-0.70339020,0.86945463,-0.06296587

>  <Name>
lig.pdb

>  <RI>
0

>  <Rbt.Current_Directory>
/home/itssahil/PROJECTS/Mol_Feturizer/New_Systems/rnas/2mxs

>  <Rbt.Executable>
rbdock ($Id: //depot/dev/client3/rdock/2013.1/src/exe/rbdock.cxx#4 $)

>  <Rbt.Library>
libRbt.so (2013.1, Build901 2013/11/27)

>  <Rbt.Parameter_File>
/export/apps/rDock/src/rDock_2013.1_src/data/scripts/dock_solv.prm

>  <Rbt.Receptor>
prm/blind_docking_20.prm

>  <SCORE>
22.1199

>  <SCORE.INTER>
-12.7507

>  <SCORE.INTER.CONST>
1

>  <SCORE.INTER.POLAR>
-7.01777

>  <SCORE.INTER.ROT>
9

>  <SCORE.INTER.SOLV>
33.9508

>  <SCORE.INTER.VDW>
-6.02486

>  <SCORE.INTER.norm>
-0.303588

>  <SCORE.INTRA>
17.1317

>  <SCORE.INTRA.DIHEDRAL>
22.0324

>  <SCORE.INTRA.DIHEDRAL.0>
30.1357

>  <SCORE.INTRA.POLAR>
-0.36799

>  <SCORE.INTRA.POLAR.0>
-0.631696

>  <SCORE.INTRA.REPUL>
0

>  <SCORE.INTRA.REPUL.0>
0

>  <SCORE.INTRA.SOLV>
1.88989

>  <SCORE.INTRA.SOLV.lig_0>
-55.904

>  <SCORE.INTRA.VDW>
6.42171

>  <SCORE.INTRA.VDW.0>
-8.21197

>  <SCORE.INTRA.norm>
0.407897

>  <SCORE.RESTR>
17.7389

>  <SCORE.RESTR.CAVITY>
17.7389

>  <SCORE.RESTR.norm>
0.422355

>  <SCORE.SYSTEM>
0

>  <SCORE.SYSTEM.CONST>
0

>  <SCORE.SYSTEM.DIHEDRAL>
0

>  <SCORE.SYSTEM.SOLV>
0

>  <SCORE.SYSTEM.norm>
0

>  <SCORE.heavy>
42

>  <SCORE.norm>
0.526664

>  <RMSD>
5.212

$$$$
lig.pdb
 OpenBabel11021811453D
libRbt.so/2013.1/901 2013/11/27
 42 45  0  0  0  0  0  0  0  0999 V2000
    1.7631    1.9110   -1.2117 C   0  0  2  0  0  0  0  0  0  0  0  0
    1.5209    2.7451   -0.0772 O   0  0  0  0  0  0  0  0  0  0  0  0
    0.9606    0.6050   -1.1119 C   0  0  2  0  0  0  0  0  0  0  0  0
   -0.4757    0.8797   -0.9224 N   0  0  0  0  0  0  0  0  0  0  0  0
    1.5032   -0.2894    0.0103 C   0  0  1  0  0  0  0  0  0  0  0  0
    0.8439   -1.5406   -0.0261 O   0  0  0  0  0  0  0  0  0  0  0  0
    3.0141   -0.5049   -0.1644 C   0  0  2  0  0  0  0  0  0  0  0  0
    3.5218   -1.1963    0.9606 O   0  0  0  0  0  0  0  0  0  0  0  0
    3.7603    0.8339   -0.3350 C   0  0  2  0  0  0  0  0  0  0  0  0
    3.1552    1.6365   -1.3482 O   0  0  0  0  0  0  0  0  0  0  0  0
    5.2194    0.5233   -0.7194 C   0  0  0  0  0  0  0  0  0  0  0  0
    5.7035   -0.6946   -0.0929 O   0  0  0  0  0  0  0  0  0  0  0  0
    0.7071    6.9651    0.1678 C   0  0  2  0  0  0  0  0  0  0  0  0
    0.2381    8.2450   -0.4000 N   0  0  0  0  0  0  0  0  0  0  0  0
    1.8905    6.4266   -0.6401 C   0  0  0  0  0  0  0  0  0  0  0  0
    2.2898    5.0404   -0.1483 C   0  0  2  0  0  0  0  0  0  0  0  0
    3.4853    4.5742   -0.8619 N   0  0  0  0  0  0  0  0  0  0  0  0
    1.0883    4.0868   -0.3454 C   0  0  2  0  0  0  0  0  0  0  0  0
   -0.0147    4.5205    0.5662 C   0  0  2  0  0  0  0  0  0  0  0  0
   -1.0872    3.6112    0.4007 O   0  0  0  0  0  0  0  0  0  0  0  0
   -0.4372    5.9354    0.2187 C   0  0  1  0  0  0  0  0  0  0  0  0
   -1.4233    6.4287    1.1061 O   0  0  0  0  0  0  0  0  0  0  0  0
   -1.7138    3.1043    1.5743 C   0  0  1  0  0  0  0  0  0  0  0  0
   -1.0821    3.8027    2.7804 C   0  0  2  0  0  0  0  0  0  0  0  0
   -0.9962    2.8895    3.8581 O   0  0  0  0  0  0  0  0  0  0  0  0
   -2.0635    4.9516    3.0486 C   0  0  2  0  0  0  0  0  0  0  0  0
   -1.9744    5.4556    4.3816 O   0  0  0  0  0  0  0  0  0  0  0  0
   -3.3872    4.2548    2.7103 C   0  0  2  0  0  0  0  0  0  0  0  0
   -3.0911    3.4580    1.5719 O   0  0  0  0  0  0  0  0  0  0  0  0
   -4.5351    5.2104    2.3642 C   0  0  0  0  0  0  0  0  0  0  0  0
   -4.0820    6.5408    2.2307 O   0  0  0  0  0  0  0  0  0  0  0  0
   -0.6529    5.4906    4.9167 C   0  0  2  0  0  0  0  0  0  0  0  0
   -0.6571    5.7525    6.4305 C   0  0  2  0  0  0  0  0  0  0  0  0
   -1.4928    4.7648    7.1332 N   0  0  0  0  0  0  0  0  0  0  0  0
   -1.1015    7.1893    6.7433 C   0  0  1  0  0  0  0  0  0  0  0  0
   -1.0032    7.3986    8.1387 O   0  0  0  0  0  0  0  0  0  0  0  0
   -0.1722    8.1596    5.9945 C   0  0  2  0  0  0  0  0  0  0  0  0
   -0.5660    9.5016    6.2149 O   0  0  0  0  0  0  0  0  0  0  0  0
   -0.1471    7.8465    4.4843 C   0  0  1  0  0  0  0  0  0  0  0  0
    0.1364    6.4668    4.2406 O   0  0  0  0  0  0  0  0  0  0  0  0
   -1.4104    8.3118    3.7450 C   0  0  0  0  0  0  0  0  0  0  0  0
   -1.0786    8.9161    2.4446 N   0  0  0  0  0  0  0  0  0  0  0  0
  1  3  1  0  0  0  0
  1  2  1  1  0  0  0
  3  4  1  1  0  0  0
  5  6  1  6  0  0  0
  5  3  1  0  0  0  0
  7  9  1  0  0  0  0
  7  5  1  0  0  0  0
  7  8  1  1  0  0  0
  9 10  1  0  0  0  0
  9 11  1  6  0  0  0
 10  1  1  0  0  0  0
 11 12  1  0  0  0  0
 13 14  1  6  0  0  0
 13 21  1  0  0  0  0
 15 13  1  0  0  0  0
 16 15  1  0  0  0  0
 16 18  1  0  0  0  0
 16 17  1  6  0  0  0
 18  2  1  1  0  0  0
 18 19  1  0  0  0  0
 19 21  1  0  0  0  0
 19 20  1  6  0  0  0
 21 22  1  1  0  0  0
 23 20  1  6  0  0  0
 23 29  1  0  0  0  0
 23 24  1  0  0  0  0
 24 26  1  0  0  0  0
 24 25  1  1  0  0  0
 26 27  1  1  0  0  0
 28 26  1  0  0  0  0
 28 30  1  6  0  0  0
 29 28  1  0  0  0  0
 30 31  1  0  0  0  0
 32 27  1  6  0  0  0
 32 40  1  0  0  0  0
 32 33  1  0  0  0  0
 33 35  1  0  0  0  0
 33 34  1  1  0  0  0
 35 37  1  0  0  0  0
 35 36  1  1  0  0  0
 37 38  1  6  0  0  0
 39 37  1  0  0  0  0
 39 41  1  1  0  0  0
 40 39  1  0  0  0  0
 42 41  1  0  0  0  0
M  END
>  <CHROM.1>
-102.72236427,-125.91165906,-45.15345735,58.14022298,115.84381866,-176.20156549
-33.80094261,-133.60525220,-1.24334188,133.75854556,4.26276528,87.11883809
100.87281531,36.90128176,-167.85712763,8.97815150,-68.39479419,58.00828266
-60.86167284,-50.53729725,138.55298777,42.32519383,0.14125506,4.28916994
1.91925535,-0.43266902,1.05166038,-0.39704355

>  <Name>
lig.pdb

>  <RI>
3.17932e+07

>  <Rbt.Current_Directory>
/home/itssahil/PROJECTS/Mol_Feturizer/New_Systems/rnas/2mxs

>  <Rbt.Executable>
rbdock ($Id: //depot/dev/client3/rdock/2013.1/src/exe/rbdock.cxx#4 $)

>  <Rbt.Library>
libRbt.so (2013.1, Build901 2013/11/27)

>  <Rbt.Parameter_File>
/export/apps/rDock/src/rDock_2013.1_src/data/scripts/dock_solv.prm

>  <Rbt.Receptor>
prm/blind_docking_100.prm

>  <SCORE>
18.9503

>  <SCORE.INTER>
-26.2754

>  <SCORE.INTER.CONST>
1

>  <SCORE.INTER.POLAR>
-6.77497

>  <SCORE.INTER.ROT>
9

>  <SCORE.INTER.SOLV>
32.1375

>  <SCORE.INTER.VDW>
-15.2462

>  <SCORE.INTER.norm>
-0.625605

>  <SCORE.INTRA>
27.1907

>  <SCORE.INTRA.DIHEDRAL>
34.9407

>  <SCORE.INTRA.DIHEDRAL.0>
30.1357

>  <SCORE.INTRA.POLAR>
-1.09345

>  <SCORE.INTRA.POLAR.0>
-0.631696

>  <SCORE.INTRA.REPUL>
0

>  <SCORE.INTRA.REPUL.0>
0

>  <SCORE.INTRA.SOLV>
4.19523

>  <SCORE.INTRA.SOLV.lig_0>
-55.904

>  <SCORE.INTRA.VDW>
11.3405

>  <SCORE.INTRA.VDW.0>
-8.21197

>  <SCORE.INTRA.norm>
0.647399

>  <SCORE.RESTR>
18.035

>  <SCORE.RESTR.CAVITY>
18.035

>  <SCORE.RESTR.norm>
0.429404

>  <SCORE.SYSTEM>
0

>  <SCORE.SYSTEM.CONST>
0

>  <SCORE.SYSTEM.DIHEDRAL>
0

>  <SCORE.SYSTEM.SOLV>
0

>  <SCORE.SYSTEM.norm>
0

>  <SCORE.heavy>
42

>  <SCORE.norm>
0.451198

>  <RMSD>
5.219

$$$$
lig.pdb
 OpenBabel11021811453D
libRbt.so/2013.1/901 2013/11/27
 42 45  0  0  0  0  0  0  0  0999 V2000
   -1.0815    0.7833    2.2638 C   0  0  2  0  0  0  0  0  0  0  0  0
   -0.1212    1.5319    1.5162 O   0  0  0  0  0  0  0  0  0  0  0  0
   -0.8228   -0.7251    2.1314 C   0  0  2  0  0  0  0  0  0  0  0  0
    0.5612   -1.0601    2.5143 N   0  0  0  0  0  0  0  0  0  0  0  0
   -1.1352   -1.2141    0.7112 C   0  0  1  0  0  0  0  0  0  0  0  0
   -1.0336   -2.6245    0.6672 O   0  0  0  0  0  0  0  0  0  0  0  0
   -2.5552   -0.7931    0.3038 C   0  0  2  0  0  0  0  0  0  0  0  0
   -2.7659   -1.1127   -1.0582 O   0  0  0  0  0  0  0  0  0  0  0  0
   -2.7839    0.7155    0.5275 C   0  0  2  0  0  0  0  0  0  0  0  0
   -2.4065    1.1045    1.8478 O   0  0  0  0  0  0  0  0  0  0  0  0
   -4.2794    1.0113    0.3053 C   0  0  0  0  0  0  0  0  0  0  0  0
   -4.6884    0.7656   -1.0667 O   0  0  0  0  0  0  0  0  0  0  0  0
    0.2359    5.7909    1.0024 C   0  0  2  0  0  0  0  0  0  0  0  0
   -0.3243    7.1307    0.7350 N   0  0  0  0  0  0  0  0  0  0  0  0
   -0.0150    4.8621   -0.1882 C   0  0  0  0  0  0  0  0  0  0  0  0
    0.4339    3.4419    0.1349 C   0  0  2  0  0  0  0  0  0  0  0  0
    0.2806    2.5811   -1.0446 N   0  0  0  0  0  0  0  0  0  0  0  0
   -0.3922    2.9297    1.3377 C   0  0  2  0  0  0  0  0  0  0  0  0
   -0.0260    3.7371    2.5417 C   0  0  2  0  0  0  0  0  0  0  0  0
   -0.7611    3.2255    3.6382 O   0  0  0  0  0  0  0  0  0  0  0  0
   -0.3540    5.1977    2.2957 C   0  0  1  0  0  0  0  0  0  0  0  0
    0.0503    6.0219    3.3728 O   0  0  0  0  0  0  0  0  0  0  0  0
   -0.9234    4.0645    4.7769 C   0  0  1  0  0  0  0  0  0  0  0  0
   -1.5686    3.2293    5.8849 C   0  0  2  0  0  0  0  0  0  0  0  0
   -2.4556    4.0435    6.6286 O   0  0  0  0  0  0  0  0  0  0  0  0
   -0.3538    2.7691    6.7020 C   0  0  2  0  0  0  0  0  0  0  0  0
   -0.6958    2.3877    8.0348 O   0  0  0  0  0  0  0  0  0  0  0  0
    0.5272    4.0200    6.5958 C   0  0  2  0  0  0  0  0  0  0  0  0
    0.3520    4.4683    5.2591 O   0  0  0  0  0  0  0  0  0  0  0  0
    2.0187    3.7667    6.8445 C   0  0  0  0  0  0  0  0  0  0  0  0
    2.7799    4.9449    6.6850 O   0  0  0  0  0  0  0  0  0  0  0  0
    0.3789    2.4644    8.9693 C   0  0  2  0  0  0  0  0  0  0  0  0
    0.2303    1.4305   10.0959 C   0  0  2  0  0  0  0  0  0  0  0  0
    0.0940    0.0708    9.5477 N   0  0  0  0  0  0  0  0  0  0  0  0
   -0.9436    1.7840   11.0214 C   0  0  1  0  0  0  0  0  0  0  0  0
   -0.9780    0.8506   12.0836 O   0  0  0  0  0  0  0  0  0  0  0  0
   -0.7201    3.2036   11.5697 C   0  0  2  0  0  0  0  0  0  0  0  0
   -1.7991    3.5968   12.3978 O   0  0  0  0  0  0  0  0  0  0  0  0
   -0.5255    4.2153   10.4216 C   0  0  1  0  0  0  0  0  0  0  0  0
    0.4833    3.7809    9.5068 O   0  0  0  0  0  0  0  0  0  0  0  0
   -1.8331    4.5797    9.7030 C   0  0  0  0  0  0  0  0  0  0  0  0
   -2.5921    3.3758    9.3278 N   0  0  0  0  0  0  0  0  0  0  0  0
  1  3  1  0  0  0  0
  1  2  1  6  0  0  0
  3  4  1  6  0  0  0
  5  6  1  1  0  0  0
  5  3  1  0  0  0  0
  7  9  1  0  0  0  0
  7  5  1  0  0  0  0
  7  8  1  6  0  0  0
  9 10  1  0  0  0  0
  9 11  1  1  0  0  0
 10  1  1  0  0  0  0
 11 12  1  0  0  0  0
 13 14  1  6  0  0  0
 13 21  1  0  0  0  0
 15 13  1  0  0  0  0
 16 15  1  0  0  0  0
 16 18  1  0  0  0  0
 16 17  1  6  0  0  0
 18  2  1  1  0  0  0
 18 19  1  0  0  0  0
 19 21  1  0  0  0  0
 19 20  1  1  0  0  0
 21 22  1  1  0  0  0
 23 20  1  6  0  0  0
 23 29  1  0  0  0  0
 23 24  1  0  0  0  0
 24 26  1  0  0  0  0
 24 25  1  1  0  0  0
 26 27  1  1  0  0  0
 28 26  1  0  0  0  0
 28 30  1  6  0  0  0
 29 28  1  0  0  0  0
 30 31  1  0  0  0  0
 32 27  1  6  0  0  0
 32 40  1  0  0  0  0
 32 33  1  0  0  0  0
 33 35  1  0  0  0  0
 33 34  1  6  0  0  0
 35 37  1  0  0  0  0
 35 36  1  1  0  0  0
 37 38  1  6  0  0  0
 39 37  1  0  0  0  0
 39 41  1  6  0  0  0
 40 39  1  0  0  0  0
 42 41  1  0  0  0  0
M  END
>  <CHROM.1>
-160.10504498,168.31256183,-65.41343936,178.28319978,-58.60146431,58.49028966
-64.57547768,56.57587664,76.27302692,-160.21864051,-172.11763061,-77.56341396
59.55806692,-156.36900640,-150.23531383,177.86747836,-68.77308805,64.56531998
-72.16445344,-58.99256380,-49.42309453,-159.56877269,-0.78723633,2.51244237
4.67550854,1.85349694,-1.24187908,-1.46575550

>  <Name>
lig.pdb

>  <RI>
0

>  <Rbt.Current_Directory>
/home/itssahil/PROJECTS/Mol_Feturizer/New_Systems/rnas/2mxs

>  <Rbt.Executable>
rbdock ($Id: //depot/dev/client3/rdock/2013.1/src/exe/rbdock.cxx#4 $)

>  <Rbt.Library>
libRbt.so (2013.1, Build901 2013/11/27)

>  <Rbt.Parameter_File>
/export/apps/rDock/src/rDock_2013.1_src/data/scripts/dock_solv.prm

>  <Rbt.Receptor>
prm/pocket_docking_4.prm

>  <SCORE>
-34.6505

>  <SCORE.INTER>
-34.0565

>  <SCORE.INTER.CONST>
1

>  <SCORE.INTER.POLAR>
-5.30714

>  <SCORE.INTER.ROT>
9

>  <SCORE.INTER.SOLV>
16.623

>  <SCORE.INTER.VDW>
-20.1548

>  <SCORE.INTER.norm>
-0.810868

>  <SCORE.INTRA>
-0.605941

>  <SCORE.INTRA.DIHEDRAL>
-14.2997

>  <SCORE.INTRA.DIHEDRAL.0>
30.1357

>  <SCORE.INTRA.POLAR>
-0.847273

>  <SCORE.INTRA.POLAR.0>
-0.631696

>  <SCORE.INTRA.REPUL>
0.00973966

>  <SCORE.INTRA.REPUL.0>
0

>  <SCORE.INTRA.SOLV>
1.68053

>  <SCORE.INTRA.SOLV.lig_0>
-55.904

>  <SCORE.INTRA.VDW>
8.53568

>  <SCORE.INTRA.VDW.0>
-8.21197

>  <SCORE.INTRA.norm>
-0.0144272

>  <SCORE.RESTR>
0.0119022

>  <SCORE.RESTR.CAVITY>
0.0119022

>  <SCORE.RESTR.norm>
0.000283385

>  <SCORE.SYSTEM>
0

>  <SCORE.SYSTEM.CONST>
0

>  <SCORE.SYSTEM.DIHEDRAL>
0

>  <SCORE.SYSTEM.SOLV>
0

>  <SCORE.SYSTEM.norm>
0

>  <SCORE.heavy>
42

>  <SCORE.norm>
-0.825012

>  <RMSD>
5.234

$$$$
lig.pdb
 OpenBabel11021811453D
libRbt.so/2013.1/901 2013/11/27
 42 45  0  0  0  0  0  0  0  0999 V2000
    1.0465    3.3287   -0.4805 C   0  0  2  0  0  0  0  0  0  0  0  0
    1.3992    4.2968    0.5094 O   0  0  0  0  0  0  0  0  0  0  0  0
    1.1436    1.9048    0.0877 C   0  0  2  0  0  0  0  0  0  0  0  0
    0.3326    1.7671    1.3115 N   0  0  0  0  0  0  0  0  0  0  0  0
    2.6044    1.5151    0.3482 C   0  0  1  0  0  0  0  0  0  0  0  0
    2.6672    0.1525    0.7237 O   0  0  0  0  0  0  0  0  0  0  0  0
    3.4472    1.7336   -0.9174 C   0  0  2  0  0  0  0  0  0  0  0  0
    4.8125    1.5211   -0.6135 O   0  0  0  0  0  0  0  0  0  0  0  0
    3.2541    3.1535   -1.4872 C   0  0  2  0  0  0  0  0  0  0  0  0
    1.8694    3.4658   -1.6363 O   0  0  0  0  0  0  0  0  0  0  0  0
    3.9526    3.2183   -2.8588 C   0  0  0  0  0  0  0  0  0  0  0  0
    5.4002    3.2197   -2.7367 O   0  0  0  0  0  0  0  0  0  0  0  0
   -0.5529    7.9684    1.6225 C   0  0  2  0  0  0  0  0  0  0  0  0
   -1.7398    8.8391    1.7390 N   0  0  0  0  0  0  0  0  0  0  0  0
   -0.2940    7.6156    0.1556 C   0  0  0  0  0  0  0  0  0  0  0  0
    0.8417    6.6058    0.0387 C   0  0  2  0  0  0  0  0  0  0  0  0
    1.1477    6.3485   -1.3740 N   0  0  0  0  0  0  0  0  0  0  0  0
    0.4287    5.3168    0.7866 C   0  0  2  0  0  0  0  0  0  0  0  0
    0.3320    5.6266    2.2461 C   0  0  2  0  0  0  0  0  0  0  0  0
   -0.0056    4.4258    2.9158 O   0  0  0  0  0  0  0  0  0  0  0  0
   -0.7211    6.6949    2.4723 C   0  0  1  0  0  0  0  0  0  0  0  0
   -0.7963    7.0881    3.8298 O   0  0  0  0  0  0  0  0  0  0  0  0
   -0.6009    4.5302    4.2048 C   0  0  1  0  0  0  0  0  0  0  0  0
   -1.5008    3.3089    4.4046 C   0  0  2  0  0  0  0  0  0  0  0  0
   -2.6469    3.6878    5.1432 O   0  0  0  0  0  0  0  0  0  0  0  0
   -0.5861    2.3466    5.1743 C   0  0  2  0  0  0  0  0  0  0  0  0
   -1.3121    1.3484    5.8921 O   0  0  0  0  0  0  0  0  0  0  0  0
    0.1735    3.3478    6.0533 C   0  0  2  0  0  0  0  0  0  0  0  0
    0.4083    4.4626    5.2044 O   0  0  0  0  0  0  0  0  0  0  0  0
    1.5172    2.8333    6.5826 C   0  0  0  0  0  0  0  0  0  0  0  0
    1.3412    1.8766    7.6057 O   0  0  0  0  0  0  0  0  0  0  0  0
   -1.9458    0.3690    5.0716 C   0  0  2  0  0  0  0  0  0  0  0  0
   -2.3338   -0.8827    5.8733 C   0  0  2  0  0  0  0  0  0  0  0  0
   -3.1745   -0.5278    7.0289 N   0  0  0  0  0  0  0  0  0  0  0  0
   -1.0890   -1.6725    6.3050 C   0  0  1  0  0  0  0  0  0  0  0  0
   -1.5085   -2.8533    6.9610 O   0  0  0  0  0  0  0  0  0  0  0  0
   -0.2762   -2.0244    5.0475 C   0  0  2  0  0  0  0  0  0  0  0  0
    0.9083   -2.7182    5.3941 O   0  0  0  0  0  0  0  0  0  0  0  0
    0.0598   -0.7575    4.2340 C   0  0  1  0  0  0  0  0  0  0  0  0
   -1.1101    0.0204    3.9702 O   0  0  0  0  0  0  0  0  0  0  0  0
    1.1815    0.0864    4.8572 C   0  0  0  0  0  0  0  0  0  0  0  0
    2.4563   -0.1086    4.1479 N   0  0  0  0  0  0  0  0  0  0  0  0
  1  3  1  0  0  0  0
  1  2  1  1  0  0  0
  3  4  1  1  0  0  0
  5  6  1  6  0  0  0
  5  3  1  0  0  0  0
  7  9  1  0  0  0  0
  7  5  1  0  0  0  0
  7  8  1  1  0  0  0
  9 10  1  0  0  0  0
  9 11  1  6  0  0  0
 10  1  1  0  0  0  0
 11 12  1  0  0  0  0
 13 14  1  6  0  0  0
 13 21  1  0  0  0  0
 15 13  1  0  0  0  0
 16 15  1  0  0  0  0
 16 18  1  0  0  0  0
 16 17  1  6  0  0  0
 18  2  1  1  0  0  0
 18 19  1  0  0  0  0
 19 21  1  0  0  0  0
 19 20  1  1  0  0  0
 21 22  1  1  0  0  0
 23 20  1  6  0  0  0
 23 29  1  0  0  0  0
 23 24  1  0  0  0  0
 24 26  1  0  0  0  0
 24 25  1  1  0  0  0
 26 27  1  1  0  0  0
 28 26  1  0  0  0  0
 28 30  1  6  0  0  0
 29 28  1  0  0  0  0
 30 31  1  0  0  0  0
 32 27  1  1  0  0  0
 32 40  1  0  0  0  0
 32 33  1  0  0  0  0
 33 35  1  0  0  0  0
 33 34  1  1  0  0  0
 35 37  1  0  0  0  0
 35 36  1  6  0  0  0
 37 38  1  1  0  0  0
 39 37  1  0  0  0  0
 39 41  1  1  0  0  0
 40 39  1  0  0  0  0
 42 41  1  0  0  0  0
M  END
>  <CHROM.1>
-100.39154894,-124.28130609,82.74355091,62.79896607,-173.18244401,-68.96275061
-71.99366801,7.05438073,-2.90187377,-158.62155692,150.96190067,58.57163417
71.23700021,70.16600494,162.65270664,-73.47059553,70.61720208,-26.86347521
-148.54466869,-56.96202290,102.80704634,137.83210862,0.50496463,2.65316811
2.77628771,-1.05957191,-0.90680700,2.66452202

>  <Name>
lig.pdb

>  <RI>
0

>  <Rbt.Current_Directory>
/home/itssahil/PROJECTS/Mol_Feturizer/New_Systems/rnas/2mxs

>  <Rbt.Executable>
rbdock ($Id: //depot/dev/client3/rdock/2013.1/src/exe/rbdock.cxx#4 $)

>  <Rbt.Library>
libRbt.so (2013.1, Build901 2013/11/27)

>  <Rbt.Parameter_File>
/export/apps/rDock/src/rDock_2013.1_src/data/scripts/dock_solv.prm

>  <Rbt.Receptor>
prm/blind_docking_80.prm

>  <SCORE>
-10.9781

>  <SCORE.INTER>
-35.9025

>  <SCORE.INTER.CONST>
1

>  <SCORE.INTER.POLAR>
-5.79172

>  <SCORE.INTER.ROT>
9

>  <SCORE.INTER.SOLV>
28.7116

>  <SCORE.INTER.VDW>
-23.7998

>  <SCORE.INTER.norm>
-0.854822

>  <SCORE.INTRA>
10.0632

>  <SCORE.INTRA.DIHEDRAL>
14.4596

>  <SCORE.INTRA.DIHEDRAL.0>
30.1357

>  <SCORE.INTRA.POLAR>
-1.80261

>  <SCORE.INTRA.POLAR.0>
-0.631696

>  <SCORE.INTRA.REPUL>
0

>  <SCORE.INTRA.REPUL.0>
0

>  <SCORE.INTRA.SOLV>
0.925739

>  <SCORE.INTRA.SOLV.lig_0>
-55.904

>  <SCORE.INTRA.VDW>
8.49944

>  <SCORE.INTRA.VDW.0>
-8.21197

>  <SCORE.INTRA.norm>
0.239601

>  <SCORE.RESTR>
14.8612

>  <SCORE.RESTR.CAVITY>
14.8612

>  <SCORE.RESTR.norm>
0.353837

>  <SCORE.SYSTEM>
0

>  <SCORE.SYSTEM.CONST>
0

>  <SCORE.SYSTEM.DIHEDRAL>
0

>  <SCORE.SYSTEM.SOLV>
0

>  <SCORE.SYSTEM.norm>
0

>  <SCORE.heavy>
42

>  <SCORE.norm>
-0.261384

>  <RMSD>
5.239

$$$$
lig.pdb
 OpenBabel11021811453D
libRbt.so/2013.1/901 2013/11/27
 42 45  0  0  0  0  0  0  0  0999 V2000
    2.3738    1.9240   -0.9461 C   0  0  2  0  0  0  0  0  0  0  0  0
    2.3653    2.9491    0.0492 O   0  0  0  0  0  0  0  0  0  0  0  0
    0.9479    1.6177   -1.4282 C   0  0  2  0  0  0  0  0  0  0  0  0
    0.2741    2.8419   -1.8991 N   0  0  0  0  0  0  0  0  0  0  0  0
    0.1314    0.9282   -0.3275 C   0  0  1  0  0  0  0  0  0  0  0  0
   -1.1188    0.5251   -0.8528 O   0  0  0  0  0  0  0  0  0  0  0  0
    0.8828   -0.3035    0.2000 C   0  0  2  0  0  0  0  0  0  0  0  0
    0.1923   -0.8308    1.3165 O   0  0  0  0  0  0  0  0  0  0  0  0
    2.3311    0.0455    0.5989 C   0  0  2  0  0  0  0  0  0  0  0  0
    3.0011    0.7441   -0.4500 O   0  0  0  0  0  0  0  0  0  0  0  0
    3.0734   -1.2691    0.9056 C   0  0  0  0  0  0  0  0  0  0  0  0
    4.4550   -1.2352    0.4581 O   0  0  0  0  0  0  0  0  0  0  0  0
    0.7646    6.9449    0.0052 C   0  0  2  0  0  0  0  0  0  0  0  0
   -0.0793    8.0129   -0.5671 N   0  0  0  0  0  0  0  0  0  0  0  0
    1.8168    6.4959   -1.0118 C   0  0  0  0  0  0  0  0  0  0  0  0
    2.5994    5.3000   -0.4823 C   0  0  2  0  0  0  0  0  0  0  0  0
    3.6696    4.9388   -1.4204 N   0  0  0  0  0  0  0  0  0  0  0  0
    1.6117    4.1325   -0.2521 C   0  0  2  0  0  0  0  0  0  0  0  0
    0.6817    4.5107    0.8558 C   0  0  2  0  0  0  0  0  0  0  0  0
   -0.1855    3.4138    1.0781 O   0  0  0  0  0  0  0  0  0  0  0  0
   -0.0959    5.7540    0.4674 C   0  0  1  0  0  0  0  0  0  0  0  0
   -0.9327    6.2065    1.5152 O   0  0  0  0  0  0  0  0  0  0  0  0
   -0.8624    3.3465    2.3287 C   0  0  1  0  0  0  0  0  0  0  0  0
   -1.4458    1.9390    2.4694 C   0  0  2  0  0  0  0  0  0  0  0  0
   -2.6910    2.0130    3.1379 O   0  0  0  0  0  0  0  0  0  0  0  0
   -0.3699    1.2157    3.2906 C   0  0  2  0  0  0  0  0  0  0  0  0
   -0.8698    0.0576    3.9597 O   0  0  0  0  0  0  0  0  0  0  0  0
    0.0686    2.3563    4.2173 C   0  0  2  0  0  0  0  0  0  0  0  0
    0.0723    3.5096    3.3878 O   0  0  0  0  0  0  0  0  0  0  0  0
    1.4641    2.1762    4.8261 C   0  0  0  0  0  0  0  0  0  0  0  0
    1.4306    2.2530    6.2354 O   0  0  0  0  0  0  0  0  0  0  0  0
   -0.2033   -0.2576    5.1806 C   0  0  2  0  0  0  0  0  0  0  0  0
   -0.5903   -1.6511    5.6987 C   0  0  2  0  0  0  0  0  0  0  0  0
   -0.3454   -2.6801    4.6744 N   0  0  0  0  0  0  0  0  0  0  0  0
   -2.0472   -1.6770    6.1847 C   0  0  1  0  0  0  0  0  0  0  0  0
   -2.3195   -2.9544    6.7276 O   0  0  0  0  0  0  0  0  0  0  0  0
   -2.2192   -0.5943    7.2637 C   0  0  2  0  0  0  0  0  0  0  0  0
   -3.5597   -0.5465    7.7167 O   0  0  0  0  0  0  0  0  0  0  0  0
   -1.7791    0.7867    6.7360 C   0  0  1  0  0  0  0  0  0  0  0  0
   -0.4683    0.7364    6.1679 O   0  0  0  0  0  0  0  0  0  0  0  0
   -2.7956    1.4245    5.7775 C   0  0  0  0  0  0  0  0  0  0  0  0
   -3.5234    0.4013    5.0095 N   0  0  0  0  0  0  0  0  0  0  0  0
  1  3  1  0  0  0  0
  1  2  1  1  0  0  0
  3  4  1  1  0  0  0
  5  6  1  6  0  0  0
  5  3  1  0  0  0  0
  7  9  1  0  0  0  0
  7  5  1  0  0  0  0
  7  8  1  1  0  0  0
  9 10  1  0  0  0  0
  9 11  1  6  0  0  0
 10  1  1  0  0  0  0
 11 12  1  0  0  0  0
 13 14  1  6  0  0  0
 13 21  1  0  0  0  0
 15 13  1  0  0  0  0
 16 15  1  0  0  0  0
 16 18  1  0  0  0  0
 16 17  1  6  0  0  0
 18  2  1  1  0  0  0
 18 19  1  0  0  0  0
 19 21  1  0  0  0  0
 19 20  1  6  0  0  0
 21 22  1  1  0  0  0
 23 20  1  6  0  0  0
 23 29  1  0  0  0  0
 23 24  1  0  0  0  0
 24 26  1  0  0  0  0
 24 25  1  1  0  0  0
 26 27  1  1  0  0  0
 28 26  1  0  0  0  0
 28 30  1  6  0  0  0
 29 28  1  0  0  0  0
 30 31  1  0  0  0  0
 32 27  1  6  0  0  0
 32 40  1  0  0  0  0
 32 33  1  0  0  0  0
 33 35  1  0  0  0  0
 33 34  1  6  0  0  0
 35 37  1  0  0  0  0
 35 36  1  1  0  0  0
 37 38  1  6  0  0  0
 39 37  1  0  0  0  0
 39 41  1  6  0  0  0
 40 39  1  0  0  0  0
 42 41  1  0  0  0  0
M  END
>  <CHROM.1>
-110.11000196,-48.93089895,153.15483305,61.26061907,-174.96076713,-42.74183554
142.83843300,103.53586848,-176.97924612,160.30594312,-166.21107980,166.67970648
59.57245635,-150.36356582,-168.53069699,-124.92634426,-56.52596986,-85.75353929
63.16337780,174.61370864,-31.45548553,57.35631937,0.11359296,1.77534533,2.35986288
-0.93959055,-0.91715647,2.75075274

>  <Name>
lig.pdb

>  <RI>
0

>  <Rbt.Current_Directory>
/home/itssahil/PROJECTS/Mol_Feturizer/New_Systems/rnas/2mxs

>  <Rbt.Executable>
rbdock ($Id: //depot/dev/client3/rdock/2013.1/src/exe/rbdock.cxx#4 $)

>  <Rbt.Library>
libRbt.so (2013.1, Build901 2013/11/27)

>  <Rbt.Parameter_File>
/export/apps/rDock/src/rDock_2013.1_src/data/scripts/dock_solv.prm

>  <Rbt.Receptor>
prm/blind_docking_80.prm

>  <SCORE>
47.5372

>  <SCORE.INTER>
11.7153

>  <SCORE.INTER.CONST>
1

>  <SCORE.INTER.POLAR>
-3.58828

>  <SCORE.INTER.ROT>
9

>  <SCORE.INTER.SOLV>
22.3673

>  <SCORE.INTER.VDW>
2.71536

>  <SCORE.INTER.norm>
0.278936

>  <SCORE.INTRA>
14.1474

>  <SCORE.INTRA.DIHEDRAL>
4.13387

>  <SCORE.INTRA.DIHEDRAL.0>
30.1357

>  <SCORE.INTRA.POLAR>
-1.20849

>  <SCORE.INTRA.POLAR.0>
-0.631696

>  <SCORE.INTRA.REPUL>
0.00523971

>  <SCORE.INTRA.REPUL.0>
0

>  <SCORE.INTRA.SOLV>
4.40659

>  <SCORE.INTRA.SOLV.lig_0>
-55.904

>  <SCORE.INTRA.VDW>
13.9598

>  <SCORE.INTRA.VDW.0>
-8.21197

>  <SCORE.INTRA.norm>
0.336843

>  <SCORE.RESTR>
21.6745

>  <SCORE.RESTR.CAVITY>
21.6745

>  <SCORE.RESTR.norm>
0.51606

>  <SCORE.SYSTEM>
0

>  <SCORE.SYSTEM.CONST>
0

>  <SCORE.SYSTEM.DIHEDRAL>
0

>  <SCORE.SYSTEM.SOLV>
0

>  <SCORE.SYSTEM.norm>
0

>  <SCORE.heavy>
42

>  <SCORE.norm>
1.13184

>  <RMSD>
5.254

$$$$
lig.pdb
 OpenBabel11021811453D
libRbt.so/2013.1/901 2013/11/27
 42 45  0  0  0  0  0  0  0  0999 V2000
    0.8192    1.5230    1.6147 C   0  0  2  0  0  0  0  0  0  0  0  0
    1.4754    2.2635    0.5838 O   0  0  0  0  0  0  0  0  0  0  0  0
    1.4002    0.1052    1.7245 C   0  0  2  0  0  0  0  0  0  0  0  0
    2.8618    0.1457    1.9156 N   0  0  0  0  0  0  0  0  0  0  0  0
    1.0281   -0.7380    0.4981 C   0  0  1  0  0  0  0  0  0  0  0  0
    1.4463   -2.0740    0.7024 O   0  0  0  0  0  0  0  0  0  0  0  0
   -0.4913   -0.7090    0.2735 C   0  0  2  0  0  0  0  0  0  0  0  0
   -0.7970   -1.3574   -0.9461 O   0  0  0  0  0  0  0  0  0  0  0  0
   -1.0315    0.7352    0.2467 C   0  0  2  0  0  0  0  0  0  0  0  0
   -0.5865    1.4738    1.3841 O   0  0  0  0  0  0  0  0  0  0  0  0
   -2.5707    0.6707    0.2379 C   0  0  0  0  0  0  0  0  0  0  0  0
   -3.1744    1.9919    0.2456 O   0  0  0  0  0  0  0  0  0  0  0  0
    0.7676    6.3940   -0.4004 C   0  0  2  0  0  0  0  0  0  0  0  0
   -0.0804    7.4973   -0.8943 N   0  0  0  0  0  0  0  0  0  0  0  0
    0.9496    5.3343   -1.4899 C   0  0  0  0  0  0  0  0  0  0  0  0
    1.7046    4.1278   -0.9446 C   0  0  2  0  0  0  0  0  0  0  0  0
    1.9600    3.1612   -2.0199 N   0  0  0  0  0  0  0  0  0  0  0  0
    0.8745    3.5103    0.2049 C   0  0  2  0  0  0  0  0  0  0  0  0
    0.8325    4.4871    1.3361 C   0  0  2  0  0  0  0  0  0  0  0  0
    0.1047    3.8864    2.3916 O   0  0  0  0  0  0  0  0  0  0  0  0
    0.1707    5.7723    0.8762 C   0  0  1  0  0  0  0  0  0  0  0  0
    0.1793    6.7650    1.8849 O   0  0  0  0  0  0  0  0  0  0  0  0
   -1.2476    4.2904    2.5785 C   0  0  1  0  0  0  0  0  0  0  0  0
   -1.9376    3.2301    3.4393 C   0  0  2  0  0  0  0  0  0  0  0  0
   -3.2788    3.0812    3.0129 O   0  0  0  0  0  0  0  0  0  0  0  0
   -1.8223    3.8232    4.8500 C   0  0  2  0  0  0  0  0  0  0  0  0
   -2.7845    3.2846    5.7570 O   0  0  0  0  0  0  0  0  0  0  0  0
   -2.0029    5.3118    4.5280 C   0  0  2  0  0  0  0  0  0  0  0  0
   -1.2862    5.5052    3.3168 O   0  0  0  0  0  0  0  0  0  0  0  0
   -1.4451    6.2621    5.5939 C   0  0  0  0  0  0  0  0  0  0  0  0
   -1.4067    7.5959    5.1326 O   0  0  0  0  0  0  0  0  0  0  0  0
   -2.5686    3.6264    7.1247 C   0  0  2  0  0  0  0  0  0  0  0  0
   -1.5760    2.6695    7.8023 C   0  0  2  0  0  0  0  0  0  0  0  0
   -0.3068    2.6141    7.0580 N   0  0  0  0  0  0  0  0  0  0  0  0
   -2.1863    1.2708    7.9780 C   0  0  1  0  0  0  0  0  0  0  0  0
   -1.2642    0.4610    8.6813 O   0  0  0  0  0  0  0  0  0  0  0  0
   -3.4919    1.4072    8.7798 C   0  0  2  0  0  0  0  0  0  0  0  0
   -4.1195    0.1475    8.9338 O   0  0  0  0  0  0  0  0  0  0  0  0
   -4.4522    2.4090    8.1062 C   0  0  1  0  0  0  0  0  0  0  0  0
   -3.8042    3.6541    7.8359 O   0  0  0  0  0  0  0  0  0  0  0  0
   -5.1475    1.8418    6.8597 C   0  0  0  0  0  0  0  0  0  0  0  0
   -4.2192    1.0405    6.0459 N   0  0  0  0  0  0  0  0  0  0  0  0
  1  3  1  0  0  0  0
  1  2  1  6  0  0  0
  3  4  1  6  0  0  0
  5  6  1  1  0  0  0
  5  3  1  0  0  0  0
  7  9  1  0  0  0  0
  7  5  1  0  0  0  0
  7  8  1  6  0  0  0
  9 10  1  0  0  0  0
  9 11  1  1  0  0  0
 10  1  1  0  0  0  0
 11 12  1  0  0  0  0
 13 14  1  6  0  0  0
 13 21  1  0  0  0  0
 15 13  1  0  0  0  0
 16 15  1  0  0  0  0
 16 18  1  0  0  0  0
 16 17  1  6  0  0  0
 18  2  1  1  0  0  0
 18 19  1  0  0  0  0
 19 21  1  0  0  0  0
 19 20  1  1  0  0  0
 21 22  1  1  0  0  0
 23 20  1  1  0  0  0
 23 29  1  0  0  0  0
 23 24  1  0  0  0  0
 24 26  1  0  0  0  0
 24 25  1  6  0  0  0
 26 27  1  1  0  0  0
 28 26  1  0  0  0  0
 28 30  1  1  0  0  0
 29 28  1  0  0  0  0
 30 31  1  0  0  0  0
 32 27  1  6  0  0  0
 32 40  1  0  0  0  0
 32 33  1  0  0  0  0
 33 35  1  0  0  0  0
 33 34  1  6  0  0  0
 35 37  1  0  0  0  0
 35 36  1  1  0  0  0
 37 38  1  6  0  0  0
 39 37  1  0  0  0  0
 39 41  1  6  0  0  0
 40 39  1  0  0  0  0
 42 41  1  0  0  0  0
M  END
>  <CHROM.1>
-178.25532312,168.85827544,45.78304700,63.98000411,68.91200209,56.85538345
178.60221934,-142.50248306,-50.95884091,-101.69356380,162.33435555,-177.34757854
64.91273238,169.52789767,-84.89514181,168.67232676,-65.64623309,49.16700150
-64.42766764,57.48356099,-40.60475550,-176.03968000,-1.01031455,2.80086136
3.15804193,-0.08599650,-1.11750134,3.11722926

>  <Name>
lig.pdb

>  <RI>
0

>  <Rbt.Current_Directory>
/home/itssahil/PROJECTS/Mol_Feturizer/New_Systems/rnas/2mxs

>  <Rbt.Executable>
rbdock ($Id: //depot/dev/client3/rdock/2013.1/src/exe/rbdock.cxx#4 $)

>  <Rbt.Library>
libRbt.so (2013.1, Build901 2013/11/27)

>  <Rbt.Parameter_File>
/export/apps/rDock/src/rDock_2013.1_src/data/scripts/dock_solv.prm

>  <Rbt.Receptor>
prm/pocket_docking_4.prm

>  <SCORE>
-34.2434

>  <SCORE.INTER>
-30.7089

>  <SCORE.INTER.CONST>
1

>  <SCORE.INTER.POLAR>
-4.88807

>  <SCORE.INTER.ROT>
9

>  <SCORE.INTER.SOLV>
17.9232

>  <SCORE.INTER.VDW>
-19.7534

>  <SCORE.INTER.norm>
-0.731164

>  <SCORE.INTRA>
-3.97949

>  <SCORE.INTRA.DIHEDRAL>
-12.4333

>  <SCORE.INTRA.DIHEDRAL.0>
30.1357

>  <SCORE.INTRA.POLAR>
-1.99492

>  <SCORE.INTRA.POLAR.0>
-0.631696

>  <SCORE.INTRA.REPUL>
0.0101682

>  <SCORE.INTRA.REPUL.0>
0

>  <SCORE.INTRA.SOLV>
2.07536

>  <SCORE.INTRA.SOLV.lig_0>
-55.904

>  <SCORE.INTRA.VDW>
7.93136

>  <SCORE.INTRA.VDW.0>
-8.21197

>  <SCORE.INTRA.norm>
-0.0947498

>  <SCORE.RESTR>
0.444944

>  <SCORE.RESTR.CAVITY>
0.444944

>  <SCORE.RESTR.norm>
0.0105939

>  <SCORE.SYSTEM>
0

>  <SCORE.SYSTEM.CONST>
0

>  <SCORE.SYSTEM.DIHEDRAL>
0

>  <SCORE.SYSTEM.SOLV>
0

>  <SCORE.SYSTEM.norm>
0

>  <SCORE.heavy>
42

>  <SCORE.norm>
-0.81532

>  <RMSD>
5.271

$$$$
lig.pdb
 OpenBabel11021811453D
libRbt.so/2013.1/901 2013/11/27
 42 45  0  0  0  0  0  0  0  0999 V2000
   -0.2539    0.7934    1.6656 C   0  0  2  0  0  0  0  0  0  0  0  0
    0.6440    1.9047    1.6468 O   0  0  0  0  0  0  0  0  0  0  0  0
    0.5055   -0.5269    1.4660 C   0  0  2  0  0  0  0  0  0  0  0  0
    1.5865   -0.6708    2.4585 N   0  0  0  0  0  0  0  0  0  0  0  0
    1.0519   -0.6363    0.0366 C   0  0  1  0  0  0  0  0  0  0  0  0
    1.6091   -1.9224   -0.1559 O   0  0  0  0  0  0  0  0  0  0  0  0
   -0.0754   -0.4122   -0.9826 C   0  0  2  0  0  0  0  0  0  0  0  0
    0.4744   -0.3595   -2.2851 O   0  0  0  0  0  0  0  0  0  0  0  0
   -0.8516    0.8879   -0.6905 C   0  0  2  0  0  0  0  0  0  0  0  0
   -1.2664    0.9459    0.6739 O   0  0  0  0  0  0  0  0  0  0  0  0
   -2.0859    0.9260   -1.6116 C   0  0  0  0  0  0  0  0  0  0  0  0
   -3.0936   -0.0434   -1.2175 O   0  0  0  0  0  0  0  0  0  0  0  0
    0.0668    5.9086    3.1188 C   0  0  2  0  0  0  0  0  0  0  0  0
   -0.7199    7.1489    3.2706 N   0  0  0  0  0  0  0  0  0  0  0  0
    0.3495    5.6357    1.6394 C   0  0  0  0  0  0  0  0  0  0  0  0
    1.0378    4.2871    1.4642 C   0  0  2  0  0  0  0  0  0  0  0  0
    1.3928    4.0784    0.0549 N   0  0  0  0  0  0  0  0  0  0  0  0
    0.0927    3.1835    1.9936 C   0  0  2  0  0  0  0  0  0  0  0  0
   -0.0555    3.3558    3.4714 C   0  0  2  0  0  0  0  0  0  0  0  0
   -0.8893    2.3125    3.9411 O   0  0  0  0  0  0  0  0  0  0  0  0
   -0.6590    4.7155    3.7685 C   0  0  1  0  0  0  0  0  0  0  0  0
   -0.7445    4.9667    5.1587 O   0  0  0  0  0  0  0  0  0  0  0  0
   -0.2617    1.1405    4.4504 C   0  0  1  0  0  0  0  0  0  0  0  0
    0.1639    1.4269    5.8920 C   0  0  2  0  0  0  0  0  0  0  0  0
    1.3890    0.7701    6.1577 O   0  0  0  0  0  0  0  0  0  0  0  0
   -1.0074    0.8555    6.7023 C   0  0  2  0  0  0  0  0  0  0  0  0
   -0.6542    0.5629    8.0545 O   0  0  0  0  0  0  0  0  0  0  0  0
   -1.3499   -0.3701    5.8463 C   0  0  2  0  0  0  0  0  0  0  0  0
   -1.2055    0.0783    4.5059 O   0  0  0  0  0  0  0  0  0  0  0  0
   -2.7745   -0.9014    6.0429 C   0  0  0  0  0  0  0  0  0  0  0  0
   -3.7427    0.0552    5.6677 O   0  0  0  0  0  0  0  0  0  0  0  0
    0.1213    1.5722    8.6979 C   0  0  2  0  0  0  0  0  0  0  0  0
    1.0882    0.9762    9.7323 C   0  0  2  0  0  0  0  0  0  0  0  0
    1.9483   -0.0495    9.1189 N   0  0  0  0  0  0  0  0  0  0  0  0
    0.3281    0.4203   10.9459 C   0  0  1  0  0  0  0  0  0  0  0  0
    1.2695   -0.0345   11.8987 O   0  0  0  0  0  0  0  0  0  0  0  0
   -0.5275    1.5504   11.5432 C   0  0  2  0  0  0  0  0  0  0  0  0
   -1.2843    1.0786   12.6428 O   0  0  0  0  0  0  0  0  0  0  0  0
   -1.4549    2.1652   10.4748 C   0  0  1  0  0  0  0  0  0  0  0  0
   -0.7261    2.5450    9.3052 O   0  0  0  0  0  0  0  0  0  0  0  0
   -2.6634    1.2801   10.1355 C   0  0  0  0  0  0  0  0  0  0  0  0
   -3.4716    1.8675    9.0547 N   0  0  0  0  0  0  0  0  0  0  0  0
  1  3  1  0  0  0  0
  1  2  1  6  0  0  0
  3  4  1  1  0  0  0
  5  6  1  1  0  0  0
  5  3  1  0  0  0  0
  7  9  1  0  0  0  0
  7  5  1  0  0  0  0
  7  8  1  6  0  0  0
  9 10  1  0  0  0  0
  9 11  1  6  0  0  0
 10  1  1  0  0  0  0
 11 12  1  0  0  0  0
 13 14  1  6  0  0  0
 13 21  1  0  0  0  0
 15 13  1  0  0  0  0
 16 15  1  0  0  0  0
 16 18  1  0  0  0  0
 16 17  1  6  0  0  0
 18  2  1  1  0  0  0
 18 19  1  0  0  0  0
 19 21  1  0  0  0  0
 19 20  1  6  0  0  0
 21 22  1  1  0  0  0
 23 20  1  1  0  0  0
 23 29  1  0  0  0  0
 23 24  1  0  0  0  0
 24 26  1  0  0  0  0
 24 25  1  1  0  0  0
 26 27  1  1  0  0  0
 28 26  1  0  0  0  0
 28 30  1  6  0  0  0
 29 28  1  0  0  0  0
 30 31  1  0  0  0  0
 32 27  1  1  0  0  0
 32 40  1  0  0  0  0
 32 33  1  0  0  0  0
 33 35  1  0  0  0  0
 33 34  1  6  0  0  0
 35 37  1  0  0  0  0
 35 36  1  1  0  0  0
 37 38  1  1  0  0  0
 39 37  1  0  0  0  0
 39 41  1  6  0  0  0
 40 39  1  0  0  0  0
 42 41  1  0  0  0  0
M  END
>  <CHROM.1>
-160.93601461,-172.20506836,-162.94669395,-163.13993024,-48.25656378,-53.32890290
71.50559574,-178.58465072,-170.04294180,95.07422574,81.02559466,179.58568008
67.37122152,44.09676978,-148.28926596,62.41617894,-63.36327085,-93.60602894
-57.48679620,178.64319109,-176.47019164,-61.18108313,-0.39941932,1.49241125
4.66300629,-0.22721757,-1.52018805,2.92791297

>  <Name>
lig.pdb

>  <RI>
0

>  <Rbt.Current_Directory>
/home/itssahil/PROJECTS/Mol_Feturizer/New_Systems/rnas/2mxs

>  <Rbt.Executable>
rbdock ($Id: //depot/dev/client3/rdock/2013.1/src/exe/rbdock.cxx#4 $)

>  <Rbt.Library>
libRbt.so (2013.1, Build901 2013/11/27)

>  <Rbt.Parameter_File>
/export/apps/rDock/src/rDock_2013.1_src/data/scripts/dock_solv.prm

>  <Rbt.Receptor>
prm/pocket_docking_4.prm

>  <SCORE>
-30.3338

>  <SCORE.INTER>
-26.9018

>  <SCORE.INTER.CONST>
1

>  <SCORE.INTER.POLAR>
-2.61804

>  <SCORE.INTER.ROT>
9

>  <SCORE.INTER.SOLV>
18.9242

>  <SCORE.INTER.VDW>
-25.1158

>  <SCORE.INTER.norm>
-0.640519

>  <SCORE.INTRA>
-3.43202

>  <SCORE.INTRA.DIHEDRAL>
-9.74569

>  <SCORE.INTRA.DIHEDRAL.0>
30.1357

>  <SCORE.INTRA.POLAR>
-0.390581

>  <SCORE.INTRA.POLAR.0>
-0.631696

>  <SCORE.INTRA.REPUL>
0

>  <SCORE.INTRA.REPUL.0>
0

>  <SCORE.INTRA.SOLV>
0.336233

>  <SCORE.INTRA.SOLV.lig_0>
-55.904

>  <SCORE.INTRA.VDW>
2.60069

>  <SCORE.INTRA.VDW.0>
-8.21197

>  <SCORE.INTRA.norm>
-0.0817147

>  <SCORE.RESTR>
0

>  <SCORE.RESTR.CAVITY>
0

>  <SCORE.RESTR.norm>
0

>  <SCORE.SYSTEM>
0

>  <SCORE.SYSTEM.CONST>
0

>  <SCORE.SYSTEM.DIHEDRAL>
0

>  <SCORE.SYSTEM.SOLV>
0

>  <SCORE.SYSTEM.norm>
0

>  <SCORE.heavy>
42

>  <SCORE.norm>
-0.722234

>  <RMSD>
5.289

$$$$
lig.pdb
 OpenBabel11021811453D
libRbt.so/2013.1/901 2013/11/27
 42 45  0  0  0  0  0  0  0  0999 V2000
    1.5721    3.8024   -1.2047 C   0  0  2  0  0  0  0  0  0  0  0  0
    1.7880    4.6137   -0.0485 O   0  0  0  0  0  0  0  0  0  0  0  0
    1.3056    2.3428   -0.8069 C   0  0  2  0  0  0  0  0  0  0  0  0
    0.1884    2.2511    0.1512 N   0  0  0  0  0  0  0  0  0  0  0  0
    2.5718    1.6871   -0.2409 C   0  0  1  0  0  0  0  0  0  0  0  0
    2.3326    0.3089   -0.0295 O   0  0  0  0  0  0  0  0  0  0  0  0
    3.7422    1.8560   -1.2214 C   0  0  2  0  0  0  0  0  0  0  0  0
    4.9319    1.3874   -0.6160 O   0  0  0  0  0  0  0  0  0  0  0  0
    3.9170    3.3285   -1.6452 C   0  0  2  0  0  0  0  0  0  0  0  0
    2.6825    3.8862   -2.0945 O   0  0  0  0  0  0  0  0  0  0  0  0
    4.9554    3.3796   -2.7820 C   0  0  0  0  0  0  0  0  0  0  0  0
    6.0015    4.3543   -2.5249 O   0  0  0  0  0  0  0  0  0  0  0  0
   -0.4507    7.9977    1.3894 C   0  0  2  0  0  0  0  0  0  0  0  0
   -1.6974    8.7724    1.5499 N   0  0  0  0  0  0  0  0  0  0  0  0
   -0.1105    7.8387   -0.0945 C   0  0  0  0  0  0  0  0  0  0  0  0
    1.0946    6.9230   -0.2739 C   0  0  2  0  0  0  0  0  0  0  0  0
    1.4732    6.8551   -1.6909 N   0  0  0  0  0  0  0  0  0  0  0  0
    0.7404    5.5309    0.2989 C   0  0  2  0  0  0  0  0  0  0  0  0
    0.5651    5.6583    1.7783 C   0  0  2  0  0  0  0  0  0  0  0  0
    0.2832    4.3676    2.2873 O   0  0  0  0  0  0  0  0  0  0  0  0
   -0.5660    6.6242    2.0768 C   0  0  1  0  0  0  0  0  0  0  0  0
   -0.7214    6.8477    3.4656 O   0  0  0  0  0  0  0  0  0  0  0  0
   -0.5855    4.2732    3.4112 C   0  0  1  0  0  0  0  0  0  0  0  0
   -1.0710    2.8253    3.5067 C   0  0  2  0  0  0  0  0  0  0  0  0
   -2.4122    2.8101    3.9582 O   0  0  0  0  0  0  0  0  0  0  0  0
   -0.0934    2.2149    4.5200 C   0  0  2  0  0  0  0  0  0  0  0  0
   -0.6048    1.0351    5.1407 O   0  0  0  0  0  0  0  0  0  0  0  0
    0.0927    3.4101    5.4629 C   0  0  2  0  0  0  0  0  0  0  0  0
    0.1435    4.5396    4.6028 O   0  0  0  0  0  0  0  0  0  0  0  0
    1.3769    3.3628    6.2990 C   0  0  0  0  0  0  0  0  0  0  0  0
    1.5197    2.1252    6.9632 O   0  0  0  0  0  0  0  0  0  0  0  0
    0.3709    0.2548    5.8287 C   0  0  2  0  0  0  0  0  0  0  0  0
    0.6313   -1.0847    5.1231 C   0  0  2  0  0  0  0  0  0  0  0  0
    1.0105   -0.8734    3.7161 N   0  0  0  0  0  0  0  0  0  0  0  0
   -0.5811   -2.0201    5.2444 C   0  0  1  0  0  0  0  0  0  0  0  0
   -0.2531   -3.2632    4.6544 O   0  0  0  0  0  0  0  0  0  0  0  0
   -0.9019   -2.2094    6.7367 C   0  0  2  0  0  0  0  0  0  0  0  0
   -2.0421   -3.0318    6.9040 O   0  0  0  0  0  0  0  0  0  0  0  0
   -1.1115   -0.8493    7.4338 C   0  0  1  0  0  0  0  0  0  0  0  0
   -0.0217    0.0409    7.1826 O   0  0  0  0  0  0  0  0  0  0  0  0
   -2.4666   -0.2024    7.1113 C   0  0  0  0  0  0  0  0  0  0  0  0
   -2.7497   -0.2422    5.6675 N   0  0  0  0  0  0  0  0  0  0  0  0
  1  3  1  0  0  0  0
  1  2  1  1  0  0  0
  3  4  1  1  0  0  0
  5  6  1  6  0  0  0
  5  3  1  0  0  0  0
  7  9  1  0  0  0  0
  7  5  1  0  0  0  0
  7  8  1  1  0  0  0
  9 10  1  0  0  0  0
  9 11  1  6  0  0  0
 10  1  1  0  0  0  0
 11 12  1  0  0  0  0
 13 14  1  6  0  0  0
 13 21  1  0  0  0  0
 15 13  1  0  0  0  0
 16 15  1  0  0  0  0
 16 18  1  0  0  0  0
 16 17  1  6  0  0  0
 18  2  1  1  0  0  0
 18 19  1  0  0  0  0
 19 21  1  0  0  0  0
 19 20  1  6  0  0  0
 21 22  1  1  0  0  0
 23 20  1  6  0  0  0
 23 29  1  0  0  0  0
 23 24  1  0  0  0  0
 24 26  1  0  0  0  0
 24 25  1  1  0  0  0
 26 27  1  1  0  0  0
 28 26  1  0  0  0  0
 28 30  1  6  0  0  0
 29 28  1  0  0  0  0
 30 31  1  0  0  0  0
 32 27  1  6  0  0  0
 32 40  1  0  0  0  0
 32 33  1  0  0  0  0
 33 35  1  0  0  0  0
 33 34  1  6  0  0  0
 35 37  1  0  0  0  0
 35 36  1  1  0  0  0
 37 38  1  6  0  0  0
 39 37  1  0  0  0  0
 39 41  1  6  0  0  0
 40 39  1  0  0  0  0
 42 41  1  0  0  0  0
M  END
>  <CHROM.1>
-96.99632304,-108.00847548,-55.92568103,-75.27600550,177.73456334,-178.24321542
-129.20297632,6.48606470,-16.78082187,-146.87946671,163.04564869,67.59510556
-57.63684326,165.25972495,-111.20686352,-50.92621811,-54.78633271,-53.49046422
51.71867736,-62.26186140,-46.79032362,-52.14707057,0.63518196,2.68254775
2.55256613,-1.03982976,-0.89754820,2.69459828

>  <Name>
lig.pdb

>  <RI>
0

>  <Rbt.Current_Directory>
/home/itssahil/PROJECTS/Mol_Feturizer/New_Systems/rnas/2mxs

>  <Rbt.Executable>
rbdock ($Id: //depot/dev/client3/rdock/2013.1/src/exe/rbdock.cxx#4 $)

>  <Rbt.Library>
libRbt.so (2013.1, Build901 2013/11/27)

>  <Rbt.Parameter_File>
/export/apps/rDock/src/rDock_2013.1_src/data/scripts/dock_solv.prm

>  <Rbt.Receptor>
prm/blind_docking_80.prm

>  <SCORE>
1.18553

>  <SCORE.INTER>
-22.5442

>  <SCORE.INTER.CONST>
1

>  <SCORE.INTER.POLAR>
-3.66896

>  <SCORE.INTER.ROT>
9

>  <SCORE.INTER.SOLV>
27.3492

>  <SCORE.INTER.VDW>
-21.516

>  <SCORE.INTER.norm>
-0.536766

>  <SCORE.INTRA>
11.9251

>  <SCORE.INTRA.DIHEDRAL>
9.73276

>  <SCORE.INTRA.DIHEDRAL.0>
30.1357

>  <SCORE.INTRA.POLAR>
-2.08802

>  <SCORE.INTRA.POLAR.0>
-0.631696

>  <SCORE.INTRA.REPUL>
0.0425547

>  <SCORE.INTRA.REPUL.0>
0

>  <SCORE.INTRA.SOLV>
1.64024

>  <SCORE.INTRA.SOLV.lig_0>
-55.904

>  <SCORE.INTRA.VDW>
13.1251

>  <SCORE.INTRA.VDW.0>
-8.21197

>  <SCORE.INTRA.norm>
0.283931

>  <SCORE.RESTR>
11.8046

>  <SCORE.RESTR.CAVITY>
11.8046

>  <SCORE.RESTR.norm>
0.281062

>  <SCORE.SYSTEM>
0

>  <SCORE.SYSTEM.CONST>
0

>  <SCORE.SYSTEM.DIHEDRAL>
0

>  <SCORE.SYSTEM.SOLV>
0

>  <SCORE.SYSTEM.norm>
0

>  <SCORE.heavy>
42

>  <SCORE.norm>
0.0282268

>  <RMSD>
5.291

$$$$
lig.pdb
 OpenBabel11021811453D
libRbt.so/2013.1/901 2013/11/27
 42 45  0  0  0  0  0  0  0  0999 V2000
    0.0962    2.3483    1.9380 C   0  0  2  0  0  0  0  0  0  0  0  0
    0.5228    3.6256    1.4606 O   0  0  0  0  0  0  0  0  0  0  0  0
    0.6816    1.2189    1.0769 C   0  0  2  0  0  0  0  0  0  0  0  0
    2.1508    1.3195    0.9999 N   0  0  0  0  0  0  0  0  0  0  0  0
    0.0556    1.2143   -0.3237 C   0  0  1  0  0  0  0  0  0  0  0  0
    0.5022    0.0752   -1.0340 O   0  0  0  0  0  0  0  0  0  0  0  0
   -1.4768    1.1819   -0.2215 C   0  0  2  0  0  0  0  0  0  0  0  0
   -2.0358    1.3377   -1.5117 O   0  0  0  0  0  0  0  0  0  0  0  0
   -2.0048    2.2889    0.7134 C   0  0  2  0  0  0  0  0  0  0  0  0
   -1.3267    2.2707    1.9692 O   0  0  0  0  0  0  0  0  0  0  0  0
   -3.5113    2.0528    0.9321 C   0  0  0  0  0  0  0  0  0  0  0  0
   -4.1327    3.1339    1.6775 O   0  0  0  0  0  0  0  0  0  0  0  0
   -0.6638    7.4718    2.9867 C   0  0  2  0  0  0  0  0  0  0  0  0
   -1.6714    8.5073    3.2915 N   0  0  0  0  0  0  0  0  0  0  0  0
   -0.6340    7.1848    1.4835 C   0  0  0  0  0  0  0  0  0  0  0  0
    0.3006    6.0204    1.1777 C   0  0  2  0  0  0  0  0  0  0  0  0
    0.3984    5.8163   -0.2731 N   0  0  0  0  0  0  0  0  0  0  0  0
   -0.2301    4.7633    1.9055 C   0  0  2  0  0  0  0  0  0  0  0  0
   -0.1088    4.9831    3.3794 C   0  0  2  0  0  0  0  0  0  0  0  0
   -0.5602    3.8065    4.0248 O   0  0  0  0  0  0  0  0  0  0  0  0
   -0.9406    6.1848    3.7863 C   0  0  1  0  0  0  0  0  0  0  0  0
   -0.7962    6.4904    5.1606 O   0  0  0  0  0  0  0  0  0  0  0  0
    0.2632    3.2528    5.0457 C   0  0  1  0  0  0  0  0  0  0  0  0
    0.3481    4.2733    6.1827 C   0  0  2  0  0  0  0  0  0  0  0  0
    1.6415    4.2295    6.7555 O   0  0  0  0  0  0  0  0  0  0  0  0
   -0.7466    3.7897    7.1434 C   0  0  2  0  0  0  0  0  0  0  0  0
   -0.5606    4.2631    8.4776 O   0  0  0  0  0  0  0  0  0  0  0  0
   -0.5998    2.2728    6.9717 C   0  0  2  0  0  0  0  0  0  0  0  0
   -0.3574    2.0919    5.5835 O   0  0  0  0  0  0  0  0  0  0  0  0
   -1.8423    1.4676    7.3693 C   0  0  0  0  0  0  0  0  0  0  0  0
   -2.9915    1.9095    6.6784 O   0  0  0  0  0  0  0  0  0  0  0  0
   -1.1409    3.4394    9.4869 C   0  0  2  0  0  0  0  0  0  0  0  0
   -2.1237    4.2245   10.3689 C   0  0  2  0  0  0  0  0  0  0  0  0
   -3.1590    4.8776    9.5506 N   0  0  0  0  0  0  0  0  0  0  0  0
   -1.3849    5.2386   11.2551 C   0  0  1  0  0  0  0  0  0  0  0  0
   -2.3264    5.8676   12.1029 O   0  0  0  0  0  0  0  0  0  0  0  0
   -0.3395    4.4820   12.0922 C   0  0  2  0  0  0  0  0  0  0  0  0
    0.4019    5.3792   12.8984 O   0  0  0  0  0  0  0  0  0  0  0  0
    0.6050    3.6633   11.1883 C   0  0  1  0  0  0  0  0  0  0  0  0
   -0.1263    2.8324   10.2838 O   0  0  0  0  0  0  0  0  0  0  0  0
    1.6487    4.5236   10.4607 C   0  0  0  0  0  0  0  0  0  0  0  0
    2.5332    3.6986    9.6221 N   0  0  0  0  0  0  0  0  0  0  0  0
  1  3  1  0  0  0  0
  1  2  1  6  0  0  0
  3  4  1  6  0  0  0
  5  6  1  6  0  0  0
  5  3  1  0  0  0  0
  7  9  1  0  0  0  0
  7  5  1  0  0  0  0
  7  8  1  6  0  0  0
  9 10  1  0  0  0  0
  9 11  1  1  0  0  0
 10  1  1  0  0  0  0
 11 12  1  0  0  0  0
 13 14  1  6  0  0  0
 13 21  1  0  0  0  0
 15 13  1  0  0  0  0
 16 15  1  0  0  0  0
 16 18  1  0  0  0  0
 16 17  1  6  0  0  0
 18  2  1  6  0  0  0
 18 19  1  0  0  0  0
 19 21  1  0  0  0  0
 19 20  1  1  0  0  0
 21 22  1  1  0  0  0
 23 20  1  6  0  0  0
 23 29  1  0  0  0  0
 23 24  1  0  0  0  0
 24 26  1  0  0  0  0
 24 25  1  1  0  0  0
 26 27  1  1  0  0  0
 28 26  1  0  0  0  0
 28 30  1  6  0  0  0
 29 28  1  0  0  0  0
 30 31  1  0  0  0  0
 32 27  1  6  0  0  0
 32 40  1  0  0  0  0
 32 33  1  0  0  0  0
 33 35  1  0  0  0  0
 33 34  1  6  0  0  0
 35 37  1  0  0  0  0
 35 36  1  1  0  0  0
 37 38  1  6  0  0  0
 39 37  1  0  0  0  0
 39 41  1  6  0  0  0
 40 39  1  0  0  0  0
 42 41  1  0  0  0  0
M  END
>  <CHROM.1>
-174.65926864,162.58941790,44.78242400,-90.55501651,-76.57677453,174.93918268
-173.39679834,23.85924748,49.27053312,131.24799694,63.53800371,-56.17431703
62.34858292,-154.09665484,-123.65446516,55.06913327,-172.06083346,-57.59188070
-178.38995728,-176.65099419,179.46136338,-35.40489111,-0.61410512,3.79449815
5.09844700,-1.77533896,-1.49903453,1.20905265

>  <Name>
lig.pdb

>  <RI>
0

>  <Rbt.Current_Directory>
/home/itssahil/PROJECTS/Mol_Feturizer/New_Systems/rnas/2mxs

>  <Rbt.Executable>
rbdock ($Id: //depot/dev/client3/rdock/2013.1/src/exe/rbdock.cxx#4 $)

>  <Rbt.Library>
libRbt.so (2013.1, Build901 2013/11/27)

>  <Rbt.Parameter_File>
/export/apps/rDock/src/rDock_2013.1_src/data/scripts/dock_solv.prm

>  <Rbt.Receptor>
prm/pocket_docking_6.prm

>  <SCORE>
-28.5651

>  <SCORE.INTER>
-32.3829

>  <SCORE.INTER.CONST>
1

>  <SCORE.INTER.POLAR>
-5.07509

>  <SCORE.INTER.ROT>
9

>  <SCORE.INTER.SOLV>
13.861

>  <SCORE.INTER.VDW>
-18.892

>  <SCORE.INTER.norm>
-0.771021

>  <SCORE.INTRA>
3.81782

>  <SCORE.INTRA.DIHEDRAL>
-0.977566

>  <SCORE.INTRA.DIHEDRAL.0>
30.1357

>  <SCORE.INTRA.POLAR>
-0.356313

>  <SCORE.INTRA.POLAR.0>
-0.631696

>  <SCORE.INTRA.REPUL>
0.0549383

>  <SCORE.INTRA.REPUL.0>
0

>  <SCORE.INTRA.SOLV>
0.219297

>  <SCORE.INTRA.SOLV.lig_0>
-55.904

>  <SCORE.INTRA.VDW>
5.13373

>  <SCORE.INTRA.VDW.0>
-8.21197

>  <SCORE.INTRA.norm>
0.0909005

>  <SCORE.RESTR>
0

>  <SCORE.RESTR.CAVITY>
0

>  <SCORE.RESTR.norm>
0

>  <SCORE.SYSTEM>
0

>  <SCORE.SYSTEM.CONST>
0

>  <SCORE.SYSTEM.DIHEDRAL>
0

>  <SCORE.SYSTEM.SOLV>
0

>  <SCORE.SYSTEM.norm>
0

>  <SCORE.heavy>
42

>  <SCORE.norm>
-0.680121

>  <RMSD>
5.292

$$$$
lig.pdb
 OpenBabel11021811453D
libRbt.so/2013.1/901 2013/11/27
 42 45  0  0  0  0  0  0  0  0999 V2000
   -0.1785    1.6056    2.6927 C   0  0  2  0  0  0  0  0  0  0  0  0
    0.5395    2.8280    2.8706 O   0  0  0  0  0  0  0  0  0  0  0  0
    0.5653    0.6696    1.7281 C   0  0  2  0  0  0  0  0  0  0  0  0
    1.9505    0.4385    2.1779 N   0  0  0  0  0  0  0  0  0  0  0  0
    0.5356    1.2192    0.2961 C   0  0  1  0  0  0  0  0  0  0  0  0
    1.0928    0.2633   -0.5855 O   0  0  0  0  0  0  0  0  0  0  0  0
   -0.9096    1.5212   -0.1281 C   0  0  2  0  0  0  0  0  0  0  0  0
   -0.9029    2.1718   -1.3843 O   0  0  0  0  0  0  0  0  0  0  0  0
   -1.6320    2.4015    0.9119 C   0  0  2  0  0  0  0  0  0  0  0  0
   -1.5011    1.8604    2.2261 O   0  0  0  0  0  0  0  0  0  0  0  0
   -3.1215    2.4748    0.5254 C   0  0  0  0  0  0  0  0  0  0  0  0
   -3.8671    3.3765    1.3864 O   0  0  0  0  0  0  0  0  0  0  0  0
   -0.6405    6.9517    2.5050 C   0  0  2  0  0  0  0  0  0  0  0  0
   -1.5581    8.0179    2.0560 N   0  0  0  0  0  0  0  0  0  0  0  0
   -0.1122    6.1637    1.3038 C   0  0  0  0  0  0  0  0  0  0  0  0
    0.7225    4.9754    1.7663 C   0  0  2  0  0  0  0  0  0  0  0  0
    1.3051    4.2841    0.6093 N   0  0  0  0  0  0  0  0  0  0  0  0
   -0.1797    4.0413    2.6058 C   0  0  2  0  0  0  0  0  0  0  0  0
   -0.5656    4.7576    3.8602 C   0  0  2  0  0  0  0  0  0  0  0  0
   -1.3553    3.8714    4.6319 O   0  0  0  0  0  0  0  0  0  0  0  0
   -1.3365    6.0169    3.5120 C   0  0  1  0  0  0  0  0  0  0  0  0
   -1.6552    6.7797    4.6608 O   0  0  0  0  0  0  0  0  0  0  0  0
   -0.6902    2.8134    5.3139 C   0  0  1  0  0  0  0  0  0  0  0  0
    0.3180    3.4404    6.2793 C   0  0  2  0  0  0  0  0  0  0  0  0
    1.4736    2.6260    6.3434 O   0  0  0  0  0  0  0  0  0  0  0  0
   -0.4639    3.4717    7.5995 C   0  0  2  0  0  0  0  0  0  0  0  0
    0.3857    3.5590    8.7438 O   0  0  0  0  0  0  0  0  0  0  0  0
   -1.2460    2.1583    7.4764 C   0  0  2  0  0  0  0  0  0  0  0  0
   -1.6250    2.0946    6.1087 O   0  0  0  0  0  0  0  0  0  0  0  0
   -2.5067    2.0884    8.3461 C   0  0  0  0  0  0  0  0  0  0  0  0
   -2.4278    1.0444    9.2932 O   0  0  0  0  0  0  0  0  0  0  0  0
   -0.2972    3.5218    9.9953 C   0  0  2  0  0  0  0  0  0  0  0  0
    0.4592    4.3018   11.0815 C   0  0  2  0  0  0  0  0  0  0  0  0
    0.7154    5.6869   10.6527 N   0  0  0  0  0  0  0  0  0  0  0  0
    1.7597    3.5851   11.4745 C   0  0  1  0  0  0  0  0  0  0  0  0
    2.3669    4.2999   12.5334 O   0  0  0  0  0  0  0  0  0  0  0  0
    1.4102    2.1580   11.9297 C   0  0  2  0  0  0  0  0  0  0  0  0
    2.5820    1.4372   12.2636 O   0  0  0  0  0  0  0  0  0  0  0  0
    0.6097    1.4117   10.8426 C   0  0  1  0  0  0  0  0  0  0  0  0
   -0.5178    2.1745   10.4066 O   0  0  0  0  0  0  0  0  0  0  0  0
    1.4751    0.9421    9.6639 C   0  0  0  0  0  0  0  0  0  0  0  0
    0.8088   -0.1262    8.9017 N   0  0  0  0  0  0  0  0  0  0  0  0
  1  3  1  0  0  0  0
  1  2  1  6  0  0  0
  3  4  1  1  0  0  0
  5  6  1  6  0  0  0
  5  3  1  0  0  0  0
  7  9  1  0  0  0  0
  7  5  1  0  0  0  0
  7  8  1  6  0  0  0
  9 10  1  0  0  0  0
  9 11  1  6  0  0  0
 10  1  1  0  0  0  0
 11 12  1  0  0  0  0
 13 14  1  6  0  0  0
 13 21  1  0  0  0  0
 15 13  1  0  0  0  0
 16 15  1  0  0  0  0
 16 18  1  0  0  0  0
 16 17  1  6  0  0  0
 18  2  1  1  0  0  0
 18 19  1  0  0  0  0
 19 21  1  0  0  0  0
 19 20  1  1  0  0  0
 21 22  1  1  0  0  0
 23 20  1  1  0  0  0
 23 29  1  0  0  0  0
 23 24  1  0  0  0  0
 24 26  1  0  0  0  0
 24 25  1  1  0  0  0
 26 27  1  1  0  0  0
 28 26  1  0  0  0  0
 28 30  1  1  0  0  0
 29 28  1  0  0  0  0
 30 31  1  0  0  0  0
 32 27  1  6  0  0  0
 32 40  1  0  0  0  0
 32 33  1  0  0  0  0
 33 35  1  0  0  0  0
 33 34  1  6  0  0  0
 35 37  1  0  0  0  0
 35 36  1  1  0  0  0
 37 38  1  6  0  0  0
 39 37  1  0  0  0  0
 39 41  1  6  0  0  0
 40 39  1  0  0  0  0
 42 41  1  0  0  0  0
M  END
>  <CHROM.1>
-135.04193650,125.26413459,-178.32182374,-68.53688745,-170.78455987,59.03684815
-175.18935503,25.69057070,56.36263376,75.23199602,59.92035907,173.49504943
-60.50750224,-176.94851565,-150.66393151,-118.10665812,-60.27087131,-179.15527995
-68.77785922,60.05305200,160.64398114,-61.02149439,-0.18523149,3.07200876
5.37226485,-2.13814752,-1.30277408,1.06401305

>  <Name>
lig.pdb

>  <RI>
0

>  <Rbt.Current_Directory>
/home/itssahil/PROJECTS/Mol_Feturizer/New_Systems/rnas/2mxs

>  <Rbt.Executable>
rbdock ($Id: //depot/dev/client3/rdock/2013.1/src/exe/rbdock.cxx#4 $)

>  <Rbt.Library>
libRbt.so (2013.1, Build901 2013/11/27)

>  <Rbt.Parameter_File>
/export/apps/rDock/src/rDock_2013.1_src/data/scripts/dock_solv.prm

>  <Rbt.Receptor>
prm/pocket_docking_4.prm

>  <SCORE>
-23.7904

>  <SCORE.INTER>
-30.798

>  <SCORE.INTER.CONST>
1

>  <SCORE.INTER.POLAR>
-3.98895

>  <SCORE.INTER.ROT>
9

>  <SCORE.INTER.SOLV>
15.4571

>  <SCORE.INTER.VDW>
-21.9879

>  <SCORE.INTER.norm>
-0.733286

>  <SCORE.INTRA>
7.00758

>  <SCORE.INTRA.DIHEDRAL>
-1.43647

>  <SCORE.INTRA.DIHEDRAL.0>
30.1357

>  <SCORE.INTRA.POLAR>
0.62119

>  <SCORE.INTRA.POLAR.0>
-0.631696

>  <SCORE.INTRA.REPUL>
0.0211044

>  <SCORE.INTRA.REPUL.0>
0

>  <SCORE.INTRA.SOLV>
1.07248

>  <SCORE.INTRA.SOLV.lig_0>
-55.904

>  <SCORE.INTRA.VDW>
4.97201

>  <SCORE.INTRA.VDW.0>
-8.21197

>  <SCORE.INTRA.norm>
0.166847

>  <SCORE.RESTR>
0

>  <SCORE.RESTR.CAVITY>
0

>  <SCORE.RESTR.norm>
0

>  <SCORE.SYSTEM>
0

>  <SCORE.SYSTEM.CONST>
0

>  <SCORE.SYSTEM.DIHEDRAL>
0

>  <SCORE.SYSTEM.SOLV>
0

>  <SCORE.SYSTEM.norm>
0

>  <SCORE.heavy>
42

>  <SCORE.norm>
-0.566439

>  <RMSD>
5.300

$$$$
lig.pdb
 OpenBabel11021811453D
libRbt.so/2013.1/901 2013/11/27
 42 45  0  0  0  0  0  0  0  0999 V2000
   -1.9254    0.7675    1.0063 C   0  0  2  0  0  0  0  0  0  0  0  0
   -3.0601    1.0439    1.8294 O   0  0  0  0  0  0  0  0  0  0  0  0
   -2.1840   -0.4527    0.1096 C   0  0  2  0  0  0  0  0  0  0  0  0
   -3.4142   -0.2750   -0.6838 N   0  0  0  0  0  0  0  0  0  0  0  0
   -2.2449   -1.7417    0.9392 C   0  0  1  0  0  0  0  0  0  0  0  0
   -2.3305   -2.8554    0.0709 O   0  0  0  0  0  0  0  0  0  0  0  0
   -0.9879   -1.8725    1.8124 C   0  0  2  0  0  0  0  0  0  0  0  0
   -1.1346   -2.9787    2.6821 O   0  0  0  0  0  0  0  0  0  0  0  0
   -0.7343   -0.5923    2.6341 C   0  0  2  0  0  0  0  0  0  0  0  0
   -0.7605    0.5678    1.8032 O   0  0  0  0  0  0  0  0  0  0  0  0
    0.6460   -0.7201    3.3060 C   0  0  0  0  0  0  0  0  0  0  0  0
    0.5853   -1.4807    4.5422 O   0  0  0  0  0  0  0  0  0  0  0  0
   -3.1355    5.3475    1.8919 C   0  0  2  0  0  0  0  0  0  0  0  0
   -3.5732    6.6431    2.4488 N   0  0  0  0  0  0  0  0  0  0  0  0
   -4.3444    4.5353    1.4207 C   0  0  0  0  0  0  0  0  0  0  0  0
   -3.9149    3.1425    0.9753 C   0  0  2  0  0  0  0  0  0  0  0  0
   -5.0642    2.4064    0.4340 N   0  0  0  0  0  0  0  0  0  0  0  0
   -3.2789    2.4171    2.1839 C   0  0  2  0  0  0  0  0  0  0  0  0
   -2.0090    3.1198    2.5432 C   0  0  2  0  0  0  0  0  0  0  0  0
   -1.4228    2.4162    3.6230 O   0  0  0  0  0  0  0  0  0  0  0  0
   -2.3113    4.5565    2.9250 C   0  0  1  0  0  0  0  0  0  0  0  0
   -1.1337    5.2939    3.1943 O   0  0  0  0  0  0  0  0  0  0  0  0
   -2.2567    2.0820    4.7274 C   0  0  1  0  0  0  0  0  0  0  0  0
   -1.3543    1.6032    5.8666 C   0  0  2  0  0  0  0  0  0  0  0  0
   -2.0064    0.5669    6.5763 O   0  0  0  0  0  0  0  0  0  0  0  0
   -1.1735    2.8771    6.7029 C   0  0  2  0  0  0  0  0  0  0  0  0
   -0.7839    2.6045    8.0493 O   0  0  0  0  0  0  0  0  0  0  0  0
   -2.5680    3.4965    6.5486 C   0  0  2  0  0  0  0  0  0  0  0  0
   -2.9214    3.2490    5.1950 O   0  0  0  0  0  0  0  0  0  0  0  0
   -2.6223    5.0064    6.8092 C   0  0  0  0  0  0  0  0  0  0  0  0
   -3.9415    5.5018    6.7234 O   0  0  0  0  0  0  0  0  0  0  0  0
    0.6250    2.5242    8.2557 C   0  0  2  0  0  0  0  0  0  0  0  0
    1.0858    1.0777    8.4907 C   0  0  2  0  0  0  0  0  0  0  0  0
    0.6561    0.2026    7.3872 N   0  0  0  0  0  0  0  0  0  0  0  0
    0.5947    0.5530    9.8483 C   0  0  1  0  0  0  0  0  0  0  0  0
    1.1191   -0.7456   10.0470 O   0  0  0  0  0  0  0  0  0  0  0  0
    1.0991    1.5028   10.9480 C   0  0  2  0  0  0  0  0  0  0  0  0
    0.6367    1.0874   12.2201 O   0  0  0  0  0  0  0  0  0  0  0  0
    0.6653    2.9559   10.6651 C   0  0  1  0  0  0  0  0  0  0  0  0
    1.0214    3.3598    9.3409 O   0  0  0  0  0  0  0  0  0  0  0  0
   -0.8179    3.2179   10.9654 C   0  0  0  0  0  0  0  0  0  0  0  0
   -1.3237    4.3711   10.2034 N   0  0  0  0  0  0  0  0  0  0  0  0
  1  3  1  0  0  0  0
  1  2  1  1  0  0  0
  3  4  1  1  0  0  0
  5  6  1  6  0  0  0
  5  3  1  0  0  0  0
  7  9  1  0  0  0  0
  7  5  1  0  0  0  0
  7  8  1  1  0  0  0
  9 10  1  0  0  0  0
  9 11  1  6  0  0  0
 10  1  1  0  0  0  0
 11 12  1  0  0  0  0
 13 14  1  1  0  0  0
 13 21  1  0  0  0  0
 15 13  1  0  0  0  0
 16 15  1  0  0  0  0
 16 18  1  0  0  0  0
 16 17  1  1  0  0  0
 18  2  1  6  0  0  0
 18 19  1  0  0  0  0
 19 21  1  0  0  0  0
 19 20  1  1  0  0  0
 21 22  1  6  0  0  0
 23 20  1  6  0  0  0
 23 29  1  0  0  0  0
 23 24  1  0  0  0  0
 24 26  1  0  0  0  0
 24 25  1  1  0  0  0
 26 27  1  1  0  0  0
 28 26  1  0  0  0  0
 28 30  1  6  0  0  0
 29 28  1  0  0  0  0
 30 31  1  0  0  0  0
 32 27  1  1  0  0  0
 32 40  1  0  0  0  0
 32 33  1  0  0  0  0
 33 35  1  0  0  0  0
 33 34  1  6  0  0  0
 35 37  1  0  0  0  0
 35 36  1  1  0  0  0
 37 38  1  1  0  0  0
 39 37  1  0  0  0  0
 39 41  1  6  0  0  0
 40 39  1  0  0  0  0
 42 41  1  0  0  0  0
M  END
>  <CHROM.1>
78.02800461,-149.40459309,178.22620439,-68.84136558,68.35595977,-177.41503080
-83.12571068,-141.52948183,-95.65524559,-48.26019730,-168.32166770,171.42333428
60.95635123,89.11471907,-107.30605643,-176.77148554,59.31264330,40.12772258
-171.46135788,175.63097874,-156.69000265,-45.83911612,-1.48972258,1.79715019
4.95115173,-2.24259956,-1.05686300,0.83198447

>  <Name>
lig.pdb

>  <RI>
4.11275e+07

>  <Rbt.Current_Directory>
/home/itssahil/PROJECTS/Mol_Feturizer/New_Systems/rnas/2mxs

>  <Rbt.Executable>
rbdock ($Id: //depot/dev/client3/rdock/2013.1/src/exe/rbdock.cxx#4 $)

>  <Rbt.Library>
libRbt.so (2013.1, Build901 2013/11/27)

>  <Rbt.Parameter_File>
/export/apps/rDock/src/rDock_2013.1_src/data/scripts/dock_solv.prm

>  <Rbt.Receptor>
prm/pocket_docking_8.prm

>  <SCORE>
-29.2811

>  <SCORE.INTER>
-31.4278

>  <SCORE.INTER.CONST>
1

>  <SCORE.INTER.POLAR>
-4.66789

>  <SCORE.INTER.ROT>
9

>  <SCORE.INTER.SOLV>
18.8179

>  <SCORE.INTER.VDW>
-21.2649

>  <SCORE.INTER.norm>
-0.748281

>  <SCORE.INTRA>
2.14669

>  <SCORE.INTRA.DIHEDRAL>
-1.99167

>  <SCORE.INTRA.DIHEDRAL.0>
30.1357

>  <SCORE.INTRA.POLAR>
-0.428075

>  <SCORE.INTRA.POLAR.0>
-0.631696

>  <SCORE.INTRA.REPUL>
0

>  <SCORE.INTRA.REPUL.0>
0

>  <SCORE.INTRA.SOLV>
2.04602

>  <SCORE.INTRA.SOLV.lig_0>
-55.904

>  <SCORE.INTRA.VDW>
3.57497

>  <SCORE.INTRA.VDW.0>
-8.21197

>  <SCORE.INTRA.norm>
0.0511117

>  <SCORE.RESTR>
0

>  <SCORE.RESTR.CAVITY>
0

>  <SCORE.RESTR.norm>
0

>  <SCORE.SYSTEM>
0

>  <SCORE.SYSTEM.CONST>
0

>  <SCORE.SYSTEM.DIHEDRAL>
0

>  <SCORE.SYSTEM.SOLV>
0

>  <SCORE.SYSTEM.norm>
0

>  <SCORE.heavy>
42

>  <SCORE.norm>
-0.697169

>  <RMSD>
5.349

$$$$
lig.pdb
 OpenBabel11021811453D
libRbt.so/2013.1/901 2013/11/27
 42 45  0  0  0  0  0  0  0  0999 V2000
    0.0750    2.3104    1.0658 C   0  0  2  0  0  0  0  0  0  0  0  0
    1.0586    3.3445    1.1343 O   0  0  0  0  0  0  0  0  0  0  0  0
    0.5153    1.0819    1.8762 C   0  0  2  0  0  0  0  0  0  0  0  0
    0.8342    1.4524    3.2674 N   0  0  0  0  0  0  0  0  0  0  0  0
    1.7034    0.3789    1.2072 C   0  0  1  0  0  0  0  0  0  0  0  0
    1.9824   -0.8268    1.8928 O   0  0  0  0  0  0  0  0  0  0  0  0
    1.3785    0.0658   -0.2612 C   0  0  2  0  0  0  0  0  0  0  0  0
    2.5365   -0.4357   -0.9006 O   0  0  0  0  0  0  0  0  0  0  0  0
    0.8705    1.3164   -1.0070 C   0  0  2  0  0  0  0  0  0  0  0  0
   -0.1866    1.9517   -0.2887 O   0  0  0  0  0  0  0  0  0  0  0  0
    0.3653    0.8748   -2.3937 C   0  0  0  0  0  0  0  0  0  0  0  0
   -0.5125    1.8626   -2.9971 O   0  0  0  0  0  0  0  0  0  0  0  0
    2.1025    6.5331   -1.5627 C   0  0  2  0  0  0  0  0  0  0  0  0
    1.9990    7.2471   -2.8511 N   0  0  0  0  0  0  0  0  0  0  0  0
    2.6034    5.1039   -1.7853 C   0  0  0  0  0  0  0  0  0  0  0  0
    2.5789    4.3170   -0.4803 C   0  0  2  0  0  0  0  0  0  0  0  0
    3.1524    2.9807   -0.6833 N   0  0  0  0  0  0  0  0  0  0  0  0
    1.1183    4.2507    0.0232 C   0  0  2  0  0  0  0  0  0  0  0  0
    0.6819    5.6320    0.3933 C   0  0  2  0  0  0  0  0  0  0  0  0
   -0.6409    5.5429    0.8901 O   0  0  0  0  0  0  0  0  0  0  0  0
    0.7500    6.5324   -0.8257 C   0  0  1  0  0  0  0  0  0  0  0  0
    0.4273    7.8747   -0.5137 O   0  0  0  0  0  0  0  0  0  0  0  0
   -0.9035    4.5833    1.9084 C   0  0  1  0  0  0  0  0  0  0  0  0
   -0.3880    5.1529    3.2317 C   0  0  2  0  0  0  0  0  0  0  0  0
    0.1373    4.1019    4.0206 O   0  0  0  0  0  0  0  0  0  0  0  0
   -1.6517    5.7790    3.8368 C   0  0  2  0  0  0  0  0  0  0  0  0
   -1.5616    5.9497    5.2515 O   0  0  0  0  0  0  0  0  0  0  0  0
   -2.7003    4.7589    3.3764 C   0  0  2  0  0  0  0  0  0  0  0  0
   -2.3078    4.4140    2.0553 O   0  0  0  0  0  0  0  0  0  0  0  0
   -4.1356    5.2968    3.3450 C   0  0  0  0  0  0  0  0  0  0  0  0
   -4.3476    6.1486    2.2393 O   0  0  0  0  0  0  0  0  0  0  0  0
   -1.9847    7.2271    5.7242 C   0  0  2  0  0  0  0  0  0  0  0  0
   -0.8575    8.2677    5.6428 C   0  0  2  0  0  0  0  0  0  0  0  0
   -0.3194    8.3547    4.2750 N   0  0  0  0  0  0  0  0  0  0  0  0
    0.2495    7.9669    6.6645 C   0  0  1  0  0  0  0  0  0  0  0  0
    1.2130    9.0007    6.6036 O   0  0  0  0  0  0  0  0  0  0  0  0
   -0.3833    7.9133    8.0654 C   0  0  2  0  0  0  0  0  0  0  0  0
    0.5900    7.5955    9.0432 O   0  0  0  0  0  0  0  0  0  0  0  0
   -1.5432    6.8973    8.1095 C   0  0  1  0  0  0  0  0  0  0  0  0
   -2.4822    7.1292    7.0569 O   0  0  0  0  0  0  0  0  0  0  0  0
   -1.0717    5.4362    8.1459 C   0  0  0  0  0  0  0  0  0  0  0  0
   -0.2169    5.1777    9.3160 N   0  0  0  0  0  0  0  0  0  0  0  0
  1  3  1  0  0  0  0
  1  2  1  6  0  0  0
  3  4  1  1  0  0  0
  5  6  1  1  0  0  0
  5  3  1  0  0  0  0
  7  9  1  0  0  0  0
  7  5  1  0  0  0  0
  7  8  1  6  0  0  0
  9 10  1  0  0  0  0
  9 11  1  6  0  0  0
 10  1  1  0  0  0  0
 11 12  1  0  0  0  0
 13 14  1  6  0  0  0
 13 21  1  0  0  0  0
 15 13  1  0  0  0  0
 16 15  1  0  0  0  0
 16 18  1  0  0  0  0
 16 17  1  6  0  0  0
 18  2  1  1  0  0  0
 18 19  1  0  0  0  0
 19 21  1  0  0  0  0
 19 20  1  6  0  0  0
 21 22  1  1  0  0  0
 23 20  1  6  0  0  0
 23 29  1  0  0  0  0
 23 24  1  0  0  0  0
 24 26  1  0  0  0  0
 24 25  1  1  0  0  0
 26 27  1  1  0  0  0
 28 26  1  0  0  0  0
 28 30  1  6  0  0  0
 29 28  1  0  0  0  0
 30 31  1  0  0  0  0
 32 27  1  1  0  0  0
 32 40  1  0  0  0  0
 32 33  1  0  0  0  0
 33 35  1  0  0  0  0
 33 34  1  6  0  0  0
 35 37  1  0  0  0  0
 35 36  1  1  0  0  0
 37 38  1  1  0  0  0
 39 37  1  0  0  0  0
 39 41  1  6  0  0  0
 40 39  1  0  0  0  0
 42 41  1  0  0  0  0
M  END
>  <CHROM.1>
-128.10204041,152.64810191,-109.82437598,-167.19858257,-176.17003550,-49.40234087
161.35866712,170.50313384,-45.03088928,50.89469025,77.86917180,-67.56347459
-78.35336227,133.69036955,-84.55921984,75.24934226,-59.78205034,54.19207789
-69.40280721,71.12392764,58.81816369,-165.60341008,0.03528599,4.67716260
2.46185498,-0.00031016,-1.33186875,2.59398154

>  <Name>
lig.pdb

>  <RI>
3.17932e+07

>  <Rbt.Current_Directory>
/home/itssahil/PROJECTS/Mol_Feturizer/New_Systems/rnas/2mxs

>  <Rbt.Executable>
rbdock ($Id: //depot/dev/client3/rdock/2013.1/src/exe/rbdock.cxx#4 $)

>  <Rbt.Library>
libRbt.so (2013.1, Build901 2013/11/27)

>  <Rbt.Parameter_File>
/export/apps/rDock/src/rDock_2013.1_src/data/scripts/dock_solv.prm

>  <Rbt.Receptor>
prm/blind_docking_100.prm

>  <SCORE>
14.9802

>  <SCORE.INTER>
-25.4409

>  <SCORE.INTER.CONST>
1

>  <SCORE.INTER.POLAR>
-2.87967

>  <SCORE.INTER.ROT>
9

>  <SCORE.INTER.SOLV>
28.9267

>  <SCORE.INTER.VDW>
-26.6039

>  <SCORE.INTER.norm>
-0.605735

>  <SCORE.INTRA>
9.01409

>  <SCORE.INTRA.DIHEDRAL>
1.88909

>  <SCORE.INTRA.DIHEDRAL.0>
30.1357

>  <SCORE.INTRA.POLAR>
-1.12616

>  <SCORE.INTRA.POLAR.0>
-0.631696

>  <SCORE.INTRA.REPUL>
0

>  <SCORE.INTRA.REPUL.0>
0

>  <SCORE.INTRA.SOLV>
1.63051

>  <SCORE.INTRA.SOLV.lig_0>
-55.904

>  <SCORE.INTRA.VDW>
11.0832

>  <SCORE.INTRA.VDW.0>
-8.21197

>  <SCORE.INTRA.norm>
0.214621

>  <SCORE.RESTR>
31.4069

>  <SCORE.RESTR.CAVITY>
31.4069

>  <SCORE.RESTR.norm>
0.747784

>  <SCORE.SYSTEM>
0

>  <SCORE.SYSTEM.CONST>
0

>  <SCORE.SYSTEM.DIHEDRAL>
0

>  <SCORE.SYSTEM.SOLV>
0

>  <SCORE.SYSTEM.norm>
0

>  <SCORE.heavy>
42

>  <SCORE.norm>
0.35667

>  <RMSD>
5.357

$$$$
lig.pdb
 OpenBabel11021811453D
libRbt.so/2013.1/901 2013/11/27
 42 45  0  0  0  0  0  0  0  0999 V2000
   -1.4622    4.4920    1.3762 C   0  0  2  0  0  0  0  0  0  0  0  0
   -0.9912    5.1157    0.1800 O   0  0  0  0  0  0  0  0  0  0  0  0
   -2.8914    4.9489    1.7052 C   0  0  2  0  0  0  0  0  0  0  0  0
   -3.7970    4.7160    0.5651 N   0  0  0  0  0  0  0  0  0  0  0  0
   -2.9129    6.4218    2.1339 C   0  0  1  0  0  0  0  0  0  0  0  0
   -4.2132    6.7640    2.5739 O   0  0  0  0  0  0  0  0  0  0  0  0
   -1.9110    6.6589    3.2739 C   0  0  2  0  0  0  0  0  0  0  0  0
   -1.8305    8.0449    3.5462 O   0  0  0  0  0  0  0  0  0  0  0  0
   -0.5122    6.1143    2.9200 C   0  0  2  0  0  0  0  0  0  0  0  0
   -0.5843    4.7631    2.4660 O   0  0  0  0  0  0  0  0  0  0  0  0
    0.3660    6.1926    4.1833 C   0  0  0  0  0  0  0  0  0  0  0  0
   -0.1100    5.3127    5.2366 O   0  0  0  0  0  0  0  0  0  0  0  0
    2.8780    4.9002   -1.6944 C   0  0  2  0  0  0  0  0  0  0  0  0
    4.3541    4.9100   -1.6593 N   0  0  0  0  0  0  0  0  0  0  0  0
    2.3243    6.2224   -1.1576 C   0  0  0  0  0  0  0  0  0  0  0  0
    0.8044    6.1673   -1.0586 C   0  0  2  0  0  0  0  0  0  0  0  0
    0.2762    7.4707   -0.6369 N   0  0  0  0  0  0  0  0  0  0  0  0
    0.4192    5.0394   -0.0732 C   0  0  2  0  0  0  0  0  0  0  0  0
    0.8180    3.7295   -0.6738 C   0  0  2  0  0  0  0  0  0  0  0  0
    0.4194    2.7096    0.2238 O   0  0  0  0  0  0  0  0  0  0  0  0
    2.3182    3.7066   -0.8981 C   0  0  1  0  0  0  0  0  0  0  0  0
    2.7410    2.5201   -1.5434 O   0  0  0  0  0  0  0  0  0  0  0  0
    0.9689    2.7302    1.5370 C   0  0  1  0  0  0  0  0  0  0  0  0
   -0.0769    2.1482    2.4905 C   0  0  2  0  0  0  0  0  0  0  0  0
   -0.0138    2.8317    3.7280 O   0  0  0  0  0  0  0  0  0  0  0  0
    0.3543    0.6793    2.5974 C   0  0  2  0  0  0  0  0  0  0  0  0
   -0.1469    0.0395    3.7714 O   0  0  0  0  0  0  0  0  0  0  0  0
    1.8783    0.8459    2.5554 C   0  0  2  0  0  0  0  0  0  0  0  0
    2.0997    1.8699    1.5958 O   0  0  0  0  0  0  0  0  0  0  0  0
    2.6411   -0.4126    2.1255 C   0  0  0  0  0  0  0  0  0  0  0  0
    3.8995   -0.4999    2.7594 O   0  0  0  0  0  0  0  0  0  0  0  0
    0.8140   -0.7414    4.4791 C   0  0  2  0  0  0  0  0  0  0  0  0
    0.1764   -1.9784    5.1299 C   0  0  2  0  0  0  0  0  0  0  0  0
   -0.5401   -2.7884    4.1306 N   0  0  0  0  0  0  0  0  0  0  0  0
   -0.7425   -1.5804    6.2947 C   0  0  1  0  0  0  0  0  0  0  0  0
   -1.2308   -2.7581    6.9073 O   0  0  0  0  0  0  0  0  0  0  0  0
    0.0786   -0.7591    7.3032 C   0  0  2  0  0  0  0  0  0  0  0  0
   -0.7344   -0.3289    8.3795 O   0  0  0  0  0  0  0  0  0  0  0  0
    0.7481    0.4495    6.6170 C   0  0  1  0  0  0  0  0  0  0  0  0
    1.4829    0.0517    5.4571 O   0  0  0  0  0  0  0  0  0  0  0  0
   -0.2289    1.5947    6.3123 C   0  0  0  0  0  0  0  0  0  0  0  0
    0.4490    2.9007    6.3453 N   0  0  0  0  0  0  0  0  0  0  0  0
  1  3  1  0  0  0  0
  1  2  1  6  0  0  0
  3  4  1  6  0  0  0
  5  6  1  1  0  0  0
  5  3  1  0  0  0  0
  7  9  1  0  0  0  0
  7  5  1  0  0  0  0
  7  8  1  6  0  0  0
  9 10  1  0  0  0  0
  9 11  1  1  0  0  0
 10  1  1  0  0  0  0
 11 12  1  0  0  0  0
 13 14  1  1  0  0  0
 13 21  1  0  0  0  0
 15 13  1  0  0  0  0
 16 15  1  0  0  0  0
 16 18  1  0  0  0  0
 16 17  1  1  0  0  0
 18  2  1  6  0  0  0
 18 19  1  0  0  0  0
 19 21  1  0  0  0  0
 19 20  1  1  0  0  0
 21 22  1  6  0  0  0
 23 20  1  6  0  0  0
 23 29  1  0  0  0  0
 23 24  1  0  0  0  0
 24 26  1  0  0  0  0
 24 25  1  1  0  0  0
 26 27  1  1  0  0  0
 28 26  1  0  0  0  0
 28 30  1  6  0  0  0
 29 28  1  0  0  0  0
 30 31  1  0  0  0  0
 32 27  1  1  0  0  0
 32 40  1  0  0  0  0
 32 33  1  0  0  0  0
 33 35  1  0  0  0  0
 33 34  1  6  0  0  0
 35 37  1  0  0  0  0
 35 36  1  1  0  0  0
 37 38  1  1  0  0  0
 39 37  1  0  0  0  0
 39 41  1  6  0  0  0
 40 39  1  0  0  0  0
 42 41  1  0  0  0  0
M  END
>  <CHROM.1>
-159.01196677,165.43671322,81.61143609,-61.68873264,83.46581439,-162.86055252
65.37033252,-179.09289292,-44.78378289,-60.10276426,148.58210737,-170.50590995
64.72358881,-134.42224525,-146.03166466,-147.56239326,-31.13900336,-153.98096551
85.59264268,-44.30663964,150.03288224,147.54107343,0.18762400,2.89031943
2.68333413,1.58746321,0.79635160,-0.70496979

>  <Name>
lig.pdb

>  <RI>
0

>  <Rbt.Current_Directory>
/home/itssahil/PROJECTS/Mol_Feturizer/New_Systems/rnas/2mxs

>  <Rbt.Executable>
rbdock ($Id: //depot/dev/client3/rdock/2013.1/src/exe/rbdock.cxx#4 $)

>  <Rbt.Library>
libRbt.so (2013.1, Build901 2013/11/27)

>  <Rbt.Parameter_File>
/export/apps/rDock/src/rDock_2013.1_src/data/scripts/dock_solv.prm

>  <Rbt.Receptor>
prm/blind_docking_80.prm

>  <SCORE>
-24.6622

>  <SCORE.INTER>
-45.8411

>  <SCORE.INTER.CONST>
1

>  <SCORE.INTER.POLAR>
-6.26926

>  <SCORE.INTER.ROT>
9

>  <SCORE.INTER.SOLV>
32.9537

>  <SCORE.INTER.VDW>
-30.2478

>  <SCORE.INTER.norm>
-1.09145

>  <SCORE.INTRA>
10.5719

>  <SCORE.INTRA.DIHEDRAL>
9.93485

>  <SCORE.INTRA.DIHEDRAL.0>
30.1357

>  <SCORE.INTRA.POLAR>
-1.54424

>  <SCORE.INTRA.POLAR.0>
-0.631696

>  <SCORE.INTRA.REPUL>
0.00961032

>  <SCORE.INTRA.REPUL.0>
0

>  <SCORE.INTRA.SOLV>
3.05317

>  <SCORE.INTRA.SOLV.lig_0>
-55.904

>  <SCORE.INTRA.VDW>
9.28025

>  <SCORE.INTRA.VDW.0>
-8.21197

>  <SCORE.INTRA.norm>
0.251712

>  <SCORE.RESTR>
10.6069

>  <SCORE.RESTR.CAVITY>
10.6069

>  <SCORE.RESTR.norm>
0.252546

>  <SCORE.SYSTEM>
0

>  <SCORE.SYSTEM.CONST>
0

>  <SCORE.SYSTEM.DIHEDRAL>
0

>  <SCORE.SYSTEM.SOLV>
0

>  <SCORE.SYSTEM.norm>
0

>  <SCORE.heavy>
42

>  <SCORE.norm>
-0.587196

>  <RMSD>
5.362

$$$$
lig.pdb
 OpenBabel11021811453D
libRbt.so/2013.1/901 2013/11/27
 42 45  0  0  0  0  0  0  0  0999 V2000
   -2.6882    0.3866    1.7458 C   0  0  2  0  0  0  0  0  0  0  0  0
   -2.8451   -0.7370    2.6144 O   0  0  0  0  0  0  0  0  0  0  0  0
   -3.4380    0.1651    0.4236 C   0  0  2  0  0  0  0  0  0  0  0  0
   -4.8571   -0.1534    0.6670 N   0  0  0  0  0  0  0  0  0  0  0  0
   -2.7638   -0.9290   -0.4143 C   0  0  1  0  0  0  0  0  0  0  0  0
   -3.3859   -0.9993   -1.6830 O   0  0  0  0  0  0  0  0  0  0  0  0
   -1.2709   -0.6160   -0.5961 C   0  0  2  0  0  0  0  0  0  0  0  0
   -0.6371   -1.7093   -1.2320 O   0  0  0  0  0  0  0  0  0  0  0  0
   -0.5848   -0.3284    0.7548 C   0  0  2  0  0  0  0  0  0  0  0  0
   -1.3081    0.6482    1.5033 O   0  0  0  0  0  0  0  0  0  0  0  0
    0.8392    0.1850    0.4689 C   0  0  0  0  0  0  0  0  0  0  0  0
    1.6769   -0.8338   -0.1399 O   0  0  0  0  0  0  0  0  0  0  0  0
   -1.1862   -1.5650    6.4994 C   0  0  2  0  0  0  0  0  0  0  0  0
   -0.1193   -1.4730    7.5160 N   0  0  0  0  0  0  0  0  0  0  0  0
   -0.6650   -2.2675    5.2432 C   0  0  0  0  0  0  0  0  0  0  0  0
   -1.7148   -2.2413    4.1387 C   0  0  2  0  0  0  0  0  0  0  0  0
   -1.2444   -3.0015    2.9740 N   0  0  0  0  0  0  0  0  0  0  0  0
   -2.0159   -0.7662    3.7851 C   0  0  2  0  0  0  0  0  0  0  0  0
   -2.6739   -0.1219    4.9630 C   0  0  2  0  0  0  0  0  0  0  0  0
   -2.9782    1.2135    4.6041 O   0  0  0  0  0  0  0  0  0  0  0  0
   -1.7405   -0.1690    6.1579 C   0  0  1  0  0  0  0  0  0  0  0  0
   -2.3456    0.3532    7.3259 O   0  0  0  0  0  0  0  0  0  0  0  0
   -3.6953    2.0058    5.5447 C   0  0  1  0  0  0  0  0  0  0  0  0
   -2.6724    2.7193    6.4312 C   0  0  2  0  0  0  0  0  0  0  0  0
   -3.1778    2.8089    7.7501 O   0  0  0  0  0  0  0  0  0  0  0  0
   -2.5404    4.0874    5.7486 C   0  0  2  0  0  0  0  0  0  0  0  0
   -2.0293    5.0946    6.6221 O   0  0  0  0  0  0  0  0  0  0  0  0
   -3.9908    4.3007    5.2981 C   0  0  2  0  0  0  0  0  0  0  0  0
   -4.4216    3.0194    4.8610 O   0  0  0  0  0  0  0  0  0  0  0  0
   -4.1558    5.3007    4.1478 C   0  0  0  0  0  0  0  0  0  0  0  0
   -5.5151    5.4996    3.8225 O   0  0  0  0  0  0  0  0  0  0  0  0
   -0.6709    4.9077    7.0144 C   0  0  2  0  0  0  0  0  0  0  0  0
   -0.3085    5.7601    8.2400 C   0  0  2  0  0  0  0  0  0  0  0  0
   -1.2295    5.4935    9.3574 N   0  0  0  0  0  0  0  0  0  0  0  0
   -0.2725    7.2542    7.8852 C   0  0  1  0  0  0  0  0  0  0  0  0
    0.1490    7.9788    9.0245 O   0  0  0  0  0  0  0  0  0  0  0  0
    0.7230    7.4558    6.7301 C   0  0  2  0  0  0  0  0  0  0  0  0
    0.7626    8.8145    6.3339 O   0  0  0  0  0  0  0  0  0  0  0  0
    0.3669    6.5546    5.5299 C   0  0  1  0  0  0  0  0  0  0  0  0
    0.2084    5.1910    5.9283 O   0  0  0  0  0  0  0  0  0  0  0  0
   -0.8392    7.0610    4.7251 C   0  0  0  0  0  0  0  0  0  0  0  0
   -0.4845    8.2319    3.9069 N   0  0  0  0  0  0  0  0  0  0  0  0
  1  3  1  0  0  0  0
  1  2  1  1  0  0  0
  3  4  1  1  0  0  0
  5  6  1  6  0  0  0
  5  3  1  0  0  0  0
  7  9  1  0  0  0  0
  7  5  1  0  0  0  0
  7  8  1  1  0  0  0
  9 10  1  0  0  0  0
  9 11  1  6  0  0  0
 10  1  1  0  0  0  0
 11 12  1  0  0  0  0
 13 14  1  1  0  0  0
 13 21  1  0  0  0  0
 15 13  1  0  0  0  0
 16 15  1  0  0  0  0
 16 18  1  0  0  0  0
 16 17  1  6  0  0  0
 18  2  1  6  0  0  0
 18 19  1  0  0  0  0
 19 21  1  0  0  0  0
 19 20  1  6  0  0  0
 21 22  1  1  0  0  0
 23 20  1  6  0  0  0
 23 29  1  0  0  0  0
 23 24  1  0  0  0  0
 24 26  1  0  0  0  0
 24 25  1  1  0  0  0
 26 27  1  1  0  0  0
 28 26  1  0  0  0  0
 28 30  1  6  0  0  0
 29 28  1  0  0  0  0
 30 31  1  0  0  0  0
 32 27  1  6  0  0  0
 32 40  1  0  0  0  0
 32 33  1  0  0  0  0
 33 35  1  0  0  0  0
 33 34  1  1  0  0  0
 35 37  1  0  0  0  0
 35 36  1  1  0  0  0
 37 38  1  6  0  0  0
 39 37  1  0  0  0  0
 39 41  1  1  0  0  0
 40 39  1  0  0  0  0
 42 41  1  0  0  0  0
M  END
>  <CHROM.1>
-148.82096172,169.68441632,71.39175573,64.73428113,-60.92369797,51.90450177
-65.96271586,158.73788186,-153.43365477,175.92630706,90.47094518,-34.98077424
-168.86041609,67.64188950,-163.47033015,-177.23552732,-67.74292062,177.97570394
71.55768452,169.32461837,74.23361956,75.86059609,-1.70674903,2.26702697,4.32920103
-3.04118327,1.47624188,2.12389824

>  <Name>
lig.pdb

>  <RI>
4.11275e+07

>  <Rbt.Current_Directory>
/home/itssahil/PROJECTS/Mol_Feturizer/New_Systems/rnas/2mxs

>  <Rbt.Executable>
rbdock ($Id: //depot/dev/client3/rdock/2013.1/src/exe/rbdock.cxx#4 $)

>  <Rbt.Library>
libRbt.so (2013.1, Build901 2013/11/27)

>  <Rbt.Parameter_File>
/export/apps/rDock/src/rDock_2013.1_src/data/scripts/dock_solv.prm

>  <Rbt.Receptor>
prm/pocket_docking_8.prm

>  <SCORE>
-53.5233

>  <SCORE.INTER>
-54.0782

>  <SCORE.INTER.CONST>
1

>  <SCORE.INTER.POLAR>
-9.05557

>  <SCORE.INTER.ROT>
9

>  <SCORE.INTER.SOLV>
23.7404

>  <SCORE.INTER.VDW>
-23.3804

>  <SCORE.INTER.norm>
-1.28758

>  <SCORE.INTRA>
0.554898

>  <SCORE.INTRA.DIHEDRAL>
-10.5114

>  <SCORE.INTRA.DIHEDRAL.0>
30.1357

>  <SCORE.INTRA.POLAR>
-0.0140643

>  <SCORE.INTRA.POLAR.0>
-0.631696

>  <SCORE.INTRA.REPUL>
0

>  <SCORE.INTRA.REPUL.0>
0

>  <SCORE.INTRA.SOLV>
0.261224

>  <SCORE.INTRA.SOLV.lig_0>
-55.904

>  <SCORE.INTRA.VDW>
5.7278

>  <SCORE.INTRA.VDW.0>
-8.21197

>  <SCORE.INTRA.norm>
0.0132118

>  <SCORE.RESTR>
0

>  <SCORE.RESTR.CAVITY>
0

>  <SCORE.RESTR.norm>
0

>  <SCORE.SYSTEM>
0

>  <SCORE.SYSTEM.CONST>
0

>  <SCORE.SYSTEM.DIHEDRAL>
0

>  <SCORE.SYSTEM.SOLV>
0

>  <SCORE.SYSTEM.norm>
0

>  <SCORE.heavy>
42

>  <SCORE.norm>
-1.27436

>  <RMSD>
5.378

$$$$
lig.pdb
 OpenBabel11021811453D
libRbt.so/2013.1/901 2013/11/27
 42 45  0  0  0  0  0  0  0  0999 V2000
    1.7630    2.9268   -1.4807 C   0  0  2  0  0  0  0  0  0  0  0  0
    1.9179    4.0797   -0.6511 O   0  0  0  0  0  0  0  0  0  0  0  0
    1.7739    1.6417   -0.6392 C   0  0  2  0  0  0  0  0  0  0  0  0
    0.7564    1.6985    0.4265 N   0  0  0  0  0  0  0  0  0  0  0  0
    3.1682    1.3780   -0.0561 C   0  0  1  0  0  0  0  0  0  0  0  0
    3.1794    0.1151    0.5815 O   0  0  0  0  0  0  0  0  0  0  0  0
    4.2235    1.3941   -1.1722 C   0  0  2  0  0  0  0  0  0  0  0  0
    5.5137    1.3079   -0.5983 O   0  0  0  0  0  0  0  0  0  0  0  0
    4.1185    2.6705   -2.0314 C   0  0  2  0  0  0  0  0  0  0  0  0
    2.7799    2.8828   -2.4786 O   0  0  0  0  0  0  0  0  0  0  0  0
    5.0532    2.5088   -3.2453 C   0  0  0  0  0  0  0  0  0  0  0  0
    4.8426    3.5458   -4.2407 O   0  0  0  0  0  0  0  0  0  0  0  0
    2.1417    8.2800   -1.5666 C   0  0  2  0  0  0  0  0  0  0  0  0
    2.0917    9.4227   -2.5004 N   0  0  0  0  0  0  0  0  0  0  0  0
    3.2620    7.3160   -1.9650 C   0  0  0  0  0  0  0  0  0  0  0  0
    3.2303    6.0663   -1.0931 C   0  0  2  0  0  0  0  0  0  0  0  0
    4.3661    5.1938   -1.4163 N   0  0  0  0  0  0  0  0  0  0  0  0
    1.8737    5.3553   -1.3070 C   0  0  2  0  0  0  0  0  0  0  0  0
    0.7893    6.2328   -0.7691 C   0  0  2  0  0  0  0  0  0  0  0  0
   -0.4376    5.5463   -0.9366 O   0  0  0  0  0  0  0  0  0  0  0  0
    0.7845    7.5536   -1.5153 C   0  0  1  0  0  0  0  0  0  0  0  0
   -0.1697    8.4573   -0.9900 O   0  0  0  0  0  0  0  0  0  0  0  0
   -0.8054    4.5941    0.0558 C   0  0  1  0  0  0  0  0  0  0  0  0
   -0.4485    5.1818    1.4228 C   0  0  2  0  0  0  0  0  0  0  0  0
   -0.0066    4.1441    2.2775 O   0  0  0  0  0  0  0  0  0  0  0  0
   -1.7783    5.8008    1.8739 C   0  0  2  0  0  0  0  0  0  0  0  0
   -1.8508    5.9863    3.2878 O   0  0  0  0  0  0  0  0  0  0  0  0
   -2.7586    4.7657    1.3087 C   0  0  2  0  0  0  0  0  0  0  0  0
   -2.2156    4.4119    0.0444 O   0  0  0  0  0  0  0  0  0  0  0  0
   -4.1859    5.2886    1.1089 C   0  0  0  0  0  0  0  0  0  0  0  0
   -4.4547    6.3972    1.9407 O   0  0  0  0  0  0  0  0  0  0  0  0
   -1.7713    4.7835    4.0499 C   0  0  2  0  0  0  0  0  0  0  0  0
   -2.7950    4.7649    5.1953 C   0  0  2  0  0  0  0  0  0  0  0  0
   -4.1586    4.9863    4.6859 N   0  0  0  0  0  0  0  0  0  0  0  0
   -2.4284    5.7856    6.2831 C   0  0  1  0  0  0  0  0  0  0  0  0
   -3.3527    5.6635    7.3467 O   0  0  0  0  0  0  0  0  0  0  0  0
   -1.0053    5.4778    6.7790 C   0  0  2  0  0  0  0  0  0  0  0  0
   -0.6003    6.4192    7.7558 O   0  0  0  0  0  0  0  0  0  0  0  0
   -0.0041    5.4542    5.6056 C   0  0  1  0  0  0  0  0  0  0  0  0
   -0.4508    4.5953    4.5539 O   0  0  0  0  0  0  0  0  0  0  0  0
    0.3602    6.8535    5.0879 C   0  0  0  0  0  0  0  0  0  0  0  0
    1.1246    7.6136    6.0900 N   0  0  0  0  0  0  0  0  0  0  0  0
  1  3  1  0  0  0  0
  1  2  1  1  0  0  0
  3  4  1  1  0  0  0
  5  6  1  6  0  0  0
  5  3  1  0  0  0  0
  7  9  1  0  0  0  0
  7  5  1  0  0  0  0
  7  8  1  1  0  0  0
  9 10  1  0  0  0  0
  9 11  1  6  0  0  0
 10  1  1  0  0  0  0
 11 12  1  0  0  0  0
 13 14  1  6  0  0  0
 13 21  1  0  0  0  0
 15 13  1  0  0  0  0
 16 15  1  0  0  0  0
 16 18  1  0  0  0  0
 16 17  1  6  0  0  0
 18  2  1  1  0  0  0
 18 19  1  0  0  0  0
 19 21  1  0  0  0  0
 19 20  1  6  0  0  0
 21 22  1  1  0  0  0
 23 20  1  6  0  0  0
 23 29  1  0  0  0  0
 23 24  1  0  0  0  0
 24 26  1  0  0  0  0
 24 25  1  1  0  0  0
 26 27  1  1  0  0  0
 28 26  1  0  0  0  0
 28 30  1  6  0  0  0
 29 28  1  0  0  0  0
 30 31  1  0  0  0  0
 32 27  1  1  0  0  0
 32 40  1  0  0  0  0
 32 33  1  0  0  0  0
 33 35  1  0  0  0  0
 33 34  1  6  0  0  0
 35 37  1  0  0  0  0
 35 36  1  1  0  0  0
 37 38  1  1  0  0  0
 39 37  1  0  0  0  0
 39 41  1  6  0  0  0
 40 39  1  0  0  0  0
 42 41  1  0  0  0  0
M  END
>  <CHROM.1>
-118.44683727,-177.69139022,-54.83089355,-60.56594345,79.49240201,66.11912115
169.35678807,-130.21662756,-67.81825205,83.54976954,40.95905623,-177.98263357
174.08141549,-62.03456069,-136.85053682,-23.33102422,-27.18857602,30.97466022
-55.97540709,75.22414235,67.07138073,-167.37281823,0.55335204,4.87783555
1.15125567,-0.39959839,-0.85182800,2.34031337

>  <Name>
lig.pdb

>  <RI>
3.31443e+07

>  <Rbt.Current_Directory>
/home/itssahil/PROJECTS/Mol_Feturizer/New_Systems/rnas/2mxs

>  <Rbt.Executable>
rbdock ($Id: //depot/dev/client3/rdock/2013.1/src/exe/rbdock.cxx#4 $)

>  <Rbt.Library>
libRbt.so (2013.1, Build901 2013/11/27)

>  <Rbt.Parameter_File>
/export/apps/rDock/src/rDock_2013.1_src/data/scripts/dock_solv.prm

>  <Rbt.Receptor>
prm/blind_docking_40.prm

>  <SCORE>
37.0541

>  <SCORE.INTER>
-2.3474

>  <SCORE.INTER.CONST>
1

>  <SCORE.INTER.POLAR>
-4.35138

>  <SCORE.INTER.ROT>
9

>  <SCORE.INTER.SOLV>
31.8136

>  <SCORE.INTER.VDW>
-7.26486

>  <SCORE.INTER.norm>
-0.0558905

>  <SCORE.INTRA>
12.1827

>  <SCORE.INTRA.DIHEDRAL>
4.81416

>  <SCORE.INTRA.DIHEDRAL.0>
30.1357

>  <SCORE.INTRA.POLAR>
-1.6689

>  <SCORE.INTRA.POLAR.0>
-0.631696

>  <SCORE.INTRA.REPUL>
0

>  <SCORE.INTRA.REPUL.0>
0

>  <SCORE.INTRA.SOLV>
3.0836

>  <SCORE.INTRA.SOLV.lig_0>
-55.904

>  <SCORE.INTRA.VDW>
13.9081

>  <SCORE.INTRA.VDW.0>
-8.21197

>  <SCORE.INTRA.norm>
0.290065

>  <SCORE.RESTR>
27.2187

>  <SCORE.RESTR.CAVITY>
27.2187

>  <SCORE.RESTR.norm>
0.648065

>  <SCORE.SYSTEM>
0

>  <SCORE.SYSTEM.CONST>
0

>  <SCORE.SYSTEM.DIHEDRAL>
0

>  <SCORE.SYSTEM.SOLV>
0

>  <SCORE.SYSTEM.norm>
0

>  <SCORE.heavy>
42

>  <SCORE.norm>
0.88224

>  <RMSD>
5.409

$$$$
lig.pdb
 OpenBabel11021811453D
libRbt.so/2013.1/901 2013/11/27
 42 45  0  0  0  0  0  0  0  0999 V2000
   -1.1123    4.4096    1.7922 C   0  0  2  0  0  0  0  0  0  0  0  0
   -0.6344    5.1558    0.6713 O   0  0  0  0  0  0  0  0  0  0  0  0
   -2.5886    4.7283    2.0723 C   0  0  2  0  0  0  0  0  0  0  0  0
   -3.4141    4.5119    0.8698 N   0  0  0  0  0  0  0  0  0  0  0  0
   -2.7515    6.1588    2.6021 C   0  0  1  0  0  0  0  0  0  0  0  0
   -4.0957    6.3651    2.9919 O   0  0  0  0  0  0  0  0  0  0  0  0
   -1.8305    6.3869    3.8103 C   0  0  2  0  0  0  0  0  0  0  0  0
   -1.8770    7.7506    4.1839 O   0  0  0  0  0  0  0  0  0  0  0  0
   -0.3761    5.9805    3.4974 C   0  0  2  0  0  0  0  0  0  0  0  0
   -0.3151    4.6656    2.9457 O   0  0  0  0  0  0  0  0  0  0  0  0
    0.4284    6.0319    4.8102 C   0  0  0  0  0  0  0  0  0  0  0  0
    0.1785    4.8742    5.6514 O   0  0  0  0  0  0  0  0  0  0  0  0
    2.2980    4.0049   -2.2626 C   0  0  2  0  0  0  0  0  0  0  0  0
    3.6247    3.4919   -2.6589 N   0  0  0  0  0  0  0  0  0  0  0  0
    2.4470    5.2925   -1.4483 C   0  0  0  0  0  0  0  0  0  0  0  0
    1.0943    5.7511   -0.9166 C   0  0  2  0  0  0  0  0  0  0  0  0
    1.2324    7.0369   -0.2213 N   0  0  0  0  0  0  0  0  0  0  0  0
    0.5339    4.6478    0.0108 C   0  0  2  0  0  0  0  0  0  0  0  0
    0.2371    3.4388   -0.8175 C   0  0  2  0  0  0  0  0  0  0  0  0
   -0.3129    2.4573    0.0420 O   0  0  0  0  0  0  0  0  0  0  0  0
    1.5129    2.9422   -1.4709 C   0  0  1  0  0  0  0  0  0  0  0  0
    1.2758    1.8471   -2.3355 O   0  0  0  0  0  0  0  0  0  0  0  0
    0.5413    1.4063    0.4806 C   0  0  1  0  0  0  0  0  0  0  0  0
    1.0515    1.7702    1.8765 C   0  0  2  0  0  0  0  0  0  0  0  0
    2.3862    1.3217    2.0187 O   0  0  0  0  0  0  0  0  0  0  0  0
    0.0708    1.0247    2.7917 C   0  0  2  0  0  0  0  0  0  0  0  0
    0.5947    0.8048    4.1017 O   0  0  0  0  0  0  0  0  0  0  0  0
   -0.1501   -0.2475    1.9642 C   0  0  2  0  0  0  0  0  0  0  0  0
   -0.2092    0.2064    0.6193 O   0  0  0  0  0  0  0  0  0  0  0  0
   -1.4450   -0.9996    2.2932 C   0  0  0  0  0  0  0  0  0  0  0  0
   -1.2060   -2.3727    2.5183 O   0  0  0  0  0  0  0  0  0  0  0  0
    0.0093    1.6144    5.1195 C   0  0  2  0  0  0  0  0  0  0  0  0
    0.8127    1.5558    6.4277 C   0  0  2  0  0  0  0  0  0  0  0  0
    2.2205    1.9206    6.1975 N   0  0  0  0  0  0  0  0  0  0  0  0
    0.6906    0.1761    7.0919 C   0  0  1  0  0  0  0  0  0  0  0  0
    1.3759    0.2083    8.3289 O   0  0  0  0  0  0  0  0  0  0  0  0
   -0.8007   -0.1240    7.3192 C   0  0  2  0  0  0  0  0  0  0  0  0
   -0.9722   -1.4073    7.8920 O   0  0  0  0  0  0  0  0  0  0  0  0
   -1.5943   -0.0117    6.0011 C   0  0  1  0  0  0  0  0  0  0  0  0
   -1.3461    1.2340    5.3455 O   0  0  0  0  0  0  0  0  0  0  0  0
   -1.3839   -1.2072    5.0602 C   0  0  0  0  0  0  0  0  0  0  0  0
   -2.2687   -2.3293    5.4129 N   0  0  0  0  0  0  0  0  0  0  0  0
  1  3  1  0  0  0  0
  1  2  1  6  0  0  0
  3  4  1  6  0  0  0
  5  6  1  1  0  0  0
  5  3  1  0  0  0  0
  7  9  1  0  0  0  0
  7  5  1  0  0  0  0
  7  8  1  6  0  0  0
  9 10  1  0  0  0  0
  9 11  1  1  0  0  0
 10  1  1  0  0  0  0
 11 12  1  0  0  0  0
 13 14  1  1  0  0  0
 13 21  1  0  0  0  0
 15 13  1  0  0  0  0
 16 15  1  0  0  0  0
 16 18  1  0  0  0  0
 16 17  1  1  0  0  0
 18  2  1  6  0  0  0
 18 19  1  0  0  0  0
 19 21  1  0  0  0  0
 19 20  1  1  0  0  0
 21 22  1  6  0  0  0
 23 20  1  1  0  0  0
 23 29  1  0  0  0  0
 23 24  1  0  0  0  0
 24 26  1  0  0  0  0
 24 25  1  6  0  0  0
 26 27  1  1  0  0  0
 28 26  1  0  0  0  0
 28 30  1  1  0  0  0
 29 28  1  0  0  0  0
 30 31  1  0  0  0  0
 32 27  1  6  0  0  0
 32 40  1  0  0  0  0
 32 33  1  0  0  0  0
 33 35  1  0  0  0  0
 33 34  1  6  0  0  0
 35 37  1  0  0  0  0
 35 36  1  1  0  0  0
 37 38  1  6  0  0  0
 39 37  1  0  0  0  0
 39 41  1  6  0  0  0
 40 39  1  0  0  0  0
 42 41  1  0  0  0  0
M  END
>  <CHROM.1>
-165.81415445,-159.07733580,96.03536041,-89.96990499,-53.83132753,-54.21938525
77.74077766,73.93670729,172.01621832,-101.40166990,97.98857520,-54.11556201
-55.20095737,107.40026454,-167.54889550,-129.99918533,-164.65806228,78.42123054
-78.68483522,-165.81968138,83.59342219,165.66265535,-0.15040626,2.65623166
2.70468145,1.23078380,1.18287234,-0.58564839

>  <Name>
lig.pdb

>  <RI>
0

>  <Rbt.Current_Directory>
/home/itssahil/PROJECTS/Mol_Feturizer/New_Systems/rnas/2mxs

>  <Rbt.Executable>
rbdock ($Id: //depot/dev/client3/rdock/2013.1/src/exe/rbdock.cxx#4 $)

>  <Rbt.Library>
libRbt.so (2013.1, Build901 2013/11/27)

>  <Rbt.Parameter_File>
/export/apps/rDock/src/rDock_2013.1_src/data/scripts/dock_solv.prm

>  <Rbt.Receptor>
prm/blind_docking_80.prm

>  <SCORE>
30.5953

>  <SCORE.INTER>
-1.36742

>  <SCORE.INTER.CONST>
1

>  <SCORE.INTER.POLAR>
-1.34515

>  <SCORE.INTER.ROT>
9

>  <SCORE.INTER.SOLV>
26.9715

>  <SCORE.INTER.VDW>
-15.0183

>  <SCORE.INTER.norm>
-0.0325576

>  <SCORE.INTRA>
14.6634

>  <SCORE.INTRA.DIHEDRAL>
10.7813

>  <SCORE.INTRA.DIHEDRAL.0>
30.1357

>  <SCORE.INTRA.POLAR>
0.516411

>  <SCORE.INTRA.POLAR.0>
-0.631696

>  <SCORE.INTRA.REPUL>
0

>  <SCORE.INTRA.REPUL.0>
0

>  <SCORE.INTRA.SOLV>
0.739783

>  <SCORE.INTRA.SOLV.lig_0>
-55.904

>  <SCORE.INTRA.VDW>
7.14703

>  <SCORE.INTRA.VDW.0>
-8.21197

>  <SCORE.INTRA.norm>
0.349128

>  <SCORE.RESTR>
17.2993

>  <SCORE.RESTR.CAVITY>
17.2993

>  <SCORE.RESTR.norm>
0.411888

>  <SCORE.SYSTEM>
0

>  <SCORE.SYSTEM.CONST>
0

>  <SCORE.SYSTEM.DIHEDRAL>
0

>  <SCORE.SYSTEM.SOLV>
0

>  <SCORE.SYSTEM.norm>
0

>  <SCORE.heavy>
42

>  <SCORE.norm>
0.728458

>  <RMSD>
5.414

$$$$
lig.pdb
 OpenBabel11021811453D
libRbt.so/2013.1/901 2013/11/27
 42 45  0  0  0  0  0  0  0  0999 V2000
   -0.1594    0.7208    2.4845 C   0  0  2  0  0  0  0  0  0  0  0  0
   -0.6159    1.7145    1.5649 O   0  0  0  0  0  0  0  0  0  0  0  0
    1.0271   -0.0610    1.9009 C   0  0  2  0  0  0  0  0  0  0  0  0
    2.1097    0.8509    1.4876 N   0  0  0  0  0  0  0  0  0  0  0  0
    0.5792   -0.9494    0.7330 C   0  0  1  0  0  0  0  0  0  0  0  0
    1.6598   -1.7647    0.3219 O   0  0  0  0  0  0  0  0  0  0  0  0
   -0.5961   -1.8404    1.1625 C   0  0  2  0  0  0  0  0  0  0  0  0
   -1.0952   -2.5334    0.0346 O   0  0  0  0  0  0  0  0  0  0  0  0
   -1.7258   -1.0136    1.8094 C   0  0  2  0  0  0  0  0  0  0  0  0
   -1.2193   -0.1642    2.8385 O   0  0  0  0  0  0  0  0  0  0  0  0
   -2.7562   -1.9928    2.4032 C   0  0  0  0  0  0  0  0  0  0  0  0
   -3.9968   -1.3294    2.7655 O   0  0  0  0  0  0  0  0  0  0  0  0
   -3.3742    4.9789    2.0806 C   0  0  2  0  0  0  0  0  0  0  0  0
   -4.5766    5.5981    2.6732 N   0  0  0  0  0  0  0  0  0  0  0  0
   -3.7572    3.7294    1.2837 C   0  0  0  0  0  0  0  0  0  0  0  0
   -2.5107    3.0063    0.7872 C   0  0  2  0  0  0  0  0  0  0  0  0
   -2.8886    1.8663   -0.0573 N   0  0  0  0  0  0  0  0  0  0  0  0
   -1.6783    2.5679    2.0145 C   0  0  2  0  0  0  0  0  0  0  0  0
   -1.1691    3.7933    2.7034 C   0  0  2  0  0  0  0  0  0  0  0  0
   -0.3767    3.3696    3.7975 O   0  0  0  0  0  0  0  0  0  0  0  0
   -2.3384    4.6401    3.1691 C   0  0  1  0  0  0  0  0  0  0  0  0
   -1.9138    5.8564    3.7551 O   0  0  0  0  0  0  0  0  0  0  0  0
   -0.9887    2.5360    4.7759 C   0  0  1  0  0  0  0  0  0  0  0  0
    0.0506    2.2487    5.8616 C   0  0  2  0  0  0  0  0  0  0  0  0
   -0.1232    0.9275    6.3381 O   0  0  0  0  0  0  0  0  0  0  0  0
   -0.2738    3.3121    6.9195 C   0  0  2  0  0  0  0  0  0  0  0  0
    0.2168    2.9704    8.2161 O   0  0  0  0  0  0  0  0  0  0  0  0
   -1.8022    3.3498    6.7983 C   0  0  2  0  0  0  0  0  0  0  0  0
   -2.0533    3.2387    5.4044 O   0  0  0  0  0  0  0  0  0  0  0  0
   -2.4468    4.6397    7.3190 C   0  0  0  0  0  0  0  0  0  0  0  0
   -3.8528    4.5295    7.3827 O   0  0  0  0  0  0  0  0  0  0  0  0
    0.4264    4.0823    9.0843 C   0  0  2  0  0  0  0  0  0  0  0  0
    1.6472    4.9139    8.6621 C   0  0  2  0  0  0  0  0  0  0  0  0
    1.5303    5.3452    7.2592 N   0  0  0  0  0  0  0  0  0  0  0  0
    2.9538    4.1442    8.9068 C   0  0  1  0  0  0  0  0  0  0  0  0
    4.0421    4.9875    8.5824 O   0  0  0  0  0  0  0  0  0  0  0  0
    3.0140    3.7479   10.3918 C   0  0  2  0  0  0  0  0  0  0  0  0
    4.1826    2.9960   10.6630 O   0  0  0  0  0  0  0  0  0  0  0  0
    1.7559    2.9560   10.8040 C   0  0  1  0  0  0  0  0  0  0  0  0
    0.5594    3.6457   10.4352 O   0  0  0  0  0  0  0  0  0  0  0  0
    1.7590    1.5043   10.3027 C   0  0  0  0  0  0  0  0  0  0  0  0
    0.3904    0.9768   10.1796 N   0  0  0  0  0  0  0  0  0  0  0  0
  1  3  1  0  0  0  0
  1  2  1  6  0  0  0
  3  4  1  6  0  0  0
  5  6  1  1  0  0  0
  5  3  1  0  0  0  0
  7  9  1  0  0  0  0
  7  5  1  0  0  0  0
  7  8  1  6  0  0  0
  9 10  1  0  0  0  0
  9 11  1  1  0  0  0
 10  1  1  0  0  0  0
 11 12  1  0  0  0  0
 13 14  1  1  0  0  0
 13 21  1  0  0  0  0
 15 13  1  0  0  0  0
 16 15  1  0  0  0  0
 16 18  1  0  0  0  0
 16 17  1  1  0  0  0
 18  2  1  6  0  0  0
 18 19  1  0  0  0  0
 19 21  1  0  0  0  0
 19 20  1  1  0  0  0
 21 22  1  6  0  0  0
 23 20  1  6  0  0  0
 23 29  1  0  0  0  0
 23 24  1  0  0  0  0
 24 26  1  0  0  0  0
 24 25  1  1  0  0  0
 26 27  1  1  0  0  0
 28 26  1  0  0  0  0
 28 30  1  6  0  0  0
 29 28  1  0  0  0  0
 30 31  1  0  0  0  0
 32 27  1  6  0  0  0
 32 40  1  0  0  0  0
 32 33  1  0  0  0  0
 33 35  1  0  0  0  0
 33 34  1  6  0  0  0
 35 37  1  0  0  0  0
 35 36  1  1  0  0  0
 37 38  1  6  0  0  0
 39 37  1  0  0  0  0
 39 41  1  6  0  0  0
 40 39  1  0  0  0  0
 42 41  1  0  0  0  0
M  END
>  <CHROM.1>
-150.46247753,-176.77075658,74.29938488,-169.90359148,-57.31696221,-54.96680257
-167.01760604,-123.72593368,-34.89848423,-57.76543098,-178.52995773,-176.38244480
-58.05949614,156.29577170,-71.99618526,-170.42133292,65.35257314,45.25229793
-164.00079137,-177.44704941,-155.10117850,68.06851488,-0.48775237,2.32287890
4.90584181,-2.05408623,-0.75604340,0.85767952

>  <Name>
lig.pdb

>  <RI>
0

>  <Rbt.Current_Directory>
/home/itssahil/PROJECTS/Mol_Feturizer/New_Systems/rnas/2mxs

>  <Rbt.Executable>
rbdock ($Id: //depot/dev/client3/rdock/2013.1/src/exe/rbdock.cxx#4 $)

>  <Rbt.Library>
libRbt.so (2013.1, Build901 2013/11/27)

>  <Rbt.Parameter_File>
/export/apps/rDock/src/rDock_2013.1_src/data/scripts/dock_solv.prm

>  <Rbt.Receptor>
prm/pocket_docking_4.prm

>  <SCORE>
-34.3968

>  <SCORE.INTER>
-32.0286

>  <SCORE.INTER.CONST>
1

>  <SCORE.INTER.POLAR>
-5.0738

>  <SCORE.INTER.ROT>
9

>  <SCORE.INTER.SOLV>
15.4889

>  <SCORE.INTER.VDW>
-19.2027

>  <SCORE.INTER.norm>
-0.762586

>  <SCORE.INTRA>
-2.4804

>  <SCORE.INTRA.DIHEDRAL>
-11.8209

>  <SCORE.INTRA.DIHEDRAL.0>
30.1357

>  <SCORE.INTRA.POLAR>
-0.272621

>  <SCORE.INTRA.POLAR.0>
-0.631696

>  <SCORE.INTRA.REPUL>
0

>  <SCORE.INTRA.REPUL.0>
0

>  <SCORE.INTRA.SOLV>
-0.973614

>  <SCORE.INTRA.SOLV.lig_0>
-55.904

>  <SCORE.INTRA.VDW>
4.8438

>  <SCORE.INTRA.VDW.0>
-8.21197

>  <SCORE.INTRA.norm>
-0.0590571

>  <SCORE.RESTR>
0.112221

>  <SCORE.RESTR.CAVITY>
0.112221

>  <SCORE.RESTR.norm>
0.00267193

>  <SCORE.SYSTEM>
0

>  <SCORE.SYSTEM.CONST>
0

>  <SCORE.SYSTEM.DIHEDRAL>
0

>  <SCORE.SYSTEM.SOLV>
0

>  <SCORE.SYSTEM.norm>
0

>  <SCORE.heavy>
42

>  <SCORE.norm>
-0.818971

>  <RMSD>
5.416

$$$$
lig.pdb
 OpenBabel11021811453D
libRbt.so/2013.1/901 2013/11/27
 42 45  0  0  0  0  0  0  0  0999 V2000
   -2.5807    0.9640    1.5907 C   0  0  2  0  0  0  0  0  0  0  0  0
   -3.1153    0.0906    2.5872 O   0  0  0  0  0  0  0  0  0  0  0  0
   -3.2465    0.7133    0.2293 C   0  0  2  0  0  0  0  0  0  0  0  0
   -4.7138    0.8198    0.3302 N   0  0  0  0  0  0  0  0  0  0  0  0
   -2.8311   -0.6478   -0.3437 C   0  0  1  0  0  0  0  0  0  0  0  0
   -3.3374   -0.7783   -1.6583 O   0  0  0  0  0  0  0  0  0  0  0  0
   -1.3000   -0.7676   -0.3738 C   0  0  2  0  0  0  0  0  0  0  0  0
   -0.9403   -2.0819   -0.7541 O   0  0  0  0  0  0  0  0  0  0  0  0
   -0.6794   -0.4327    0.9977 C   0  0  2  0  0  0  0  0  0  0  0  0
   -1.1666    0.8136    1.4940 O   0  0  0  0  0  0  0  0  0  0  0  0
    0.8500   -0.3628    0.8272 C   0  0  0  0  0  0  0  0  0  0  0  0
    1.4090   -1.6251    0.3750 O   0  0  0  0  0  0  0  0  0  0  0  0
   -1.2500   -1.5760    6.0905 C   0  0  2  0  0  0  0  0  0  0  0  0
   -0.1183   -2.2072    6.7986 N   0  0  0  0  0  0  0  0  0  0  0  0
   -1.7184   -2.4659    4.9365 C   0  0  0  0  0  0  0  0  0  0  0  0
   -2.7906   -1.7598    4.1151 C   0  0  2  0  0  0  0  0  0  0  0  0
   -3.3029   -2.6571    3.0719 N   0  0  0  0  0  0  0  0  0  0  0  0
   -2.1805   -0.4689    3.5212 C   0  0  2  0  0  0  0  0  0  0  0  0
   -1.8703    0.4683    4.6441 C   0  0  2  0  0  0  0  0  0  0  0  0
   -1.3527    1.6576    4.0767 O   0  0  0  0  0  0  0  0  0  0  0  0
   -0.8655   -0.1739    5.5819 C   0  0  1  0  0  0  0  0  0  0  0  0
   -0.5982    0.6369    6.7106 O   0  0  0  0  0  0  0  0  0  0  0  0
   -2.0415    2.8745    4.3444 C   0  0  1  0  0  0  0  0  0  0  0  0
   -1.6055    3.3640    5.7271 C   0  0  2  0  0  0  0  0  0  0  0  0
   -2.7052    3.9744    6.3758 O   0  0  0  0  0  0  0  0  0  0  0  0
   -0.4861    4.3576    5.3882 C   0  0  2  0  0  0  0  0  0  0  0  0
   -0.2418    5.2948    6.4373 O   0  0  0  0  0  0  0  0  0  0  0  0
   -1.0522    4.9662    4.0993 C   0  0  2  0  0  0  0  0  0  0  0  0
   -1.6361    3.8686    3.4119 O   0  0  0  0  0  0  0  0  0  0  0  0
   -0.0019    5.6194    3.1933 C   0  0  0  0  0  0  0  0  0  0  0  0
   -0.5976    6.4646    2.2321 O   0  0  0  0  0  0  0  0  0  0  0  0
   -1.1727    6.3735    6.4993 C   0  0  2  0  0  0  0  0  0  0  0  0
   -0.4674    7.7381    6.4756 C   0  0  2  0  0  0  0  0  0  0  0  0
    0.4107    7.8562    5.2996 N   0  0  0  0  0  0  0  0  0  0  0  0
    0.3041    7.9862    7.7805 C   0  0  1  0  0  0  0  0  0  0  0  0
    0.8585    9.2867    7.7370 O   0  0  0  0  0  0  0  0  0  0  0  0
   -0.6797    7.8680    8.9570 C   0  0  2  0  0  0  0  0  0  0  0  0
   -0.0091    8.0462   10.1911 O   0  0  0  0  0  0  0  0  0  0  0  0
   -1.4107    6.5098    8.9320 C   0  0  1  0  0  0  0  0  0  0  0  0
   -2.0001    6.2563    7.6547 O   0  0  0  0  0  0  0  0  0  0  0  0
   -0.5356    5.3387    9.4026 C   0  0  0  0  0  0  0  0  0  0  0  0
   -0.2779    5.4098   10.8500 N   0  0  0  0  0  0  0  0  0  0  0  0
  1  3  1  0  0  0  0
  1  2  1  1  0  0  0
  3  4  1  1  0  0  0
  5  6  1  6  0  0  0
  5  3  1  0  0  0  0
  7  9  1  0  0  0  0
  7  5  1  0  0  0  0
  7  8  1  1  0  0  0
  9 10  1  0  0  0  0
  9 11  1  6  0  0  0
 10  1  1  0  0  0  0
 11 12  1  0  0  0  0
 13 14  1  6  0  0  0
 13 21  1  0  0  0  0
 15 13  1  0  0  0  0
 16 15  1  0  0  0  0
 16 18  1  0  0  0  0
 16 17  1  6  0  0  0
 18  2  1  6  0  0  0
 18 19  1  0  0  0  0
 19 21  1  0  0  0  0
 19 20  1  6  0  0  0
 21 22  1  1  0  0  0
 23 20  1  6  0  0  0
 23 29  1  0  0  0  0
 23 24  1  0  0  0  0
 24 26  1  0  0  0  0
 24 25  1  6  0  0  0
 26 27  1  1  0  0  0
 28 26  1  0  0  0  0
 28 30  1  6  0  0  0
 29 28  1  0  0  0  0
 30 31  1  0  0  0  0
 32 27  1  1  0  0  0
 32 40  1  0  0  0  0
 32 33  1  0  0  0  0
 33 35  1  0  0  0  0
 33 34  1  6  0  0  0
 35 37  1  0  0  0  0
 35 36  1  6  0  0  0
 37 38  1  1  0  0  0
 39 37  1  0  0  0  0
 39 41  1  6  0  0  0
 40 39  1  0  0  0  0
 42 41  1  0  0  0  0
M  END
>  <CHROM.1>
-157.52410782,139.57921040,-175.92400527,56.46481259,-55.58468279,55.76582460
-60.91345205,119.24056209,55.60703097,121.13174842,81.01923905,-59.40522438
64.19425296,-79.16427490,-125.94466636,-163.87212199,162.69444953,64.23981202
52.12931794,64.34468216,70.47174260,-53.91376975,-1.25267916,2.57062718,4.42097396
3.12435297,1.42922298,2.28460405

>  <Name>
lig.pdb

>  <RI>
0

>  <Rbt.Current_Directory>
/home/itssahil/PROJECTS/Mol_Feturizer/New_Systems/rnas/2mxs

>  <Rbt.Executable>
rbdock ($Id: //depot/dev/client3/rdock/2013.1/src/exe/rbdock.cxx#4 $)

>  <Rbt.Library>
libRbt.so (2013.1, Build901 2013/11/27)

>  <Rbt.Parameter_File>
/export/apps/rDock/src/rDock_2013.1_src/data/scripts/dock_solv.prm

>  <Rbt.Receptor>
prm/pocket_docking_6.prm

>  <SCORE>
-31.4857

>  <SCORE.INTER>
-37.6749

>  <SCORE.INTER.CONST>
1

>  <SCORE.INTER.POLAR>
-5.83043

>  <SCORE.INTER.ROT>
9

>  <SCORE.INTER.SOLV>
16.7157

>  <SCORE.INTER.VDW>
-20.8537

>  <SCORE.INTER.norm>
-0.897021

>  <SCORE.INTRA>
6.18914

>  <SCORE.INTRA.DIHEDRAL>
3.17581

>  <SCORE.INTRA.DIHEDRAL.0>
30.1357

>  <SCORE.INTRA.POLAR>
-0.325114

>  <SCORE.INTRA.POLAR.0>
-0.631696

>  <SCORE.INTRA.REPUL>
0.0586215

>  <SCORE.INTRA.REPUL.0>
0

>  <SCORE.INTRA.SOLV>
1.26658

>  <SCORE.INTRA.SOLV.lig_0>
-55.904

>  <SCORE.INTRA.VDW>
4.78022

>  <SCORE.INTRA.VDW.0>
-8.21197

>  <SCORE.INTRA.norm>
0.14736

>  <SCORE.RESTR>
0

>  <SCORE.RESTR.CAVITY>
0

>  <SCORE.RESTR.norm>
0

>  <SCORE.SYSTEM>
0

>  <SCORE.SYSTEM.CONST>
0

>  <SCORE.SYSTEM.DIHEDRAL>
0

>  <SCORE.SYSTEM.SOLV>
0

>  <SCORE.SYSTEM.norm>
0

>  <SCORE.heavy>
42

>  <SCORE.norm>
-0.74966

>  <RMSD>
5.419

$$$$
lig.pdb
 OpenBabel11021811453D
libRbt.so/2013.1/901 2013/11/27
 42 45  0  0  0  0  0  0  0  0999 V2000
   -0.7877    1.9974    1.0491 C   0  0  2  0  0  0  0  0  0  0  0  0
    0.4833    2.6359    0.9137 O   0  0  0  0  0  0  0  0  0  0  0  0
   -0.7465    0.9241    2.1473 C   0  0  2  0  0  0  0  0  0  0  0  0
   -0.2721    1.4907    3.4233 N   0  0  0  0  0  0  0  0  0  0  0  0
    0.1183   -0.2684    1.7187 C   0  0  1  0  0  0  0  0  0  0  0  0
    0.0101   -1.2977    2.6833 O   0  0  0  0  0  0  0  0  0  0  0  0
   -0.3458   -0.7990    0.3539 C   0  0  2  0  0  0  0  0  0  0  0  0
    0.5580   -1.7904   -0.0953 O   0  0  0  0  0  0  0  0  0  0  0  0
   -0.4412    0.3321   -0.6900 C   0  0  2  0  0  0  0  0  0  0  0  0
   -1.2028    1.4314   -0.1916 O   0  0  0  0  0  0  0  0  0  0  0  0
   -1.1147   -0.2374   -1.9531 C   0  0  0  0  0  0  0  0  0  0  0  0
   -2.5000   -0.6051   -1.7166 O   0  0  0  0  0  0  0  0  0  0  0  0
    1.5218    6.4324   -0.8296 C   0  0  2  0  0  0  0  0  0  0  0  0
    1.3874    7.4834   -1.8580 N   0  0  0  0  0  0  0  0  0  0  0  0
    1.9602    5.1135   -1.4710 C   0  0  0  0  0  0  0  0  0  0  0  0
    1.9650    3.9907   -0.4404 C   0  0  2  0  0  0  0  0  0  0  0  0
    2.4800    2.7537   -1.0407 N   0  0  0  0  0  0  0  0  0  0  0  0
    0.5266    3.8175    0.1005 C   0  0  2  0  0  0  0  0  0  0  0  0
    0.1575    5.0474    0.8664 C   0  0  2  0  0  0  0  0  0  0  0  0
   -1.1444    4.8512    1.3871 O   0  0  0  0  0  0  0  0  0  0  0  0
    0.2042    6.2538   -0.0522 C   0  0  1  0  0  0  0  0  0  0  0  0
   -0.0554    7.4600    0.6410 O   0  0  0  0  0  0  0  0  0  0  0  0
   -1.2686    4.1261    2.6060 C   0  0  1  0  0  0  0  0  0  0  0  0
   -0.4733    4.8740    3.6781 C   0  0  2  0  0  0  0  0  0  0  0  0
    0.1242    3.9382    4.5557 O   0  0  0  0  0  0  0  0  0  0  0  0
   -1.5543    5.7244    4.3587 C   0  0  2  0  0  0  0  0  0  0  0  0
   -1.1839    6.1419    5.6729 O   0  0  0  0  0  0  0  0  0  0  0  0
   -2.7356    4.7480    4.3018 C   0  0  2  0  0  0  0  0  0  0  0  0
   -2.6267    4.1289    3.0277 O   0  0  0  0  0  0  0  0  0  0  0  0
   -4.1124    5.4127    4.4163 C   0  0  0  0  0  0  0  0  0  0  0  0
   -5.1528    4.4585    4.4096 O   0  0  0  0  0  0  0  0  0  0  0  0
   -2.1035    7.0384    6.2931 C   0  0  2  0  0  0  0  0  0  0  0  0
   -1.3823    8.1178    7.1146 C   0  0  2  0  0  0  0  0  0  0  0  0
   -0.4038    8.8429    6.2870 N   0  0  0  0  0  0  0  0  0  0  0  0
   -0.7244    7.5154    8.3651 C   0  0  1  0  0  0  0  0  0  0  0  0
   -0.1525    8.5634    9.1237 O   0  0  0  0  0  0  0  0  0  0  0  0
   -1.8082    6.7964    9.1863 C   0  0  2  0  0  0  0  0  0  0  0  0
   -1.2454    6.1845   10.3323 O   0  0  0  0  0  0  0  0  0  0  0  0
   -2.5507    5.7521    8.3274 C   0  0  1  0  0  0  0  0  0  0  0  0
   -3.0297    6.3230    7.1076 O   0  0  0  0  0  0  0  0  0  0  0  0
   -1.7341    4.4749    8.0812 C   0  0  0  0  0  0  0  0  0  0  0  0
   -1.5875    3.6860    9.3151 N   0  0  0  0  0  0  0  0  0  0  0  0
  1  3  1  0  0  0  0
  1  2  1  6  0  0  0
  3  4  1  1  0  0  0
  5  6  1  1  0  0  0
  5  3  1  0  0  0  0
  7  9  1  0  0  0  0
  7  5  1  0  0  0  0
  7  8  1  6  0  0  0
  9 10  1  0  0  0  0
  9 11  1  6  0  0  0
 10  1  1  0  0  0  0
 11 12  1  0  0  0  0
 13 14  1  6  0  0  0
 13 21  1  0  0  0  0
 15 13  1  0  0  0  0
 16 15  1  0  0  0  0
 16 18  1  0  0  0  0
 16 17  1  6  0  0  0
 18  2  1  1  0  0  0
 18 19  1  0  0  0  0
 19 21  1  0  0  0  0
 19 20  1  6  0  0  0
 21 22  1  1  0  0  0
 23 20  1  6  0  0  0
 23 29  1  0  0  0  0
 23 24  1  0  0  0  0
 24 26  1  0  0  0  0
 24 25  1  1  0  0  0
 26 27  1  1  0  0  0
 28 26  1  0  0  0  0
 28 30  1  6  0  0  0
 29 28  1  0  0  0  0
 30 31  1  0  0  0  0
 32 27  1  1  0  0  0
 32 40  1  0  0  0  0
 32 33  1  0  0  0  0
 33 35  1  0  0  0  0
 33 34  1  6  0  0  0
 35 37  1  0  0  0  0
 35 36  1  1  0  0  0
 37 38  1  1  0  0  0
 39 37  1  0  0  0  0
 39 41  1  6  0  0  0
 40 39  1  0  0  0  0
 42 41  1  0  0  0  0
M  END
>  <CHROM.1>
-154.98242490,-169.01436788,-38.39106032,-170.85581705,65.48126624,66.12070740
66.27961838,-45.67596724,-62.67435800,83.24789828,59.28887284,-179.23364184
160.44323327,174.34631180,-141.95012485,-177.70314160,-71.31980343,-64.85511147
-67.30834789,61.01741202,69.72263569,-45.92448746,-0.78098908,4.12391156
3.15697387,1.07160023,-1.20311175,-2.59777696

>  <Name>
lig.pdb

>  <RI>
0

>  <Rbt.Current_Directory>
/home/itssahil/PROJECTS/Mol_Feturizer/New_Systems/rnas/2mxs

>  <Rbt.Executable>
rbdock ($Id: //depot/dev/client3/rdock/2013.1/src/exe/rbdock.cxx#4 $)

>  <Rbt.Library>
libRbt.so (2013.1, Build901 2013/11/27)

>  <Rbt.Parameter_File>
/export/apps/rDock/src/rDock_2013.1_src/data/scripts/dock_solv.prm

>  <Rbt.Receptor>
prm/pocket_docking_4.prm

>  <SCORE>
-31.7277

>  <SCORE.INTER>
-28.9118

>  <SCORE.INTER.CONST>
1

>  <SCORE.INTER.POLAR>
-3.42408

>  <SCORE.INTER.ROT>
9

>  <SCORE.INTER.SOLV>
17.2373

>  <SCORE.INTER.VDW>
-23.2067

>  <SCORE.INTER.norm>
-0.688376

>  <SCORE.INTRA>
-2.86867

>  <SCORE.INTRA.DIHEDRAL>
-12.7136

>  <SCORE.INTRA.DIHEDRAL.0>
30.1357

>  <SCORE.INTRA.POLAR>
-0.270222

>  <SCORE.INTRA.POLAR.0>
-0.631696

>  <SCORE.INTRA.REPUL>
0

>  <SCORE.INTRA.REPUL.0>
0

>  <SCORE.INTRA.SOLV>
0.659959

>  <SCORE.INTRA.SOLV.lig_0>
-55.904

>  <SCORE.INTRA.VDW>
4.07689

>  <SCORE.INTRA.VDW.0>
-8.21197

>  <SCORE.INTRA.norm>
-0.0683017

>  <SCORE.RESTR>
0.0527664

>  <SCORE.RESTR.CAVITY>
0.0527664

>  <SCORE.RESTR.norm>
0.00125634

>  <SCORE.SYSTEM>
0

>  <SCORE.SYSTEM.CONST>
0

>  <SCORE.SYSTEM.DIHEDRAL>
0

>  <SCORE.SYSTEM.SOLV>
0

>  <SCORE.SYSTEM.norm>
0

>  <SCORE.heavy>
42

>  <SCORE.norm>
-0.755422

>  <RMSD>
5.427

$$$$
lig.pdb
 OpenBabel11021811453D
libRbt.so/2013.1/901 2013/11/27
 42 45  0  0  0  0  0  0  0  0999 V2000
    0.4853    5.5129   -0.6405 C   0  0  2  0  0  0  0  0  0  0  0  0
    1.7010    5.4398    0.1066 O   0  0  0  0  0  0  0  0  0  0  0  0
   -0.0250    6.9598   -0.7151 C   0  0  2  0  0  0  0  0  0  0  0  0
    1.0116    7.8594   -1.2541 N   0  0  0  0  0  0  0  0  0  0  0  0
   -0.5136    7.4420    0.6569 C   0  0  1  0  0  0  0  0  0  0  0  0
   -1.1145    8.7156    0.5205 O   0  0  0  0  0  0  0  0  0  0  0  0
   -1.5393    6.4545    1.2337 C   0  0  2  0  0  0  0  0  0  0  0  0
   -1.8574    6.8308    2.5599 O   0  0  0  0  0  0  0  0  0  0  0  0
   -1.0042    5.0083    1.2154 C   0  0  2  0  0  0  0  0  0  0  0  0
   -0.5062    4.6586   -0.0757 O   0  0  0  0  0  0  0  0  0  0  0  0
   -2.1599    4.0651    1.6003 C   0  0  0  0  0  0  0  0  0  0  0  0
   -2.2243    3.8340    3.0330 O   0  0  0  0  0  0  0  0  0  0  0  0
    3.7302    2.0626   -1.6277 C   0  0  2  0  0  0  0  0  0  0  0  0
    4.7086    0.9575   -1.5850 N   0  0  0  0  0  0  0  0  0  0  0  0
    4.4374    3.4069   -1.4380 C   0  0  0  0  0  0  0  0  0  0  0  0
    3.4216    4.5388   -1.3398 C   0  0  2  0  0  0  0  0  0  0  0  0
    4.1108    5.8327   -1.2568 N   0  0  0  0  0  0  0  0  0  0  0  0
    2.5207    4.2819   -0.1095 C   0  0  2  0  0  0  0  0  0  0  0  0
    1.7096    3.0521   -0.3651 C   0  0  2  0  0  0  0  0  0  0  0  0
    0.8633    2.8590    0.7534 O   0  0  0  0  0  0  0  0  0  0  0  0
    2.6324    1.8649   -0.5656 C   0  0  1  0  0  0  0  0  0  0  0  0
    1.9196    0.6874   -0.8950 O   0  0  0  0  0  0  0  0  0  0  0  0
    1.4752    2.5660    2.0050 C   0  0  1  0  0  0  0  0  0  0  0  0
    0.3794    2.0901    2.9611 C   0  0  2  0  0  0  0  0  0  0  0  0
    0.6644    2.5534    4.2676 O   0  0  0  0  0  0  0  0  0  0  0  0
    0.4717    0.5634    2.8360 C   0  0  2  0  0  0  0  0  0  0  0  0
   -0.0955   -0.1188    3.9549 O   0  0  0  0  0  0  0  0  0  0  0  0
    1.9890    0.4004    2.6837 C   0  0  2  0  0  0  0  0  0  0  0  0
    2.3831    1.4823    1.8515 O   0  0  0  0  0  0  0  0  0  0  0  0
    2.4215   -0.9158    2.0273 C   0  0  0  0  0  0  0  0  0  0  0  0
    1.7371   -1.1410    0.8132 O   0  0  0  0  0  0  0  0  0  0  0  0
   -1.5213   -0.1506    3.9712 C   0  0  2  0  0  0  0  0  0  0  0  0
   -2.0895    0.4032    5.2867 C   0  0  2  0  0  0  0  0  0  0  0  0
   -1.5817    1.7601    5.5494 N   0  0  0  0  0  0  0  0  0  0  0  0
   -1.7957   -0.5441    6.4597 C   0  0  1  0  0  0  0  0  0  0  0  0
   -2.4139   -0.0280    7.6226 O   0  0  0  0  0  0  0  0  0  0  0  0
   -2.3727   -1.9294    6.1224 C   0  0  2  0  0  0  0  0  0  0  0  0
   -2.0908   -2.8551    7.1559 O   0  0  0  0  0  0  0  0  0  0  0  0
   -1.8252   -2.4430    4.7748 C   0  0  1  0  0  0  0  0  0  0  0  0
   -1.9962   -1.4746    3.7373 O   0  0  0  0  0  0  0  0  0  0  0  0
   -0.3761   -2.9449    4.8579 C   0  0  0  0  0  0  0  0  0  0  0  0
    0.4846   -1.9833    5.5657 N   0  0  0  0  0  0  0  0  0  0  0  0
  1  3  1  0  0  0  0
  1  2  1  1  0  0  0
  3  4  1  1  0  0  0
  5  6  1  6  0  0  0
  5  3  1  0  0  0  0
  7  9  1  0  0  0  0
  7  5  1  0  0  0  0
  7  8  1  1  0  0  0
  9 10  1  0  0  0  0
  9 11  1  6  0  0  0
 10  1  1  0  0  0  0
 11 12  1  0  0  0  0
 13 14  1  1  0  0  0
 13 21  1  0  0  0  0
 15 13  1  0  0  0  0
 16 15  1  0  0  0  0
 16 18  1  0  0  0  0
 16 17  1  1  0  0  0
 18  2  1  6  0  0  0
 18 19  1  0  0  0  0
 19 21  1  0  0  0  0
 19 20  1  1  0  0  0
 21 22  1  6  0  0  0
 23 20  1  6  0  0  0
 23 29  1  0  0  0  0
 23 24  1  0  0  0  0
 24 26  1  0  0  0  0
 24 25  1  1  0  0  0
 26 27  1  1  0  0  0
 28 26  1  0  0  0  0
 28 30  1  6  0  0  0
 29 28  1  0  0  0  0
 30 31  1  0  0  0  0
 32 27  1  1  0  0  0
 32 40  1  0  0  0  0
 32 33  1  0  0  0  0
 33 35  1  0  0  0  0
 33 34  1  1  0  0  0
 35 37  1  0  0  0  0
 35 36  1  1  0  0  0
 37 38  1  1  0  0  0
 39 37  1  0  0  0  0
 39 41  1  1  0  0  0
 40 39  1  0  0  0  0
 42 41  1  0  0  0  0
M  END
>  <CHROM.1>
85.15178367,-159.59566582,23.57987006,56.47306236,176.15842005,59.30619645
-90.31644348,-168.97406433,80.25441391,-65.15237798,-167.24107502,-50.51477654
-83.52468061,76.16936200,-125.56538521,51.30727341,73.42976752,-36.20882489
64.98134193,-55.67013459,-47.78743020,62.72941954,0.38226381,2.33179813,2.03533386
1.17911306,0.72162139,-0.45555514

>  <Name>
lig.pdb

>  <RI>
0

>  <Rbt.Current_Directory>
/home/itssahil/PROJECTS/Mol_Feturizer/New_Systems/rnas/2mxs

>  <Rbt.Executable>
rbdock ($Id: //depot/dev/client3/rdock/2013.1/src/exe/rbdock.cxx#4 $)

>  <Rbt.Library>
libRbt.so (2013.1, Build901 2013/11/27)

>  <Rbt.Parameter_File>
/export/apps/rDock/src/rDock_2013.1_src/data/scripts/dock_solv.prm

>  <Rbt.Receptor>
prm/blind_docking_80.prm

>  <SCORE>
29.1197

>  <SCORE.INTER>
8.93365

>  <SCORE.INTER.CONST>
1

>  <SCORE.INTER.POLAR>
-2.88099

>  <SCORE.INTER.ROT>
9

>  <SCORE.INTER.SOLV>
27.9206

>  <SCORE.INTER.VDW>
-3.34778

>  <SCORE.INTER.norm>
0.212706

>  <SCORE.INTRA>
5.47062

>  <SCORE.INTRA.DIHEDRAL>
-3.55297

>  <SCORE.INTRA.DIHEDRAL.0>
30.1357

>  <SCORE.INTRA.POLAR>
-1.85603

>  <SCORE.INTRA.POLAR.0>
-0.631696

>  <SCORE.INTRA.REPUL>
0.0600067

>  <SCORE.INTRA.REPUL.0>
0

>  <SCORE.INTRA.SOLV>
5.41861

>  <SCORE.INTRA.SOLV.lig_0>
-55.904

>  <SCORE.INTRA.VDW>
10.5483

>  <SCORE.INTRA.VDW.0>
-8.21197

>  <SCORE.INTRA.norm>
0.130253

>  <SCORE.RESTR>
14.7155

>  <SCORE.RESTR.CAVITY>
14.7155

>  <SCORE.RESTR.norm>
0.350369

>  <SCORE.SYSTEM>
0

>  <SCORE.SYSTEM.CONST>
0

>  <SCORE.SYSTEM.DIHEDRAL>
0

>  <SCORE.SYSTEM.SOLV>
0

>  <SCORE.SYSTEM.norm>
0

>  <SCORE.heavy>
42

>  <SCORE.norm>
0.693327

>  <RMSD>
5.429

$$$$
lig.pdb
 OpenBabel11021811453D
libRbt.so/2013.1/901 2013/11/27
 42 45  0  0  0  0  0  0  0  0999 V2000
    0.0107    1.7928    1.6988 C   0  0  2  0  0  0  0  0  0  0  0  0
    0.9942    2.8262    1.6196 O   0  0  0  0  0  0  0  0  0  0  0  0
    0.6268    0.4909    2.2329 C   0  0  2  0  0  0  0  0  0  0  0  0
    1.3002    0.7156    3.5254 N   0  0  0  0  0  0  0  0  0  0  0  0
    1.5907   -0.1219    1.2088 C   0  0  1  0  0  0  0  0  0  0  0  0
    2.0191   -1.3899    1.6673 O   0  0  0  0  0  0  0  0  0  0  0  0
    0.8924   -0.2814   -0.1501 C   0  0  2  0  0  0  0  0  0  0  0  0
    1.8379   -0.6974   -1.1168 O   0  0  0  0  0  0  0  0  0  0  0  0
    0.2279    1.0347   -0.6024 C   0  0  2  0  0  0  0  0  0  0  0  0
   -0.5977    1.5766    0.4280 O   0  0  0  0  0  0  0  0  0  0  0  0
   -0.6254    0.7364   -1.8498 C   0  0  0  0  0  0  0  0  0  0  0  0
    0.1721    0.2184   -2.9480 O   0  0  0  0  0  0  0  0  0  0  0  0
    0.8030    6.7869   -0.0560 C   0  0  2  0  0  0  0  0  0  0  0  0
    0.3153    7.7705   -1.0434 N   0  0  0  0  0  0  0  0  0  0  0  0
    1.5627    5.6591   -0.7590 C   0  0  0  0  0  0  0  0  0  0  0  0
    1.9469    4.5696    0.2350 C   0  0  2  0  0  0  0  0  0  0  0  0
    2.7588    3.5416   -0.4284 N   0  0  0  0  0  0  0  0  0  0  0  0
    0.6514    3.9826    0.8421 C   0  0  2  0  0  0  0  0  0  0  0  0
   -0.0094    5.0431    1.6632 C   0  0  2  0  0  0  0  0  0  0  0  0
   -1.1689    4.4736    2.2425 O   0  0  0  0  0  0  0  0  0  0  0  0
   -0.3619    6.2258    0.7810 C   0  0  1  0  0  0  0  0  0  0  0  0
   -0.9154    7.2962    1.5232 O   0  0  0  0  0  0  0  0  0  0  0  0
   -1.9296    5.2815    3.1345 C   0  0  1  0  0  0  0  0  0  0  0  0
   -3.0617    4.4189    3.6965 C   0  0  2  0  0  0  0  0  0  0  0  0
   -4.2187    5.2164    3.8642 O   0  0  0  0  0  0  0  0  0  0  0  0
   -2.4755    3.9305    5.0280 C   0  0  2  0  0  0  0  0  0  0  0  0
   -3.4787    3.5139    5.9546 O   0  0  0  0  0  0  0  0  0  0  0  0
   -1.6903    5.1796    5.4468 C   0  0  2  0  0  0  0  0  0  0  0  0
   -1.1210    5.6656    4.2394 O   0  0  0  0  0  0  0  0  0  0  0  0
   -0.5666    4.9124    6.4550 C   0  0  0  0  0  0  0  0  0  0  0  0
    0.2480    3.8322    6.0516 O   0  0  0  0  0  0  0  0  0  0  0  0
   -2.9739    2.9683    7.1718 C   0  0  2  0  0  0  0  0  0  0  0  0
   -2.5131    1.5132    6.9971 C   0  0  2  0  0  0  0  0  0  0  0  0
   -1.5259    1.4007    5.9104 N   0  0  0  0  0  0  0  0  0  0  0  0
   -3.7090    0.5765    6.7696 C   0  0  1  0  0  0  0  0  0  0  0  0
   -3.2340   -0.7541    6.7024 O   0  0  0  0  0  0  0  0  0  0  0  0
   -4.6815    0.7336    7.9510 C   0  0  2  0  0  0  0  0  0  0  0  0
   -5.8264   -0.0792    7.7693 O   0  0  0  0  0  0  0  0  0  0  0  0
   -5.0919    2.2089    8.1366 C   0  0  1  0  0  0  0  0  0  0  0  0
   -3.9493    3.0650    8.2074 O   0  0  0  0  0  0  0  0  0  0  0  0
   -6.1083    2.6941    7.0924 C   0  0  0  0  0  0  0  0  0  0  0  0
   -5.9720    4.1381    6.8421 N   0  0  0  0  0  0  0  0  0  0  0  0
  1  3  1  0  0  0  0
  1  2  1  6  0  0  0
  3  4  1  1  0  0  0
  5  6  1  1  0  0  0
  5  3  1  0  0  0  0
  7  9  1  0  0  0  0
  7  5  1  0  0  0  0
  7  8  1  6  0  0  0
  9 10  1  0  0  0  0
  9 11  1  6  0  0  0
 10  1  1  0  0  0  0
 11 12  1  0  0  0  0
 13 14  1  6  0  0  0
 13 21  1  0  0  0  0
 15 13  1  0  0  0  0
 16 15  1  0  0  0  0
 16 18  1  0  0  0  0
 16 17  1  6  0  0  0
 18  2  1  1  0  0  0
 18 19  1  0  0  0  0
 19 21  1  0  0  0  0
 19 20  1  6  0  0  0
 21 22  1  1  0  0  0
 23 20  1  6  0  0  0
 23 29  1  0  0  0  0
 23 24  1  0  0  0  0
 24 26  1  0  0  0  0
 24 25  1  1  0  0  0
 26 27  1  1  0  0  0
 28 26  1  0  0  0  0
 28 30  1  1  0  0  0
 29 28  1  0  0  0  0
 30 31  1  0  0  0  0
 32 27  1  6  0  0  0
 32 40  1  0  0  0  0
 32 33  1  0  0  0  0
 33 35  1  0  0  0  0
 33 34  1  6  0  0  0
 35 37  1  0  0  0  0
 35 36  1  1  0  0  0
 37 38  1  6  0  0  0
 39 37  1  0  0  0  0
 39 41  1  6  0  0  0
 40 39  1  0  0  0  0
 42 41  1  0  0  0  0
M  END
>  <CHROM.1>
-149.51085321,165.18056383,-76.52840124,-68.19912528,57.87248649,58.02770104
-60.28296300,-92.41158282,-157.60530424,176.62565679,-176.09706760,85.34336469
-47.80211977,175.99291339,-78.86226188,48.78755584,-171.55200896,169.94783829
69.10796982,73.01152126,-151.14028285,78.34565752,-1.17754797,2.89732587
3.18974817,-0.17626130,-0.95599156,2.98465329

>  <Name>
lig.pdb

>  <RI>
4.11275e+07

>  <Rbt.Current_Directory>
/home/itssahil/PROJECTS/Mol_Feturizer/New_Systems/rnas/2mxs

>  <Rbt.Executable>
rbdock ($Id: //depot/dev/client3/rdock/2013.1/src/exe/rbdock.cxx#4 $)

>  <Rbt.Library>
libRbt.so (2013.1, Build901 2013/11/27)

>  <Rbt.Parameter_File>
/export/apps/rDock/src/rDock_2013.1_src/data/scripts/dock_solv.prm

>  <Rbt.Receptor>
prm/pocket_docking_8.prm

>  <SCORE>
-43.4738

>  <SCORE.INTER>
-37.6235

>  <SCORE.INTER.CONST>
1

>  <SCORE.INTER.POLAR>
-5.43769

>  <SCORE.INTER.ROT>
9

>  <SCORE.INTER.SOLV>
18.7788

>  <SCORE.INTER.VDW>
-22.8163

>  <SCORE.INTER.norm>
-0.895798

>  <SCORE.INTRA>
-5.85032

>  <SCORE.INTRA.DIHEDRAL>
-10.0276

>  <SCORE.INTRA.DIHEDRAL.0>
30.1357

>  <SCORE.INTRA.POLAR>
-1.40208

>  <SCORE.INTRA.POLAR.0>
-0.631696

>  <SCORE.INTRA.REPUL>
0

>  <SCORE.INTRA.REPUL.0>
0

>  <SCORE.INTRA.SOLV>
1.61683

>  <SCORE.INTRA.SOLV.lig_0>
-55.904

>  <SCORE.INTRA.VDW>
3.12212

>  <SCORE.INTRA.VDW.0>
-8.21197

>  <SCORE.INTRA.norm>
-0.139293

>  <SCORE.RESTR>
0

>  <SCORE.RESTR.CAVITY>
0

>  <SCORE.RESTR.norm>
0

>  <SCORE.SYSTEM>
0

>  <SCORE.SYSTEM.CONST>
0

>  <SCORE.SYSTEM.DIHEDRAL>
0

>  <SCORE.SYSTEM.SOLV>
0

>  <SCORE.SYSTEM.norm>
0

>  <SCORE.heavy>
42

>  <SCORE.norm>
-1.03509

>  <RMSD>
5.438

$$$$
lig.pdb
 OpenBabel11021811453D
libRbt.so/2013.1/901 2013/11/27
 42 45  0  0  0  0  0  0  0  0999 V2000
   -0.1886    1.4336   -0.4100 C   0  0  2  0  0  0  0  0  0  0  0  0
    0.6576    0.3349   -0.0662 O   0  0  0  0  0  0  0  0  0  0  0  0
   -0.4603    1.4629   -1.9216 C   0  0  2  0  0  0  0  0  0  0  0  0
   -1.0080    0.1749   -2.3858 N   0  0  0  0  0  0  0  0  0  0  0  0
    0.8075    1.8353   -2.7010 C   0  0  1  0  0  0  0  0  0  0  0  0
    0.4861    2.0019   -4.0687 O   0  0  0  0  0  0  0  0  0  0  0  0
    1.4032    3.1419   -2.1553 C   0  0  2  0  0  0  0  0  0  0  0  0
    2.6508    3.3835   -2.7770 O   0  0  0  0  0  0  0  0  0  0  0  0
    1.5847    3.0848   -0.6250 C   0  0  2  0  0  0  0  0  0  0  0  0
    0.3835    2.6657    0.0219 O   0  0  0  0  0  0  0  0  0  0  0  0
    1.9748    4.4927   -0.1362 C   0  0  0  0  0  0  0  0  0  0  0  0
    2.8257    5.1865   -1.0874 O   0  0  0  0  0  0  0  0  0  0  0  0
    2.8079   -0.5506    3.5564 C   0  0  2  0  0  0  0  0  0  0  0  0
    3.5554   -0.1558    4.7670 N   0  0  0  0  0  0  0  0  0  0  0  0
    3.5303   -0.0566    2.3005 C   0  0  0  0  0  0  0  0  0  0  0  0
    2.6958   -0.3363    1.0562 C   0  0  2  0  0  0  0  0  0  0  0  0
    3.4383    0.0511   -0.1498 N   0  0  0  0  0  0  0  0  0  0  0  0
    1.3573    0.4278    1.1833 C   0  0  2  0  0  0  0  0  0  0  0  0
    0.5797   -0.1644    2.3147 C   0  0  2  0  0  0  0  0  0  0  0  0
   -0.6573    0.5205    2.3869 O   0  0  0  0  0  0  0  0  0  0  0  0
    1.3638   -0.0172    3.6050 C   0  0  1  0  0  0  0  0  0  0  0  0
    0.7109   -0.6366    4.6973 O   0  0  0  0  0  0  0  0  0  0  0  0
   -0.8924    1.3468    3.5222 C   0  0  1  0  0  0  0  0  0  0  0  0
   -0.3848    2.7518    3.1909 C   0  0  2  0  0  0  0  0  0  0  0  0
    0.1690    3.3360    4.3549 O   0  0  0  0  0  0  0  0  0  0  0  0
   -1.6605    3.4609    2.7166 C   0  0  2  0  0  0  0  0  0  0  0  0
   -1.5683    4.8831    2.8044 O   0  0  0  0  0  0  0  0  0  0  0  0
   -2.6863    2.8222    3.6609 C   0  0  2  0  0  0  0  0  0  0  0  0
   -2.2915    1.4604    3.7495 O   0  0  0  0  0  0  0  0  0  0  0  0
   -4.1342    2.8894    3.1614 C   0  0  0  0  0  0  0  0  0  0  0  0
   -4.6056    4.2192    3.1102 O   0  0  0  0  0  0  0  0  0  0  0  0
   -2.4303    5.5906    1.9154 C   0  0  2  0  0  0  0  0  0  0  0  0
   -1.6953    6.0366    0.6422 C   0  0  2  0  0  0  0  0  0  0  0  0
   -1.0605    4.8895   -0.0281 N   0  0  0  0  0  0  0  0  0  0  0  0
   -0.6754    7.1433    0.9497 C   0  0  1  0  0  0  0  0  0  0  0  0
   -0.0944    7.5724   -0.2665 O   0  0  0  0  0  0  0  0  0  0  0  0
   -1.4137    8.3108    1.6260 C   0  0  2  0  0  0  0  0  0  0  0  0
   -0.5089    9.3438    1.9707 O   0  0  0  0  0  0  0  0  0  0  0  0
   -2.1831    7.8298    2.8735 C   0  0  1  0  0  0  0  0  0  0  0  0
   -3.0195    6.7102    2.5730 O   0  0  0  0  0  0  0  0  0  0  0  0
   -1.2749    7.5594    4.0821 C   0  0  0  0  0  0  0  0  0  0  0  0
   -0.1697    6.6533    3.7302 N   0  0  0  0  0  0  0  0  0  0  0  0
  1  3  1  0  0  0  0
  1  2  1  6  0  0  0
  3  4  1  6  0  0  0
  5  6  1  6  0  0  0
  5  3  1  0  0  0  0
  7  9  1  0  0  0  0
  7  5  1  0  0  0  0
  7  8  1  6  0  0  0
  9 10  1  0  0  0  0
  9 11  1  1  0  0  0
 10  1  1  0  0  0  0
 11 12  1  0  0  0  0
 13 14  1  1  0  0  0
 13 21  1  0  0  0  0
 15 13  1  0  0  0  0
 16 15  1  0  0  0  0
 16 18  1  0  0  0  0
 16 17  1  6  0  0  0
 18  2  1  6  0  0  0
 18 19  1  0  0  0  0
 19 21  1  0  0  0  0
 19 20  1  1  0  0  0
 21 22  1  1  0  0  0
 23 20  1  6  0  0  0
 23 29  1  0  0  0  0
 23 24  1  0  0  0  0
 24 26  1  0  0  0  0
 24 25  1  1  0  0  0
 26 27  1  1  0  0  0
 28 26  1  0  0  0  0
 28 30  1  6  0  0  0
 29 28  1  0  0  0  0
 30 31  1  0  0  0  0
 32 27  1  1  0  0  0
 32 40  1  0  0  0  0
 32 33  1  0  0  0  0
 33 35  1  0  0  0  0
 33 34  1  1  0  0  0
 35 37  1  0  0  0  0
 35 36  1  6  0  0  0
 37 38  1  1  0  0  0
 39 37  1  0  0  0  0
 39 41  1  1  0  0  0
 40 39  1  0  0  0  0
 42 41  1  0  0  0  0
M  END
>  <CHROM.1>
-149.49057094,159.45156117,-141.74675730,-177.90463054,-57.41556584,-55.73800725
-35.60017797,159.70093110,33.89622711,-112.21489467,90.07365421,-167.65777352
57.16578853,155.54765796,-97.78009206,-66.08127652,-168.18580087,72.60896356
-65.78585361,-174.40566208,-52.51580186,-65.47653480,-0.02872005,3.18632267
1.35577671,-0.46770919,1.02406140,-0.81932144

>  <Name>
lig.pdb

>  <RI>
0

>  <Rbt.Current_Directory>
/home/itssahil/PROJECTS/Mol_Feturizer/New_Systems/rnas/2mxs

>  <Rbt.Executable>
rbdock ($Id: //depot/dev/client3/rdock/2013.1/src/exe/rbdock.cxx#4 $)

>  <Rbt.Library>
libRbt.so (2013.1, Build901 2013/11/27)

>  <Rbt.Parameter_File>
/export/apps/rDock/src/rDock_2013.1_src/data/scripts/dock_solv.prm

>  <Rbt.Receptor>
prm/blind_docking_20.prm

>  <SCORE>
-10.521

>  <SCORE.INTER>
-39.0387

>  <SCORE.INTER.CONST>
1

>  <SCORE.INTER.POLAR>
-6.11517

>  <SCORE.INTER.ROT>
9

>  <SCORE.INTER.SOLV>
33.7013

>  <SCORE.INTER.VDW>
-26.4757

>  <SCORE.INTER.norm>
-0.929492

>  <SCORE.INTRA>
11.969

>  <SCORE.INTRA.DIHEDRAL>
3.61605

>  <SCORE.INTRA.DIHEDRAL.0>
30.1357

>  <SCORE.INTRA.POLAR>
-0.426236

>  <SCORE.INTRA.POLAR.0>
-0.631696

>  <SCORE.INTRA.REPUL>
0.126194

>  <SCORE.INTRA.REPUL.0>
0

>  <SCORE.INTRA.SOLV>
3.71801

>  <SCORE.INTRA.SOLV.lig_0>
-55.904

>  <SCORE.INTRA.VDW>
9.12018

>  <SCORE.INTRA.VDW.0>
-8.21197

>  <SCORE.INTRA.norm>
0.284976

>  <SCORE.RESTR>
16.5487

>  <SCORE.RESTR.CAVITY>
16.5487

>  <SCORE.RESTR.norm>
0.394017

>  <SCORE.SYSTEM>
0

>  <SCORE.SYSTEM.CONST>
0

>  <SCORE.SYSTEM.DIHEDRAL>
0

>  <SCORE.SYSTEM.SOLV>
0

>  <SCORE.SYSTEM.norm>
0

>  <SCORE.heavy>
42

>  <SCORE.norm>
-0.2505

>  <RMSD>
5.439

$$$$
lig.pdb
 OpenBabel11021811453D
libRbt.so/2013.1/901 2013/11/27
 42 45  0  0  0  0  0  0  0  0999 V2000
   -0.1983    2.6545    0.7917 C   0  0  2  0  0  0  0  0  0  0  0  0
    0.8577    3.6097    0.9100 O   0  0  0  0  0  0  0  0  0  0  0  0
    0.0444    1.4532    1.7177 C   0  0  2  0  0  0  0  0  0  0  0  0
    0.2420    1.8912    3.1118 N   0  0  0  0  0  0  0  0  0  0  0  0
    1.2327    0.6143    1.2302 C   0  0  1  0  0  0  0  0  0  0  0  0
    1.3311   -0.5601    2.0130 O   0  0  0  0  0  0  0  0  0  0  0  0
    1.0424    0.2285   -0.2445 C   0  0  2  0  0  0  0  0  0  0  0  0
    2.2151   -0.4056   -0.7179 O   0  0  0  0  0  0  0  0  0  0  0  0
    0.7276    1.4616   -1.1155 C   0  0  2  0  0  0  0  0  0  0  0  0
   -0.3421    2.2261   -0.5602 O   0  0  0  0  0  0  0  0  0  0  0  0
    0.3388    0.9678   -2.5220 C   0  0  0  0  0  0  0  0  0  0  0  0
    0.6070    1.9631   -3.5455 O   0  0  0  0  0  0  0  0  0  0  0  0
    1.6075    7.3238   -1.1332 C   0  0  2  0  0  0  0  0  0  0  0  0
    1.4591    8.2426   -2.2795 N   0  0  0  0  0  0  0  0  0  0  0  0
    2.2726    6.0193   -1.5796 C   0  0  0  0  0  0  0  0  0  0  0  0
    2.3017    5.0126   -0.4357 C   0  0  2  0  0  0  0  0  0  0  0  0
    3.0278    3.8032   -0.8431 N   0  0  0  0  0  0  0  0  0  0  0  0
    0.8447    4.7020   -0.0207 C   0  0  2  0  0  0  0  0  0  0  0  0
    0.2452    5.9400    0.5654 C   0  0  2  0  0  0  0  0  0  0  0  0
   -1.0721    5.6229    0.9762 O   0  0  0  0  0  0  0  0  0  0  0  0
    0.2443    7.0468   -0.4720 C   0  0  1  0  0  0  0  0  0  0  0  0
   -0.2364    8.2691    0.0554 O   0  0  0  0  0  0  0  0  0  0  0  0
   -1.2281    4.6986    2.0477 C   0  0  1  0  0  0  0  0  0  0  0  0
   -0.6653    5.3500    3.3127 C   0  0  2  0  0  0  0  0  0  0  0  0
   -0.0445    4.3608    4.1121 O   0  0  0  0  0  0  0  0  0  0  0  0
   -1.9210    5.9432    3.9657 C   0  0  2  0  0  0  0  0  0  0  0  0
   -1.7577    6.1810    5.3642 O   0  0  0  0  0  0  0  0  0  0  0  0
   -2.9433    4.8561    3.6121 C   0  0  2  0  0  0  0  0  0  0  0  0
   -2.6115    4.4711    2.2855 O   0  0  0  0  0  0  0  0  0  0  0  0
   -4.4026    5.3250    3.6443 C   0  0  0  0  0  0  0  0  0  0  0  0
   -5.2728    4.2894    4.0487 O   0  0  0  0  0  0  0  0  0  0  0  0
   -1.9977    7.5269    5.7702 C   0  0  2  0  0  0  0  0  0  0  0  0
   -0.7456    8.4028    5.6116 C   0  0  2  0  0  0  0  0  0  0  0  0
   -0.2331    8.3434    4.2325 N   0  0  0  0  0  0  0  0  0  0  0  0
    0.3360    8.0136    6.6306 C   0  0  1  0  0  0  0  0  0  0  0  0
    1.4255    8.9055    6.4955 O   0  0  0  0  0  0  0  0  0  0  0  0
   -0.2651    8.1204    8.0424 C   0  0  2  0  0  0  0  0  0  0  0  0
    0.6806    7.7297    9.0208 O   0  0  0  0  0  0  0  0  0  0  0  0
   -1.5474    7.2713    8.1629 C   0  0  1  0  0  0  0  0  0  0  0  0
   -2.4722    7.5684    7.1142 O   0  0  0  0  0  0  0  0  0  0  0  0
   -1.2714    5.7646    8.2747 C   0  0  0  0  0  0  0  0  0  0  0  0
   -2.3217    4.9764    7.6099 N   0  0  0  0  0  0  0  0  0  0  0  0
  1  3  1  0  0  0  0
  1  2  1  6  0  0  0
  3  4  1  1  0  0  0
  5  6  1  1  0  0  0
  5  3  1  0  0  0  0
  7  9  1  0  0  0  0
  7  5  1  0  0  0  0
  7  8  1  6  0  0  0
  9 10  1  0  0  0  0
  9 11  1  6  0  0  0
 10  1  1  0  0  0  0
 11 12  1  0  0  0  0
 13 14  1  6  0  0  0
 13 21  1  0  0  0  0
 15 13  1  0  0  0  0
 16 15  1  0  0  0  0
 16 18  1  0  0  0  0
 16 17  1  6  0  0  0
 18  2  1  1  0  0  0
 18 19  1  0  0  0  0
 19 21  1  0  0  0  0
 19 20  1  6  0  0  0
 21 22  1  1  0  0  0
 23 20  1  6  0  0  0
 23 29  1  0  0  0  0
 23 24  1  0  0  0  0
 24 26  1  0  0  0  0
 24 25  1  1  0  0  0
 26 27  1  1  0  0  0
 28 26  1  0  0  0  0
 28 30  1  6  0  0  0
 29 28  1  0  0  0  0
 30 31  1  0  0  0  0
 32 27  1  1  0  0  0
 32 40  1  0  0  0  0
 32 33  1  0  0  0  0
 33 35  1  0  0  0  0
 33 34  1  6  0  0  0
 35 37  1  0  0  0  0
 35 36  1  1  0  0  0
 37 38  1  1  0  0  0
 39 37  1  0  0  0  0
 39 41  1  6  0  0  0
 40 39  1  0  0  0  0
 42 41  1  0  0  0  0
M  END
>  <CHROM.1>
-141.76774541,172.43425754,103.73934734,-171.83828197,178.61628956,-54.19733250
-153.95673712,105.73983096,-47.29479284,66.31325879,66.20716351,-65.45273111
132.99066319,123.47258198,-85.39307856,-147.31800702,-151.99369345,53.60813576
-165.82677699,-178.66052681,-145.92700078,-53.85207199,-0.23919203,4.89519990
2.51129748,0.84853422,-1.18466185,-2.80247550

>  <Name>
lig.pdb

>  <RI>
3.17932e+07

>  <Rbt.Current_Directory>
/home/itssahil/PROJECTS/Mol_Feturizer/New_Systems/rnas/2mxs

>  <Rbt.Executable>
rbdock ($Id: //depot/dev/client3/rdock/2013.1/src/exe/rbdock.cxx#4 $)

>  <Rbt.Library>
libRbt.so (2013.1, Build901 2013/11/27)

>  <Rbt.Parameter_File>
/export/apps/rDock/src/rDock_2013.1_src/data/scripts/dock_solv.prm

>  <Rbt.Receptor>
prm/blind_docking_100.prm

>  <SCORE>
11.8673

>  <SCORE.INTER>
-28.7675

>  <SCORE.INTER.CONST>
1

>  <SCORE.INTER.POLAR>
-4.32228

>  <SCORE.INTER.ROT>
9

>  <SCORE.INTER.SOLV>
27.8644

>  <SCORE.INTER.VDW>
-23.6589

>  <SCORE.INTER.norm>
-0.68494

>  <SCORE.INTRA>
9.38972

>  <SCORE.INTRA.DIHEDRAL>
11.719

>  <SCORE.INTRA.DIHEDRAL.0>
30.1357

>  <SCORE.INTRA.POLAR>
-1.16002

>  <SCORE.INTRA.POLAR.0>
-0.631696

>  <SCORE.INTRA.REPUL>
0

>  <SCORE.INTRA.REPUL.0>
0

>  <SCORE.INTRA.SOLV>
0.50066

>  <SCORE.INTRA.SOLV.lig_0>
-55.904

>  <SCORE.INTRA.VDW>
7.22398

>  <SCORE.INTRA.VDW.0>
-8.21197

>  <SCORE.INTRA.norm>
0.223565

>  <SCORE.RESTR>
31.2451

>  <SCORE.RESTR.CAVITY>
31.2451

>  <SCORE.RESTR.norm>
0.74393

>  <SCORE.SYSTEM>
0

>  <SCORE.SYSTEM.CONST>
0

>  <SCORE.SYSTEM.DIHEDRAL>
0

>  <SCORE.SYSTEM.SOLV>
0

>  <SCORE.SYSTEM.norm>
0

>  <SCORE.heavy>
42

>  <SCORE.norm>
0.282555

>  <RMSD>
5.445

$$$$
lig.pdb
 OpenBabel11021811453D
libRbt.so/2013.1/901 2013/11/27
 42 45  0  0  0  0  0  0  0  0999 V2000
   -0.3240    4.7564    1.5140 C   0  0  2  0  0  0  0  0  0  0  0  0
    0.1351    5.3285    0.2879 O   0  0  0  0  0  0  0  0  0  0  0  0
   -1.8135    4.3917    1.4237 C   0  0  2  0  0  0  0  0  0  0  0  0
   -2.0736    3.5113    0.2697 N   0  0  0  0  0  0  0  0  0  0  0  0
   -2.6856    5.6523    1.3625 C   0  0  1  0  0  0  0  0  0  0  0  0
   -4.0496    5.2837    1.4344 O   0  0  0  0  0  0  0  0  0  0  0  0
   -2.3493    6.5894    2.5323 C   0  0  2  0  0  0  0  0  0  0  0  0
   -3.0464    7.8097    2.3703 O   0  0  0  0  0  0  0  0  0  0  0  0
   -0.8339    6.8616    2.6212 C   0  0  2  0  0  0  0  0  0  0  0  0
   -0.0891    5.6442    2.6042 O   0  0  0  0  0  0  0  0  0  0  0  0
   -0.5599    7.6209    3.9333 C   0  0  0  0  0  0  0  0  0  0  0  0
   -1.4562    8.7504    4.1099 O   0  0  0  0  0  0  0  0  0  0  0  0
    3.4290    4.1337   -2.2129 C   0  0  2  0  0  0  0  0  0  0  0  0
    4.8316    3.7248   -2.4267 N   0  0  0  0  0  0  0  0  0  0  0  0
    3.3715    5.5268   -1.5812 C   0  0  0  0  0  0  0  0  0  0  0  0
    1.9359    5.8973   -1.2280 C   0  0  2  0  0  0  0  0  0  0  0  0
    1.8787    7.2716   -0.7143 N   0  0  0  0  0  0  0  0  0  0  0  0
    1.4050    4.8714   -0.1998 C   0  0  2  0  0  0  0  0  0  0  0  0
    1.3096    3.5373   -0.8681 C   0  0  2  0  0  0  0  0  0  0  0  0
    0.7831    2.6236    0.0765 O   0  0  0  0  0  0  0  0  0  0  0  0
    2.6842    3.1046   -1.3420 C   0  0  1  0  0  0  0  0  0  0  0  0
    2.6398    1.8844   -2.0577 O   0  0  0  0  0  0  0  0  0  0  0  0
    1.3980    2.5682    1.3594 C   0  0  1  0  0  0  0  0  0  0  0  0
    0.3209    2.1897    2.3782 C   0  0  2  0  0  0  0  0  0  0  0  0
    0.5672    2.8702    3.5944 O   0  0  0  0  0  0  0  0  0  0  0  0
    0.4985    0.6702    2.4981 C   0  0  2  0  0  0  0  0  0  0  0  0
   -0.0410    0.1440    3.7108 O   0  0  0  0  0  0  0  0  0  0  0  0
    2.0239    0.5703    2.3749 C   0  0  2  0  0  0  0  0  0  0  0  0
    2.3658    1.5265    1.3812 O   0  0  0  0  0  0  0  0  0  0  0  0
    2.5348   -0.8073    1.9369 C   0  0  0  0  0  0  0  0  0  0  0  0
    2.0365   -1.1668    0.6659 O   0  0  0  0  0  0  0  0  0  0  0  0
    0.8566   -0.6793    4.4528 C   0  0  2  0  0  0  0  0  0  0  0  0
    0.1477   -1.9067    5.0454 C   0  0  2  0  0  0  0  0  0  0  0  0
   -0.5393   -2.6760    3.9945 N   0  0  0  0  0  0  0  0  0  0  0  0
   -0.8191   -1.5003    6.1678 C   0  0  1  0  0  0  0  0  0  0  0  0
   -1.3751   -2.6726    6.7312 O   0  0  0  0  0  0  0  0  0  0  0  0
   -0.0277   -0.7233    7.2336 C   0  0  2  0  0  0  0  0  0  0  0  0
   -0.8831   -0.2866    8.2738 O   0  0  0  0  0  0  0  0  0  0  0  0
    0.7139    0.4753    6.6068 C   0  0  1  0  0  0  0  0  0  0  0  0
    1.4967    0.0749    5.4797 O   0  0  0  0  0  0  0  0  0  0  0  0
   -0.2099    1.6561    6.2734 C   0  0  0  0  0  0  0  0  0  0  0  0
    0.5251    2.9312    6.2831 N   0  0  0  0  0  0  0  0  0  0  0  0
  1  3  1  0  0  0  0
  1  2  1  6  0  0  0
  3  4  1  6  0  0  0
  5  6  1  1  0  0  0
  5  3  1  0  0  0  0
  7  9  1  0  0  0  0
  7  5  1  0  0  0  0
  7  8  1  6  0  0  0
  9 10  1  0  0  0  0
  9 11  1  1  0  0  0
 10  1  1  0  0  0  0
 11 12  1  0  0  0  0
 13 14  1  1  0  0  0
 13 21  1  0  0  0  0
 15 13  1  0  0  0  0
 16 15  1  0  0  0  0
 16 18  1  0  0  0  0
 16 17  1  1  0  0  0
 18  2  1  6  0  0  0
 18 19  1  0  0  0  0
 19 21  1  0  0  0  0
 19 20  1  1  0  0  0
 21 22  1  6  0  0  0
 23 20  1  6  0  0  0
 23 29  1  0  0  0  0
 23 24  1  0  0  0  0
 24 26  1  0  0  0  0
 24 25  1  1  0  0  0
 26 27  1  1  0  0  0
 28 26  1  0  0  0  0
 28 30  1  6  0  0  0
 29 28  1  0  0  0  0
 30 31  1  0  0  0  0
 32 27  1  1  0  0  0
 32 40  1  0  0  0  0
 32 33  1  0  0  0  0
 33 35  1  0  0  0  0
 33 34  1  6  0  0  0
 35 37  1  0  0  0  0
 35 36  1  1  0  0  0
 37 38  1  1  0  0  0
 39 37  1  0  0  0  0
 39 41  1  6  0  0  0
 40 39  1  0  0  0  0
 42 41  1  0  0  0  0
M  END
>  <CHROM.1>
-161.54085681,-136.18778526,28.17969768,63.73802399,-171.96253976,177.52276467
-48.85092344,61.86689157,-92.74817635,-50.56636594,149.14124648,-70.72499454
152.37943120,-128.67004996,-139.48155875,60.70968821,67.07957411,-168.12540298
-69.60720451,-54.16273969,153.65168369,78.60806415,0.37308791,2.81541574
2.35294556,1.43915039,0.90264325,-0.60250833

>  <Name>
lig.pdb

>  <RI>
0

>  <Rbt.Current_Directory>
/home/itssahil/PROJECTS/Mol_Feturizer/New_Systems/rnas/2mxs

>  <Rbt.Executable>
rbdock ($Id: //depot/dev/client3/rdock/2013.1/src/exe/rbdock.cxx#4 $)

>  <Rbt.Library>
libRbt.so (2013.1, Build901 2013/11/27)

>  <Rbt.Parameter_File>
/export/apps/rDock/src/rDock_2013.1_src/data/scripts/dock_solv.prm

>  <Rbt.Receptor>
prm/blind_docking_80.prm

>  <SCORE>
1.37846

>  <SCORE.INTER>
-14.2737

>  <SCORE.INTER.CONST>
1

>  <SCORE.INTER.POLAR>
-2.74746

>  <SCORE.INTER.ROT>
9

>  <SCORE.INTER.SOLV>
32.7007

>  <SCORE.INTER.VDW>
-20.8578

>  <SCORE.INTER.norm>
-0.33985

>  <SCORE.INTRA>
7.3939

>  <SCORE.INTRA.DIHEDRAL>
6.86943

>  <SCORE.INTRA.DIHEDRAL.0>
30.1357

>  <SCORE.INTRA.POLAR>
-1.91149

>  <SCORE.INTRA.POLAR.0>
-0.631696

>  <SCORE.INTRA.REPUL>
0

>  <SCORE.INTRA.REPUL.0>
0

>  <SCORE.INTRA.SOLV>
1.891

>  <SCORE.INTRA.SOLV.lig_0>
-55.904

>  <SCORE.INTRA.VDW>
9.51277

>  <SCORE.INTRA.VDW.0>
-8.21197

>  <SCORE.INTRA.norm>
0.176045

>  <SCORE.RESTR>
8.25824

>  <SCORE.RESTR.CAVITY>
8.25824

>  <SCORE.RESTR.norm>
0.196625

>  <SCORE.SYSTEM>
0

>  <SCORE.SYSTEM.CONST>
0

>  <SCORE.SYSTEM.DIHEDRAL>
0

>  <SCORE.SYSTEM.SOLV>
0

>  <SCORE.SYSTEM.norm>
0

>  <SCORE.heavy>
42

>  <SCORE.norm>
0.0328206

>  <RMSD>
5.453

$$$$
lig.pdb
 OpenBabel11021811453D
libRbt.so/2013.1/901 2013/11/27
 42 45  0  0  0  0  0  0  0  0999 V2000
    1.6604    2.2389   -1.2877 C   0  0  2  0  0  0  0  0  0  0  0  0
    1.7732    3.3932   -0.4532 O   0  0  0  0  0  0  0  0  0  0  0  0
    0.8349    1.1429   -0.5970 C   0  0  2  0  0  0  0  0  0  0  0  0
   -0.4831    1.6566   -0.1804 N   0  0  0  0  0  0  0  0  0  0  0  0
    1.5967    0.5495    0.5951 C   0  0  1  0  0  0  0  0  0  0  0  0
    0.8769   -0.5542    1.1101 O   0  0  0  0  0  0  0  0  0  0  0  0
    2.9939    0.0859    0.1561 C   0  0  2  0  0  0  0  0  0  0  0  0
    3.7352   -0.3099    1.2943 O   0  0  0  0  0  0  0  0  0  0  0  0
    3.7487    1.1999   -0.5972 C   0  0  2  0  0  0  0  0  0  0  0  0
    2.9495    1.7469   -1.6455 O   0  0  0  0  0  0  0  0  0  0  0  0
    5.0356    0.5921   -1.1870 C   0  0  0  0  0  0  0  0  0  0  0  0
    5.8656   -0.0273   -0.1684 O   0  0  0  0  0  0  0  0  0  0  0  0
    2.4083    7.5264   -1.4750 C   0  0  2  0  0  0  0  0  0  0  0  0
    2.3480    8.6709   -2.4060 N   0  0  0  0  0  0  0  0  0  0  0  0
    3.2916    6.4173   -2.0519 C   0  0  0  0  0  0  0  0  0  0  0  0
    3.2461    5.1787   -1.1648 C   0  0  2  0  0  0  0  0  0  0  0  0
    4.1710    4.1575   -1.6723 N   0  0  0  0  0  0  0  0  0  0  0  0
    1.7878    4.6666   -1.1146 C   0  0  2  0  0  0  0  0  0  0  0  0
    0.9529    5.6841   -0.4054 C   0  0  2  0  0  0  0  0  0  0  0  0
   -0.3673    5.1778   -0.3337 O   0  0  0  0  0  0  0  0  0  0  0  0
    0.9956    6.9974   -1.1636 C   0  0  1  0  0  0  0  0  0  0  0  0
    0.2888    8.0226   -0.4911 O   0  0  0  0  0  0  0  0  0  0  0  0
   -0.7387    4.4582    0.8372 C   0  0  1  0  0  0  0  0  0  0  0  0
   -0.5186    5.3775    2.0405 C   0  0  2  0  0  0  0  0  0  0  0  0
   -0.0688    4.6091    3.1405 O   0  0  0  0  0  0  0  0  0  0  0  0
   -1.9152    5.9741    2.2607 C   0  0  2  0  0  0  0  0  0  0  0  0
   -2.0987    6.4796    3.5834 O   0  0  0  0  0  0  0  0  0  0  0  0
   -2.7819    4.7585    1.9095 C   0  0  2  0  0  0  0  0  0  0  0  0
   -2.1293    4.1636    0.7966 O   0  0  0  0  0  0  0  0  0  0  0  0
   -4.2236    5.1013    1.5166 C   0  0  0  0  0  0  0  0  0  0  0  0
   -4.9710    5.5544    2.6253 O   0  0  0  0  0  0  0  0  0  0  0  0
   -1.7875    5.5533    4.6222 C   0  0  2  0  0  0  0  0  0  0  0  0
   -2.7527    5.6829    5.8104 C   0  0  2  0  0  0  0  0  0  0  0  0
   -4.1509    5.5432    5.3702 N   0  0  0  0  0  0  0  0  0  0  0  0
   -2.5297    7.0025    6.5644 C   0  0  1  0  0  0  0  0  0  0  0  0
   -3.3822    7.0273    7.6929 O   0  0  0  0  0  0  0  0  0  0  0  0
   -1.0587    7.0658    7.0093 C   0  0  2  0  0  0  0  0  0  0  0  0
   -0.7881    8.2861    7.6741 O   0  0  0  0  0  0  0  0  0  0  0  0
   -0.1093    6.8850    5.8069 C   0  0  1  0  0  0  0  0  0  0  0  0
   -0.4378    5.7164    5.0520 O   0  0  0  0  0  0  0  0  0  0  0  0
   -0.0089    8.1331    4.9176 C   0  0  0  0  0  0  0  0  0  0  0  0
   -1.3285    8.7509    4.7096 N   0  0  0  0  0  0  0  0  0  0  0  0
  1  3  1  0  0  0  0
  1  2  1  1  0  0  0
  3  4  1  1  0  0  0
  5  6  1  6  0  0  0
  5  3  1  0  0  0  0
  7  9  1  0  0  0  0
  7  5  1  0  0  0  0
  7  8  1  1  0  0  0
  9 10  1  0  0  0  0
  9 11  1  6  0  0  0
 10  1  1  0  0  0  0
 11 12  1  0  0  0  0
 13 14  1  6  0  0  0
 13 21  1  0  0  0  0
 15 13  1  0  0  0  0
 16 15  1  0  0  0  0
 16 18  1  0  0  0  0
 16 17  1  6  0  0  0
 18  2  1  1  0  0  0
 18 19  1  0  0  0  0
 19 21  1  0  0  0  0
 19 20  1  6  0  0  0
 21 22  1  1  0  0  0
 23 20  1  6  0  0  0
 23 29  1  0  0  0  0
 23 24  1  0  0  0  0
 24 26  1  0  0  0  0
 24 25  1  1  0  0  0
 26 27  1  1  0  0  0
 28 26  1  0  0  0  0
 28 30  1  6  0  0  0
 29 28  1  0  0  0  0
 30 31  1  0  0  0  0
 32 27  1  6  0  0  0
 32 40  1  0  0  0  0
 32 33  1  0  0  0  0
 33 35  1  0  0  0  0
 33 34  1  6  0  0  0
 35 37  1  0  0  0  0
 35 36  1  1  0  0  0
 37 38  1  6  0  0  0
 39 37  1  0  0  0  0
 39 41  1  6  0  0  0
 40 39  1  0  0  0  0
 42 41  1  0  0  0  0
M  END
>  <CHROM.1>
-102.27919582,-145.23514824,41.94913455,-57.26248687,67.78318310,-88.84564886
-56.32644540,82.36413023,-80.00851944,93.49583587,57.59930035,-70.56762520
89.27746390,-52.67647458,-142.79692288,-70.18060352,81.92268201,146.87419420
-64.98064252,75.24387740,-42.01872611,72.72683410,0.26489344,4.67765285,1.66690258
0.27731902,-0.93319060,2.83272991

>  <Name>
lig.pdb

>  <RI>
3.17932e+07

>  <Rbt.Current_Directory>
/home/itssahil/PROJECTS/Mol_Feturizer/New_Systems/rnas/2mxs

>  <Rbt.Executable>
rbdock ($Id: //depot/dev/client3/rdock/2013.1/src/exe/rbdock.cxx#4 $)

>  <Rbt.Library>
libRbt.so (2013.1, Build901 2013/11/27)

>  <Rbt.Parameter_File>
/export/apps/rDock/src/rDock_2013.1_src/data/scripts/dock_solv.prm

>  <Rbt.Receptor>
prm/blind_docking_100.prm

>  <SCORE>
0.816366

>  <SCORE.INTER>
-31.7118

>  <SCORE.INTER.CONST>
1

>  <SCORE.INTER.POLAR>
-5.47547

>  <SCORE.INTER.ROT>
9

>  <SCORE.INTER.SOLV>
31.8493

>  <SCORE.INTER.VDW>
-23.1061

>  <SCORE.INTER.norm>
-0.755042

>  <SCORE.INTRA>
12.6969

>  <SCORE.INTRA.DIHEDRAL>
7.83225

>  <SCORE.INTRA.DIHEDRAL.0>
30.1357

>  <SCORE.INTRA.POLAR>
-0.817273

>  <SCORE.INTRA.POLAR.0>
-0.631696

>  <SCORE.INTRA.REPUL>
0

>  <SCORE.INTRA.REPUL.0>
0

>  <SCORE.INTRA.SOLV>
3.58565

>  <SCORE.INTRA.SOLV.lig_0>
-55.904

>  <SCORE.INTRA.VDW>
9.76671

>  <SCORE.INTRA.VDW.0>
-8.21197

>  <SCORE.INTRA.norm>
0.302308

>  <SCORE.RESTR>
19.8312

>  <SCORE.RESTR.CAVITY>
19.8312

>  <SCORE.RESTR.norm>
0.472172

>  <SCORE.SYSTEM>
0

>  <SCORE.SYSTEM.CONST>
0

>  <SCORE.SYSTEM.DIHEDRAL>
0

>  <SCORE.SYSTEM.SOLV>
0

>  <SCORE.SYSTEM.norm>
0

>  <SCORE.heavy>
42

>  <SCORE.norm>
0.0194373

>  <RMSD>
5.481

$$$$
lig.pdb
 OpenBabel11021811453D
libRbt.so/2013.1/901 2013/11/27
 42 45  0  0  0  0  0  0  0  0999 V2000
   -1.2971    4.4731    1.3523 C   0  0  2  0  0  0  0  0  0  0  0  0
   -0.8568    5.1416    0.1687 O   0  0  0  0  0  0  0  0  0  0  0  0
   -2.7416    4.8658    1.6973 C   0  0  2  0  0  0  0  0  0  0  0  0
   -3.6429    4.6232    0.5557 N   0  0  0  0  0  0  0  0  0  0  0  0
   -2.8188    6.3267    2.1593 C   0  0  1  0  0  0  0  0  0  0  0  0
   -4.1295    6.6074    2.6121 O   0  0  0  0  0  0  0  0  0  0  0  0
   -1.8215    6.5774    3.3004 C   0  0  2  0  0  0  0  0  0  0  0  0
   -1.7942    7.9589    3.6037 O   0  0  0  0  0  0  0  0  0  0  0  0
   -0.4042    6.0964    2.9287 C   0  0  2  0  0  0  0  0  0  0  0  0
   -0.4253    4.7539    2.4445 O   0  0  0  0  0  0  0  0  0  0  0  0
    0.4763    6.1808    4.1900 C   0  0  0  0  0  0  0  0  0  0  0  0
    0.0970    5.1974    5.1896 O   0  0  0  0  0  0  0  0  0  0  0  0
    2.9849    5.0901   -1.7728 C   0  0  2  0  0  0  0  0  0  0  0  0
    4.4612    5.1141   -1.7589 N   0  0  0  0  0  0  0  0  0  0  0  0
    2.4262    6.3689   -1.1436 C   0  0  0  0  0  0  0  0  0  0  0  0
    0.9087    6.2906   -1.0259 C   0  0  2  0  0  0  0  0  0  0  0  0
    0.3739    7.5583   -0.5132 N   0  0  0  0  0  0  0  0  0  0  0  0
    0.5502    5.0974   -0.1098 C   0  0  2  0  0  0  0  0  0  0  0  0
    0.9529    3.8334   -0.7994 C   0  0  2  0  0  0  0  0  0  0  0  0
    0.5786    2.7535    0.0363 O   0  0  0  0  0  0  0  0  0  0  0  0
    2.4495    3.8416   -1.0469 C   0  0  1  0  0  0  0  0  0  0  0  0
    2.8743    2.7039   -1.7737 O   0  0  0  0  0  0  0  0  0  0  0  0
    1.2572    2.6113    1.2797 C   0  0  1  0  0  0  0  0  0  0  0  0
    0.2332    2.1561    2.3217 C   0  0  2  0  0  0  0  0  0  0  0  0
    0.5388    2.7505    3.5691 O   0  0  0  0  0  0  0  0  0  0  0  0
    0.4197    0.6328    2.3250 C   0  0  2  0  0  0  0  0  0  0  0  0
   -0.0573    0.0196    3.5229 O   0  0  0  0  0  0  0  0  0  0  0  0
    1.9372    0.5504    2.1191 C   0  0  2  0  0  0  0  0  0  0  0  0
    2.2269    1.5760    1.1797 O   0  0  0  0  0  0  0  0  0  0  0  0
    2.4283   -0.7900    1.5601 C   0  0  0  0  0  0  0  0  0  0  0  0
    2.5615   -0.7501    0.1552 O   0  0  0  0  0  0  0  0  0  0  0  0
    0.9154   -0.7538    4.2228 C   0  0  2  0  0  0  0  0  0  0  0  0
    0.2882   -1.9813    4.9010 C   0  0  2  0  0  0  0  0  0  0  0  0
   -0.4475   -2.8030    3.9255 N   0  0  0  0  0  0  0  0  0  0  0  0
   -0.6087   -1.5670    6.0773 C   0  0  1  0  0  0  0  0  0  0  0  0
   -1.0872   -2.7360    6.7138 O   0  0  0  0  0  0  0  0  0  0  0  0
    0.2320   -0.7341    7.0599 C   0  0  2  0  0  0  0  0  0  0  0  0
   -0.5606   -0.2890    8.1453 O   0  0  0  0  0  0  0  0  0  0  0  0
    0.8903    0.4645    6.3461 C   0  0  1  0  0  0  0  0  0  0  0  0
    1.6032    0.0508    5.1782 O   0  0  0  0  0  0  0  0  0  0  0  0
   -0.0906    1.6072    6.0448 C   0  0  0  0  0  0  0  0  0  0  0  0
    0.4764    2.9130    6.4186 N   0  0  0  0  0  0  0  0  0  0  0  0
  1  3  1  0  0  0  0
  1  2  1  6  0  0  0
  3  4  1  6  0  0  0
  5  6  1  1  0  0  0
  5  3  1  0  0  0  0
  7  9  1  0  0  0  0
  7  5  1  0  0  0  0
  7  8  1  6  0  0  0
  9 10  1  0  0  0  0
  9 11  1  1  0  0  0
 10  1  1  0  0  0  0
 11 12  1  0  0  0  0
 13 14  1  1  0  0  0
 13 21  1  0  0  0  0
 15 13  1  0  0  0  0
 16 15  1  0  0  0  0
 16 18  1  0  0  0  0
 16 17  1  1  0  0  0
 18  2  1  6  0  0  0
 18 19  1  0  0  0  0
 19 21  1  0  0  0  0
 19 20  1  1  0  0  0
 21 22  1  6  0  0  0
 23 20  1  6  0  0  0
 23 29  1  0  0  0  0
 23 24  1  0  0  0  0
 24 26  1  0  0  0  0
 24 25  1  1  0  0  0
 26 27  1  1  0  0  0
 28 26  1  0  0  0  0
 28 30  1  6  0  0  0
 29 28  1  0  0  0  0
 30 31  1  0  0  0  0
 32 27  1  1  0  0  0
 32 40  1  0  0  0  0
 32 33  1  0  0  0  0
 33 35  1  0  0  0  0
 33 34  1  6  0  0  0
 35 37  1  0  0  0  0
 35 36  1  1  0  0  0
 37 38  1  1  0  0  0
 39 37  1  0  0  0  0
 39 41  1  6  0  0  0
 40 39  1  0  0  0  0
 42 41  1  0  0  0  0
M  END
>  <CHROM.1>
-157.07015065,166.98113159,83.77759224,-75.33931484,82.42853859,-63.66726631
69.24697410,-57.04622270,56.60783321,-66.94577348,141.93965620,-178.77139475
74.05255816,-123.34614712,-145.45310812,94.96966554,172.09010868,-150.84643701
162.04699687,-179.71474216,133.80149495,-119.69724252,0.27709781,2.86809400
2.48417493,1.54082508,0.89011805,-0.65635306

>  <Name>
lig.pdb

>  <RI>
0

>  <Rbt.Current_Directory>
/home/itssahil/PROJECTS/Mol_Feturizer/New_Systems/rnas/2mxs

>  <Rbt.Executable>
rbdock ($Id: //depot/dev/client3/rdock/2013.1/src/exe/rbdock.cxx#4 $)

>  <Rbt.Library>
libRbt.so (2013.1, Build901 2013/11/27)

>  <Rbt.Parameter_File>
/export/apps/rDock/src/rDock_2013.1_src/data/scripts/dock_solv.prm

>  <Rbt.Receptor>
prm/blind_docking_80.prm

>  <SCORE>
-28.0636

>  <SCORE.INTER>
-45.6976

>  <SCORE.INTER.CONST>
1

>  <SCORE.INTER.POLAR>
-5.95254

>  <SCORE.INTER.ROT>
9

>  <SCORE.INTER.SOLV>
30.3053

>  <SCORE.INTER.VDW>
-30.3251

>  <SCORE.INTER.norm>
-1.08804

>  <SCORE.INTRA>
7.52879

>  <SCORE.INTRA.DIHEDRAL>
10.9553

>  <SCORE.INTRA.DIHEDRAL.0>
30.1357

>  <SCORE.INTRA.POLAR>
-1.73252

>  <SCORE.INTRA.POLAR.0>
-0.631696

>  <SCORE.INTRA.REPUL>
0

>  <SCORE.INTRA.REPUL.0>
0

>  <SCORE.INTRA.SOLV>
3.36081

>  <SCORE.INTRA.SOLV.lig_0>
-55.904

>  <SCORE.INTRA.VDW>
6.2613

>  <SCORE.INTRA.VDW.0>
-8.21197

>  <SCORE.INTRA.norm>
0.179257

>  <SCORE.RESTR>
10.1052

>  <SCORE.RESTR.CAVITY>
10.1052

>  <SCORE.RESTR.norm>
0.2406

>  <SCORE.SYSTEM>
0

>  <SCORE.SYSTEM.CONST>
0

>  <SCORE.SYSTEM.DIHEDRAL>
0

>  <SCORE.SYSTEM.SOLV>
0

>  <SCORE.SYSTEM.norm>
0

>  <SCORE.heavy>
42

>  <SCORE.norm>
-0.668182

>  <RMSD>
5.492

$$$$
lig.pdb
 OpenBabel11021811453D
libRbt.so/2013.1/901 2013/11/27
 42 45  0  0  0  0  0  0  0  0999 V2000
   -1.4447    1.4235    2.3587 C   0  0  2  0  0  0  0  0  0  0  0  0
   -0.4971    2.1947    1.6179 O   0  0  0  0  0  0  0  0  0  0  0  0
   -0.8988    0.0171    2.6480 C   0  0  2  0  0  0  0  0  0  0  0  0
    0.4096    0.0862    3.3245 N   0  0  0  0  0  0  0  0  0  0  0  0
   -0.8105   -0.8140    1.3615 C   0  0  1  0  0  0  0  0  0  0  0  0
   -0.4518   -2.1437    1.6851 O   0  0  0  0  0  0  0  0  0  0  0  0
   -2.1637   -0.8144    0.6344 C   0  0  2  0  0  0  0  0  0  0  0  0
   -2.0203   -1.4494   -0.6217 O   0  0  0  0  0  0  0  0  0  0  0  0
   -2.7001    0.6179    0.4372 C   0  0  2  0  0  0  0  0  0  0  0  0
   -2.6869    1.3474    1.6638 O   0  0  0  0  0  0  0  0  0  0  0  0
   -4.1427    0.5200   -0.0945 C   0  0  0  0  0  0  0  0  0  0  0  0
   -4.2065   -0.1394   -1.3873 O   0  0  0  0  0  0  0  0  0  0  0  0
   -0.1521    6.4507    1.0716 C   0  0  2  0  0  0  0  0  0  0  0  0
   -0.7243    7.8012    0.9013 N   0  0  0  0  0  0  0  0  0  0  0  0
   -0.6033    5.5342   -0.0683 C   0  0  0  0  0  0  0  0  0  0  0  0
   -0.1336    4.1047    0.1742 C   0  0  2  0  0  0  0  0  0  0  0  0
   -0.4855    3.2545   -0.9700 N   0  0  0  0  0  0  0  0  0  0  0  0
   -0.7687    3.5980    1.4900 C   0  0  2  0  0  0  0  0  0  0  0  0
   -0.2036    4.3912    2.6246 C   0  0  2  0  0  0  0  0  0  0  0  0
   -0.7656    3.8843    3.8211 O   0  0  0  0  0  0  0  0  0  0  0  0
   -0.5411    5.8585    2.4392 C   0  0  1  0  0  0  0  0  0  0  0  0
    0.0419    6.6688    3.4426 O   0  0  0  0  0  0  0  0  0  0  0  0
   -0.8160    4.7513    4.9493 C   0  0  1  0  0  0  0  0  0  0  0  0
   -1.5513    4.0158    6.0716 C   0  0  2  0  0  0  0  0  0  0  0  0
   -2.3266    4.9422    6.8089 O   0  0  0  0  0  0  0  0  0  0  0  0
   -0.3968    3.4203    6.8886 C   0  0  2  0  0  0  0  0  0  0  0  0
   -0.7740    3.1008    8.2282 O   0  0  0  0  0  0  0  0  0  0  0  0
    0.6304    4.5520    6.7610 C   0  0  2  0  0  0  0  0  0  0  0  0
    0.5026    5.0014    5.4194 O   0  0  0  0  0  0  0  0  0  0  0  0
    2.0812    4.1206    7.0055 C   0  0  0  0  0  0  0  0  0  0  0  0
    2.9901    5.1579    6.7040 O   0  0  0  0  0  0  0  0  0  0  0  0
   -1.8713    2.1964    8.3370 C   0  0  2  0  0  0  0  0  0  0  0  0
   -2.7426    2.5013    9.5650 C   0  0  2  0  0  0  0  0  0  0  0  0
   -3.2017    3.9003    9.5502 N   0  0  0  0  0  0  0  0  0  0  0  0
   -2.0008    2.1668   10.8679 C   0  0  1  0  0  0  0  0  0  0  0  0
   -2.8782    2.3848   11.9557 O   0  0  0  0  0  0  0  0  0  0  0  0
   -1.5735    0.6900   10.8187 C   0  0  2  0  0  0  0  0  0  0  0  0
   -0.8455    0.3398   11.9814 O   0  0  0  0  0  0  0  0  0  0  0  0
   -0.7413    0.3972    9.5532 C   0  0  1  0  0  0  0  0  0  0  0  0
   -1.4086    0.8481    8.3723 O   0  0  0  0  0  0  0  0  0  0  0  0
    0.6985    0.9255    9.6357 C   0  0  0  0  0  0  0  0  0  0  0  0
    1.3509    0.9123    8.3165 N   0  0  0  0  0  0  0  0  0  0  0  0
  1  3  1  0  0  0  0
  1  2  1  6  0  0  0
  3  4  1  6  0  0  0
  5  6  1  1  0  0  0
  5  3  1  0  0  0  0
  7  9  1  0  0  0  0
  7  5  1  0  0  0  0
  7  8  1  6  0  0  0
  9 10  1  0  0  0  0
  9 11  1  1  0  0  0
 10  1  1  0  0  0  0
 11 12  1  0  0  0  0
 13 14  1  6  0  0  0
 13 21  1  0  0  0  0
 15 13  1  0  0  0  0
 16 15  1  0  0  0  0
 16 18  1  0  0  0  0
 16 17  1  6  0  0  0
 18  2  1  1  0  0  0
 18 19  1  0  0  0  0
 19 21  1  0  0  0  0
 19 20  1  1  0  0  0
 21 22  1  1  0  0  0
 23 20  1  6  0  0  0
 23 29  1  0  0  0  0
 23 24  1  0  0  0  0
 24 26  1  0  0  0  0
 24 25  1  1  0  0  0
 26 27  1  1  0  0  0
 28 26  1  0  0  0  0
 28 30  1  6  0  0  0
 29 28  1  0  0  0  0
 30 31  1  0  0  0  0
 32 27  1  1  0  0  0
 32 40  1  0  0  0  0
 32 33  1  0  0  0  0
 33 35  1  0  0  0  0
 33 34  1  1  0  0  0
 35 37  1  0  0  0  0
 35 36  1  1  0  0  0
 37 38  1  1  0  0  0
 39 37  1  0  0  0  0
 39 41  1  1  0  0  0
 40 39  1  0  0  0  0
 42 41  1  0  0  0  0
M  END
>  <CHROM.1>
-151.92213658,-168.91745238,173.05429207,-61.48510763,-53.11972383,54.46557782
-62.26236660,-124.91961818,61.68301137,-155.95848479,175.89912453,58.26162307
-59.07019868,57.22056165,-146.09953929,172.27948427,-66.74743136,-91.02366684
-64.13106629,178.66382042,-166.60480208,-72.01591552,-0.96167841,2.58564917
4.67856105,1.73811329,-1.29035093,-1.42731738

>  <Name>
lig.pdb

>  <RI>
3.99633e+07

>  <Rbt.Current_Directory>
/home/itssahil/PROJECTS/Mol_Feturizer/New_Systems/rnas/2mxs

>  <Rbt.Executable>
rbdock ($Id: //depot/dev/client3/rdock/2013.1/src/exe/rbdock.cxx#4 $)

>  <Rbt.Library>
libRbt.so (2013.1, Build901 2013/11/27)

>  <Rbt.Parameter_File>
/export/apps/rDock/src/rDock_2013.1_src/data/scripts/dock_solv.prm

>  <Rbt.Receptor>
prm/pocket_docking_5.prm

>  <SCORE>
-40.07

>  <SCORE.INTER>
-38.3433

>  <SCORE.INTER.CONST>
1

>  <SCORE.INTER.POLAR>
-5.69748

>  <SCORE.INTER.ROT>
9

>  <SCORE.INTER.SOLV>
18.4017

>  <SCORE.INTER.VDW>
-22.3045

>  <SCORE.INTER.norm>
-0.912935

>  <SCORE.INTRA>
-1.82394

>  <SCORE.INTRA.DIHEDRAL>
-11.1573

>  <SCORE.INTRA.DIHEDRAL.0>
30.1357

>  <SCORE.INTRA.POLAR>
-0.714628

>  <SCORE.INTRA.POLAR.0>
-0.631696

>  <SCORE.INTRA.REPUL>
0.0582808

>  <SCORE.INTRA.REPUL.0>
0

>  <SCORE.INTRA.SOLV>
-0.186784

>  <SCORE.INTRA.SOLV.lig_0>
-55.904

>  <SCORE.INTRA.VDW>
5.98641

>  <SCORE.INTRA.VDW.0>
-8.21197

>  <SCORE.INTRA.norm>
-0.0434272

>  <SCORE.RESTR>
0.0971631

>  <SCORE.RESTR.CAVITY>
0.0971631

>  <SCORE.RESTR.norm>
0.00231341

>  <SCORE.SYSTEM>
0

>  <SCORE.SYSTEM.CONST>
0

>  <SCORE.SYSTEM.DIHEDRAL>
0

>  <SCORE.SYSTEM.SOLV>
0

>  <SCORE.SYSTEM.norm>
0

>  <SCORE.heavy>
42

>  <SCORE.norm>
-0.954049

>  <RMSD>
5.503

$$$$
lig.pdb
 OpenBabel11021811453D
libRbt.so/2013.1/901 2013/11/27
 42 45  0  0  0  0  0  0  0  0999 V2000
   -1.9763    1.4360    1.9537 C   0  0  2  0  0  0  0  0  0  0  0  0
   -0.8561    2.0731    1.3368 O   0  0  0  0  0  0  0  0  0  0  0  0
   -1.5147    0.3586    2.9466 C   0  0  2  0  0  0  0  0  0  0  0  0
   -0.5801    0.9197    3.9395 N   0  0  0  0  0  0  0  0  0  0  0  0
   -0.8879   -0.8336    2.2122 C   0  0  1  0  0  0  0  0  0  0  0  0
   -0.6156   -1.8663    3.1401 O   0  0  0  0  0  0  0  0  0  0  0  0
   -1.8474   -1.3585    1.1336 C   0  0  2  0  0  0  0  0  0  0  0  0
   -1.1920   -2.3495    0.3656 O   0  0  0  0  0  0  0  0  0  0  0  0
   -2.3377   -0.2233    0.2120 C   0  0  2  0  0  0  0  0  0  0  0  0
   -2.8426    0.8753    0.9704 O   0  0  0  0  0  0  0  0  0  0  0  0
   -3.4508   -0.7870   -0.6916 C   0  0  0  0  0  0  0  0  0  0  0  0
   -4.4967    0.1885   -0.9457 O   0  0  0  0  0  0  0  0  0  0  0  0
    0.0184    6.2416    0.7128 C   0  0  2  0  0  0  0  0  0  0  0  0
   -0.3763    7.6353    0.4258 N   0  0  0  0  0  0  0  0  0  0  0  0
   -0.3766    5.3268   -0.4492 C   0  0  0  0  0  0  0  0  0  0  0  0
   -0.1010    3.8686   -0.1021 C   0  0  2  0  0  0  0  0  0  0  0  0
   -0.3904    3.0092   -1.2568 N   0  0  0  0  0  0  0  0  0  0  0  0
   -0.9543    3.4898    1.1308 C   0  0  2  0  0  0  0  0  0  0  0  0
   -0.4599    4.2700    2.3065 C   0  0  2  0  0  0  0  0  0  0  0  0
   -1.2255    3.8781    3.4311 O   0  0  0  0  0  0  0  0  0  0  0  0
   -0.6085    5.7547    2.0328 C   0  0  1  0  0  0  0  0  0  0  0  0
   -0.0774    6.5441    3.0805 O   0  0  0  0  0  0  0  0  0  0  0  0
   -0.8299    4.3709    4.7069 C   0  0  1  0  0  0  0  0  0  0  0  0
   -1.9825    4.1221    5.6821 C   0  0  2  0  0  0  0  0  0  0  0  0
   -2.0561    5.1942    6.6030 O   0  0  0  0  0  0  0  0  0  0  0  0
   -1.5778    2.7964    6.3409 C   0  0  2  0  0  0  0  0  0  0  0  0
   -2.2152    2.5878    7.6014 O   0  0  0  0  0  0  0  0  0  0  0  0
   -0.0578    2.9878    6.4113 C   0  0  2  0  0  0  0  0  0  0  0  0
    0.2800    3.6219    5.1857 O   0  0  0  0  0  0  0  0  0  0  0  0
    0.7393    1.6838    6.5335 C   0  0  0  0  0  0  0  0  0  0  0  0
    2.0204    1.9070    7.0831 O   0  0  0  0  0  0  0  0  0  0  0  0
   -2.3844    1.2184    7.9625 C   0  0  2  0  0  0  0  0  0  0  0  0
   -3.5078    1.0349    8.9942 C   0  0  2  0  0  0  0  0  0  0  0  0
   -4.7688    1.6198    8.5087 N   0  0  0  0  0  0  0  0  0  0  0  0
   -3.1074    1.6151   10.3589 C   0  0  1  0  0  0  0  0  0  0  0  0
   -4.1398    1.3416   11.2863 O   0  0  0  0  0  0  0  0  0  0  0  0
   -1.7989    0.9429   10.8082 C   0  0  2  0  0  0  0  0  0  0  0  0
   -1.3611    1.4747   12.0451 O   0  0  0  0  0  0  0  0  0  0  0  0
   -0.7010    1.0987    9.7358 C   0  0  1  0  0  0  0  0  0  0  0  0
   -1.1606    0.6735    8.4508 O   0  0  0  0  0  0  0  0  0  0  0  0
   -0.0906    2.5073    9.6896 C   0  0  0  0  0  0  0  0  0  0  0  0
   -1.1303    3.5453    9.7775 N   0  0  0  0  0  0  0  0  0  0  0  0
  1  3  1  0  0  0  0
  1  2  1  6  0  0  0
  3  4  1  1  0  0  0
  5  6  1  1  0  0  0
  5  3  1  0  0  0  0
  7  9  1  0  0  0  0
  7  5  1  0  0  0  0
  7  8  1  6  0  0  0
  9 10  1  0  0  0  0
  9 11  1  6  0  0  0
 10  1  1  0  0  0  0
 11 12  1  0  0  0  0
 13 14  1  6  0  0  0
 13 21  1  0  0  0  0
 15 13  1  0  0  0  0
 16 15  1  0  0  0  0
 16 18  1  0  0  0  0
 16 17  1  6  0  0  0
 18  2  1  1  0  0  0
 18 19  1  0  0  0  0
 19 21  1  0  0  0  0
 19 20  1  1  0  0  0
 21 22  1  1  0  0  0
 23 20  1  6  0  0  0
 23 29  1  0  0  0  0
 23 24  1  0  0  0  0
 24 26  1  0  0  0  0
 24 25  1  1  0  0  0
 26 27  1  1  0  0  0
 28 26  1  0  0  0  0
 28 30  1  6  0  0  0
 29 28  1  0  0  0  0
 30 31  1  0  0  0  0
 32 27  1  1  0  0  0
 32 40  1  0  0  0  0
 32 33  1  0  0  0  0
 33 35  1  0  0  0  0
 33 34  1  6  0  0  0
 35 37  1  0  0  0  0
 35 36  1  1  0  0  0
 37 38  1  1  0  0  0
 39 37  1  0  0  0  0
 39 41  1  6  0  0  0
 40 39  1  0  0  0  0
 42 41  1  0  0  0  0
M  END
>  <CHROM.1>
-151.30736613,-140.67675784,-85.94307711,-162.15778487,-60.93222872,-179.11878699
143.81776233,58.29239269,52.08154064,172.62143121,165.64277399,157.06775394
-179.46833466,152.79547802,-157.89523313,-157.96986156,-58.90998616,-56.83095864
62.78825637,174.01882971,-43.76641552,-58.05011765,-1.36385038,2.25701495
4.58509375,1.36189037,-1.26885699,-1.71308366

>  <Name>
lig.pdb

>  <RI>
3.99633e+07

>  <Rbt.Current_Directory>
/home/itssahil/PROJECTS/Mol_Feturizer/New_Systems/rnas/2mxs

>  <Rbt.Executable>
rbdock ($Id: //depot/dev/client3/rdock/2013.1/src/exe/rbdock.cxx#4 $)

>  <Rbt.Library>
libRbt.so (2013.1, Build901 2013/11/27)

>  <Rbt.Parameter_File>
/export/apps/rDock/src/rDock_2013.1_src/data/scripts/dock_solv.prm

>  <Rbt.Receptor>
prm/pocket_docking_5.prm

>  <SCORE>
-32.7525

>  <SCORE.INTER>
-30.3224

>  <SCORE.INTER.CONST>
1

>  <SCORE.INTER.POLAR>
-4.42775

>  <SCORE.INTER.ROT>
9

>  <SCORE.INTER.SOLV>
14.768

>  <SCORE.INTER.VDW>
-19.9784

>  <SCORE.INTER.norm>
-0.721962

>  <SCORE.INTRA>
-2.4355

>  <SCORE.INTRA.DIHEDRAL>
-3.03606

>  <SCORE.INTRA.DIHEDRAL.0>
30.1357

>  <SCORE.INTRA.POLAR>
-1.15016

>  <SCORE.INTRA.POLAR.0>
-0.631696

>  <SCORE.INTRA.REPUL>
0

>  <SCORE.INTRA.REPUL.0>
0

>  <SCORE.INTRA.SOLV>
1.15826

>  <SCORE.INTRA.SOLV.lig_0>
-55.904

>  <SCORE.INTRA.VDW>
2.41396

>  <SCORE.INTRA.VDW.0>
-8.21197

>  <SCORE.INTRA.norm>
-0.0579881

>  <SCORE.RESTR>
0.0053674

>  <SCORE.RESTR.CAVITY>
0.0053674

>  <SCORE.RESTR.norm>
0.000127795

>  <SCORE.SYSTEM>
0

>  <SCORE.SYSTEM.CONST>
0

>  <SCORE.SYSTEM.DIHEDRAL>
0

>  <SCORE.SYSTEM.SOLV>
0

>  <SCORE.SYSTEM.norm>
0

>  <SCORE.heavy>
42

>  <SCORE.norm>
-0.779822

>  <RMSD>
5.510

$$$$
lig.pdb
 OpenBabel11021811453D
libRbt.so/2013.1/901 2013/11/27
 42 45  0  0  0  0  0  0  0  0999 V2000
   -0.2909    1.4578    4.1270 C   0  0  2  0  0  0  0  0  0  0  0  0
    0.5197    1.7495    2.9871 O   0  0  0  0  0  0  0  0  0  0  0  0
    0.3691    0.3863    5.0079 C   0  0  2  0  0  0  0  0  0  0  0  0
    1.7377    0.7829    5.3877 N   0  0  0  0  0  0  0  0  0  0  0  0
    0.3654   -0.9792    4.3086 C   0  0  1  0  0  0  0  0  0  0  0  0
    0.8388   -1.9668    5.2042 O   0  0  0  0  0  0  0  0  0  0  0  0
   -1.0573   -1.3418    3.8568 C   0  0  2  0  0  0  0  0  0  0  0  0
   -1.0151   -2.5227    3.0788 O   0  0  0  0  0  0  0  0  0  0  0  0
   -1.6994   -0.2016    3.0407 C   0  0  2  0  0  0  0  0  0  0  0  0
   -1.5953    1.0457    3.7266 O   0  0  0  0  0  0  0  0  0  0  0  0
   -3.1832   -0.5499    2.8165 C   0  0  0  0  0  0  0  0  0  0  0  0
   -3.3491   -1.7409    2.0014 O   0  0  0  0  0  0  0  0  0  0  0  0
   -0.1436    4.7503   -0.0273 C   0  0  2  0  0  0  0  0  0  0  0  0
   -0.9611    5.4041   -1.0687 N   0  0  0  0  0  0  0  0  0  0  0  0
    0.1251    3.2903   -0.4007 C   0  0  0  0  0  0  0  0  0  0  0  0
    0.8467    2.5704    0.7324 C   0  0  2  0  0  0  0  0  0  0  0  0
    1.1870    1.2008    0.3274 N   0  0  0  0  0  0  0  0  0  0  0  0
   -0.0607    2.5963    1.9844 C   0  0  2  0  0  0  0  0  0  0  0  0
   -0.1924    4.0128    2.4445 C   0  0  2  0  0  0  0  0  0  0  0  0
   -0.9911    4.0092    3.6135 O   0  0  0  0  0  0  0  0  0  0  0  0
   -0.8278    4.8481    1.3492 C   0  0  1  0  0  0  0  0  0  0  0  0
   -0.9002    6.2175    1.6994 O   0  0  0  0  0  0  0  0  0  0  0  0
   -0.8728    5.1163    4.5007 C   0  0  1  0  0  0  0  0  0  0  0  0
   -1.8413    4.8892    5.6634 C   0  0  2  0  0  0  0  0  0  0  0  0
   -2.3820    6.1316    6.0718 O   0  0  0  0  0  0  0  0  0  0  0  0
   -0.9368    4.2534    6.7277 C   0  0  2  0  0  0  0  0  0  0  0  0
   -1.4621    4.3824    8.0491 O   0  0  0  0  0  0  0  0  0  0  0  0
    0.3610    5.0294    6.4716 C   0  0  2  0  0  0  0  0  0  0  0  0
    0.4353    5.1453    5.0576 O   0  0  0  0  0  0  0  0  0  0  0  0
    1.6272    4.3311    6.9812 C   0  0  0  0  0  0  0  0  0  0  0  0
    2.7541    5.1781    6.9063 O   0  0  0  0  0  0  0  0  0  0  0  0
   -0.8417    3.5419    9.0201 C   0  0  2  0  0  0  0  0  0  0  0  0
   -1.7519    3.3051   10.2348 C   0  0  2  0  0  0  0  0  0  0  0  0
   -3.0573    2.7670    9.8173 N   0  0  0  0  0  0  0  0  0  0  0  0
   -1.9119    4.5870   11.0660 C   0  0  1  0  0  0  0  0  0  0  0  0
   -2.6852    4.2884   12.2121 O   0  0  0  0  0  0  0  0  0  0  0  0
   -0.5136    5.0746   11.4818 C   0  0  2  0  0  0  0  0  0  0  0  0
   -0.6015    6.2816   12.2166 O   0  0  0  0  0  0  0  0  0  0  0  0
    0.3966    5.2587   10.2500 C   0  0  1  0  0  0  0  0  0  0  0  0
    0.4101    4.0880    9.4298 O   0  0  0  0  0  0  0  0  0  0  0  0
    0.0757    6.5232    9.4395 C   0  0  0  0  0  0  0  0  0  0  0  0
    1.2989    7.1387    8.8996 N   0  0  0  0  0  0  0  0  0  0  0  0
  1  3  1  0  0  0  0
  1  2  1  6  0  0  0
  3  4  1  6  0  0  0
  5  6  1  1  0  0  0
  5  3  1  0  0  0  0
  7  9  1  0  0  0  0
  7  5  1  0  0  0  0
  7  8  1  6  0  0  0
  9 10  1  0  0  0  0
  9 11  1  1  0  0  0
 10  1  1  0  0  0  0
 11 12  1  0  0  0  0
 13 14  1  6  0  0  0
 13 21  1  0  0  0  0
 15 13  1  0  0  0  0
 16 15  1  0  0  0  0
 16 18  1  0  0  0  0
 16 17  1  6  0  0  0
 18  2  1  1  0  0  0
 18 19  1  0  0  0  0
 19 21  1  0  0  0  0
 19 20  1  1  0  0  0
 21 22  1  1  0  0  0
 23 20  1  6  0  0  0
 23 29  1  0  0  0  0
 23 24  1  0  0  0  0
 24 26  1  0  0  0  0
 24 25  1  1  0  0  0
 26 27  1  1  0  0  0
 28 26  1  0  0  0  0
 28 30  1  6  0  0  0
 29 28  1  0  0  0  0
 30 31  1  0  0  0  0
 32 27  1  6  0  0  0
 32 40  1  0  0  0  0
 32 33  1  0  0  0  0
 33 35  1  0  0  0  0
 33 34  1  6  0  0  0
 35 37  1  0  0  0  0
 35 36  1  1  0  0  0
 37 38  1  6  0  0  0
 39 37  1  0  0  0  0
 39 41  1  6  0  0  0
 40 39  1  0  0  0  0
 42 41  1  0  0  0  0
M  END
>  <CHROM.1>
-169.29921621,171.64999917,-179.91252723,-177.12258801,-15.35899638,42.62209772
-64.50685148,170.95590919,-54.88892837,157.73195025,179.19688304,172.15179353
-59.26329259,165.46982742,-157.72507252,-170.80305479,-70.46016720,45.38464552
-63.25748010,68.46711929,143.66132255,54.56126418,-0.51572192,3.14540664
5.40971793,1.46237517,-1.39955074,-2.08566609

>  <Name>
lig.pdb

>  <RI>
0

>  <Rbt.Current_Directory>
/home/itssahil/PROJECTS/Mol_Feturizer/New_Systems/rnas/2mxs

>  <Rbt.Executable>
rbdock ($Id: //depot/dev/client3/rdock/2013.1/src/exe/rbdock.cxx#4 $)

>  <Rbt.Library>
libRbt.so (2013.1, Build901 2013/11/27)

>  <Rbt.Parameter_File>
/export/apps/rDock/src/rDock_2013.1_src/data/scripts/dock_solv.prm

>  <Rbt.Receptor>
prm/pocket_docking_6.prm

>  <SCORE>
-38.3329

>  <SCORE.INTER>
-34.1793

>  <SCORE.INTER.CONST>
1

>  <SCORE.INTER.POLAR>
-6.03458

>  <SCORE.INTER.ROT>
9

>  <SCORE.INTER.SOLV>
12.5811

>  <SCORE.INTER.VDW>
-16.4646

>  <SCORE.INTER.norm>
-0.813792

>  <SCORE.INTRA>
-4.15368

>  <SCORE.INTRA.DIHEDRAL>
-9.78515

>  <SCORE.INTRA.DIHEDRAL.0>
30.1357

>  <SCORE.INTRA.POLAR>
-0.772047

>  <SCORE.INTRA.POLAR.0>
-0.631696

>  <SCORE.INTRA.REPUL>
0

>  <SCORE.INTRA.REPUL.0>
0

>  <SCORE.INTRA.SOLV>
-0.270442

>  <SCORE.INTRA.SOLV.lig_0>
-55.904

>  <SCORE.INTRA.VDW>
3.49908

>  <SCORE.INTRA.VDW.0>
-8.21197

>  <SCORE.INTRA.norm>
-0.0988971

>  <SCORE.RESTR>
0

>  <SCORE.RESTR.CAVITY>
0

>  <SCORE.RESTR.norm>
0

>  <SCORE.SYSTEM>
0

>  <SCORE.SYSTEM.CONST>
0

>  <SCORE.SYSTEM.DIHEDRAL>
0

>  <SCORE.SYSTEM.SOLV>
0

>  <SCORE.SYSTEM.norm>
0

>  <SCORE.heavy>
42

>  <SCORE.norm>
-0.912689

>  <RMSD>
5.518

$$$$
lig.pdb
 OpenBabel11021811453D
libRbt.so/2013.1/901 2013/11/27
 42 45  0  0  0  0  0  0  0  0999 V2000
   -0.0157    1.0143    2.2437 C   0  0  2  0  0  0  0  0  0  0  0  0
    0.3286    2.2811    1.6796 O   0  0  0  0  0  0  0  0  0  0  0  0
    1.0853   -0.0223    1.9736 C   0  0  2  0  0  0  0  0  0  0  0  0
    2.3945    0.4598    2.4512 N   0  0  0  0  0  0  0  0  0  0  0  0
    1.1427   -0.3884    0.4850 C   0  0  1  0  0  0  0  0  0  0  0  0
    2.0577   -1.4510    0.2975 O   0  0  0  0  0  0  0  0  0  0  0  0
   -0.2459   -0.8191   -0.0110 C   0  0  2  0  0  0  0  0  0  0  0  0
   -0.2074   -0.9990   -1.4137 O   0  0  0  0  0  0  0  0  0  0  0  0
   -1.3242    0.2219    0.3524 C   0  0  2  0  0  0  0  0  0  0  0  0
   -1.2686    0.5603    1.7378 O   0  0  0  0  0  0  0  0  0  0  0  0
   -2.7025   -0.3799    0.0188 C   0  0  0  0  0  0  0  0  0  0  0  0
   -2.7972   -0.7955   -1.3700 O   0  0  0  0  0  0  0  0  0  0  0  0
   -1.4828    6.1556    2.1674 C   0  0  2  0  0  0  0  0  0  0  0  0
   -2.6483    7.0454    2.3418 N   0  0  0  0  0  0  0  0  0  0  0  0
   -1.5964    5.3820    0.8515 C   0  0  0  0  0  0  0  0  0  0  0  0
   -0.4719    4.3603    0.7306 C   0  0  2  0  0  0  0  0  0  0  0  0
   -0.5317    3.6928   -0.5758 N   0  0  0  0  0  0  0  0  0  0  0  0
   -0.5955    3.3566    1.9006 C   0  0  2  0  0  0  0  0  0  0  0  0
   -0.3250    4.0837    3.1787 C   0  0  2  0  0  0  0  0  0  0  0  0
   -0.4018    3.1398    4.2311 O   0  0  0  0  0  0  0  0  0  0  0  0
   -1.3448    5.1919    3.3610 C   0  0  1  0  0  0  0  0  0  0  0  0
   -1.0854    5.9683    4.5155 O   0  0  0  0  0  0  0  0  0  0  0  0
   -0.1893    3.6081    5.5587 C   0  0  1  0  0  0  0  0  0  0  0  0
   -1.5542    3.7090    6.2430 C   0  0  2  0  0  0  0  0  0  0  0  0
   -1.5613    4.8270    7.1106 O   0  0  0  0  0  0  0  0  0  0  0  0
   -1.6485    2.3724    6.9911 C   0  0  2  0  0  0  0  0  0  0  0  0
   -2.5810    2.4079    8.0719 O   0  0  0  0  0  0  0  0  0  0  0  0
   -0.1835    2.1982    7.4097 C   0  0  2  0  0  0  0  0  0  0  0  0
    0.5646    2.6489    6.2892 O   0  0  0  0  0  0  0  0  0  0  0  0
    0.2166    0.7525    7.7266 C   0  0  0  0  0  0  0  0  0  0  0  0
    1.5821    0.6545    8.0715 O   0  0  0  0  0  0  0  0  0  0  0  0
   -2.7771    1.1574    8.7290 C   0  0  2  0  0  0  0  0  0  0  0  0
   -4.2134    1.0072    9.2531 C   0  0  2  0  0  0  0  0  0  0  0  0
   -5.1918    1.2017    8.1701 N   0  0  0  0  0  0  0  0  0  0  0  0
   -4.4776    1.9614   10.4276 C   0  0  1  0  0  0  0  0  0  0  0  0
   -5.7803    1.7187   10.9223 O   0  0  0  0  0  0  0  0  0  0  0  0
   -3.4340    1.6847   11.5231 C   0  0  2  0  0  0  0  0  0  0  0  0
   -3.6064    2.5697   12.6147 O   0  0  0  0  0  0  0  0  0  0  0  0
   -2.0012    1.7937   10.9620 C   0  0  1  0  0  0  0  0  0  0  0  0
   -1.8367    0.9945    9.7883 O   0  0  0  0  0  0  0  0  0  0  0  0
   -1.5438    3.2427   10.7381 C   0  0  0  0  0  0  0  0  0  0  0  0
   -0.1089    3.3084   10.4171 N   0  0  0  0  0  0  0  0  0  0  0  0
  1  3  1  0  0  0  0
  1  2  1  6  0  0  0
  3  4  1  6  0  0  0
  5  6  1  1  0  0  0
  5  3  1  0  0  0  0
  7  9  1  0  0  0  0
  7  5  1  0  0  0  0
  7  8  1  6  0  0  0
  9 10  1  0  0  0  0
  9 11  1  1  0  0  0
 10  1  1  0  0  0  0
 11 12  1  0  0  0  0
 13 14  1  1  0  0  0
 13 21  1  0  0  0  0
 15 13  1  0  0  0  0
 16 15  1  0  0  0  0
 16 18  1  0  0  0  0
 16 17  1  6  0  0  0
 18  2  1  6  0  0  0
 18 19  1  0  0  0  0
 19 21  1  0  0  0  0
 19 20  1  1  0  0  0
 21 22  1  1  0  0  0
 23 20  1  6  0  0  0
 23 29  1  0  0  0  0
 23 24  1  0  0  0  0
 24 26  1  0  0  0  0
 24 25  1  1  0  0  0
 26 27  1  1  0  0  0
 28 26  1  0  0  0  0
 28 30  1  6  0  0  0
 29 28  1  0  0  0  0
 30 31  1  0  0  0  0
 32 27  1  1  0  0  0
 32 40  1  0  0  0  0
 32 33  1  0  0  0  0
 33 35  1  0  0  0  0
 33 34  1  6  0  0  0
 35 37  1  0  0  0  0
 35 36  1  1  0  0  0
 37 38  1  1  0  0  0
 39 37  1  0  0  0  0
 39 41  1  6  0  0  0
 40 39  1  0  0  0  0
 42 41  1  0  0  0  0
M  END
>  <CHROM.1>
-152.35776353,-177.85436676,77.84388555,-153.80400609,52.14723193,-53.38741729
-56.17333856,-75.73578262,-23.32623102,-179.43426566,103.35045141,70.47938774
64.56470008,175.35361166,-147.46803768,178.49766191,-156.46340428,-58.14822430
69.31318248,-176.82405770,170.62577082,-73.54715616,-1.24182973,2.18154068
4.95536156,-0.58241021,-1.28067038,2.44307074

>  <Name>
lig.pdb

>  <RI>
4.11275e+07

>  <Rbt.Current_Directory>
/home/itssahil/PROJECTS/Mol_Feturizer/New_Systems/rnas/2mxs

>  <Rbt.Executable>
rbdock ($Id: //depot/dev/client3/rdock/2013.1/src/exe/rbdock.cxx#4 $)

>  <Rbt.Library>
libRbt.so (2013.1, Build901 2013/11/27)

>  <Rbt.Parameter_File>
/export/apps/rDock/src/rDock_2013.1_src/data/scripts/dock_solv.prm

>  <Rbt.Receptor>
prm/pocket_docking_8.prm

>  <SCORE>
-28.4915

>  <SCORE.INTER>
-30.1559

>  <SCORE.INTER.CONST>
1

>  <SCORE.INTER.POLAR>
-4.74907

>  <SCORE.INTER.ROT>
9

>  <SCORE.INTER.SOLV>
16.1752

>  <SCORE.INTER.VDW>
-19.2654

>  <SCORE.INTER.norm>
-0.717997

>  <SCORE.INTRA>
1.66441

>  <SCORE.INTRA.DIHEDRAL>
-4.71212

>  <SCORE.INTRA.DIHEDRAL.0>
30.1357

>  <SCORE.INTRA.POLAR>
-0.137217

>  <SCORE.INTRA.POLAR.0>
-0.631696

>  <SCORE.INTRA.REPUL>
0

>  <SCORE.INTRA.REPUL.0>
0

>  <SCORE.INTRA.SOLV>
0.330733

>  <SCORE.INTRA.SOLV.lig_0>
-55.904

>  <SCORE.INTRA.VDW>
4.32164

>  <SCORE.INTRA.VDW.0>
-8.21197

>  <SCORE.INTRA.norm>
0.0396288

>  <SCORE.RESTR>
0

>  <SCORE.RESTR.CAVITY>
0

>  <SCORE.RESTR.norm>
0

>  <SCORE.SYSTEM>
0

>  <SCORE.SYSTEM.CONST>
0

>  <SCORE.SYSTEM.DIHEDRAL>
0

>  <SCORE.SYSTEM.SOLV>
0

>  <SCORE.SYSTEM.norm>
0

>  <SCORE.heavy>
42

>  <SCORE.norm>
-0.678368

>  <RMSD>
5.526

$$$$
lig.pdb
 OpenBabel11021811453D
libRbt.so/2013.1/901 2013/11/27
 42 45  0  0  0  0  0  0  0  0999 V2000
   -0.5190    2.5729    0.9276 C   0  0  2  0  0  0  0  0  0  0  0  0
    0.7020    3.3149    0.9154 O   0  0  0  0  0  0  0  0  0  0  0  0
   -0.5090    1.5213    2.0473 C   0  0  2  0  0  0  0  0  0  0  0  0
   -0.2247    2.1425    3.3541 N   0  0  0  0  0  0  0  0  0  0  0  0
    0.4929    0.4008    1.7404 C   0  0  1  0  0  0  0  0  0  0  0  0
    0.3659   -0.6214    2.7102 O   0  0  0  0  0  0  0  0  0  0  0  0
    0.2255   -0.1849    0.3457 C   0  0  2  0  0  0  0  0  0  0  0  0
    1.2518   -1.1019    0.0180 O   0  0  0  0  0  0  0  0  0  0  0  0
    0.1511    0.9206   -0.7271 C   0  0  2  0  0  0  0  0  0  0  0  0
   -0.7485    1.9579   -0.3376 O   0  0  0  0  0  0  0  0  0  0  0  0
   -0.3316    0.2798   -2.0423 C   0  0  0  0  0  0  0  0  0  0  0  0
   -0.6388    1.2744   -3.0557 O   0  0  0  0  0  0  0  0  0  0  0  0
    1.6171    7.1011   -0.9171 C   0  0  2  0  0  0  0  0  0  0  0  0
    1.5522    8.0682   -2.0310 N   0  0  0  0  0  0  0  0  0  0  0  0
    2.2982    5.8086   -1.3737 C   0  0  0  0  0  0  0  0  0  0  0  0
    2.2434    4.7552   -0.2736 C   0  0  2  0  0  0  0  0  0  0  0  0
    2.9838    3.5553   -0.6833 N   0  0  0  0  0  0  0  0  0  0  0  0
    0.7597    4.4447    0.0325 C   0  0  2  0  0  0  0  0  0  0  0  0
    0.1343    5.6643    0.6299 C   0  0  2  0  0  0  0  0  0  0  0  0
   -1.2098    5.3459    0.9405 O   0  0  0  0  0  0  0  0  0  0  0  0
    0.2111    6.8130   -0.3580 C   0  0  1  0  0  0  0  0  0  0  0  0
   -0.2921    8.0180    0.1879 O   0  0  0  0  0  0  0  0  0  0  0  0
   -1.9465    6.2756    1.7279 C   0  0  1  0  0  0  0  0  0  0  0  0
   -3.0287    5.4975    2.4795 C   0  0  2  0  0  0  0  0  0  0  0  0
   -4.1956    6.2924    2.5752 O   0  0  0  0  0  0  0  0  0  0  0  0
   -2.3674    5.2422    3.8406 C   0  0  2  0  0  0  0  0  0  0  0  0
   -3.3145    4.9655    4.8727 O   0  0  0  0  0  0  0  0  0  0  0  0
   -1.5941    6.5556    4.0109 C   0  0  2  0  0  0  0  0  0  0  0  0
   -1.0955    6.8478    2.7130 O   0  0  0  0  0  0  0  0  0  0  0  0
   -0.4170    6.4747    4.9899 C   0  0  0  0  0  0  0  0  0  0  0  0
    0.2695    7.7050    5.0806 O   0  0  0  0  0  0  0  0  0  0  0  0
   -4.0403    3.7496    4.7031 C   0  0  2  0  0  0  0  0  0  0  0  0
   -5.4279    3.8171    5.3587 C   0  0  2  0  0  0  0  0  0  0  0  0
   -6.1921    4.9709    4.8557 N   0  0  0  0  0  0  0  0  0  0  0  0
   -5.3167    3.8410    6.8906 C   0  0  1  0  0  0  0  0  0  0  0  0
   -6.6206    3.8158    7.4384 O   0  0  0  0  0  0  0  0  0  0  0  0
   -4.5282    2.5993    7.3404 C   0  0  2  0  0  0  0  0  0  0  0  0
   -4.3592    2.5947    8.7460 O   0  0  0  0  0  0  0  0  0  0  0  0
   -3.1594    2.5274    6.6327 C   0  0  1  0  0  0  0  0  0  0  0  0
   -3.2965    2.6459    5.2148 O   0  0  0  0  0  0  0  0  0  0  0  0
   -2.1309    3.5200    7.1945 C   0  0  0  0  0  0  0  0  0  0  0  0
   -0.8386    3.4039    6.4997 N   0  0  0  0  0  0  0  0  0  0  0  0
  1  3  1  0  0  0  0
  1  2  1  6  0  0  0
  3  4  1  1  0  0  0
  5  6  1  1  0  0  0
  5  3  1  0  0  0  0
  7  9  1  0  0  0  0
  7  5  1  0  0  0  0
  7  8  1  6  0  0  0
  9 10  1  0  0  0  0
  9 11  1  6  0  0  0
 10  1  1  0  0  0  0
 11 12  1  0  0  0  0
 13 14  1  6  0  0  0
 13 21  1  0  0  0  0
 15 13  1  0  0  0  0
 16 15  1  0  0  0  0
 16 18  1  0  0  0  0
 16 17  1  6  0  0  0
 18  2  1  1  0  0  0
 18 19  1  0  0  0  0
 19 21  1  0  0  0  0
 19 20  1  6  0  0  0
 21 22  1  1  0  0  0
 23 20  1  6  0  0  0
 23 29  1  0  0  0  0
 23 24  1  0  0  0  0
 24 26  1  0  0  0  0
 24 25  1  1  0  0  0
 26 27  1  1  0  0  0
 28 26  1  0  0  0  0
 28 30  1  1  0  0  0
 29 28  1  0  0  0  0
 30 31  1  0  0  0  0
 32 27  1  1  0  0  0
 32 40  1  0  0  0  0
 32 33  1  0  0  0  0
 33 35  1  0  0  0  0
 33 34  1  6  0  0  0
 35 37  1  0  0  0  0
 35 36  1  1  0  0  0
 37 38  1  1  0  0  0
 39 37  1  0  0  0  0
 39 41  1  1  0  0  0
 40 39  1  0  0  0  0
 42 41  1  0  0  0  0
M  END
>  <CHROM.1>
-157.54774173,-172.19232981,59.23354349,-65.03885273,178.64261896,64.76384670
170.78727702,-23.22483971,70.69470356,169.51875621,-153.07313005,151.71278497
69.70262167,65.73115209,-151.87451060,178.74509814,60.27062144,-56.33048465
-70.22406026,172.26996131,179.34615943,-66.57555441,-1.26669930,3.94229624
2.51668846,0.00789796,-0.94894863,3.11190306

>  <Name>
lig.pdb

>  <RI>
0

>  <Rbt.Current_Directory>
/home/itssahil/PROJECTS/Mol_Feturizer/New_Systems/rnas/2mxs

>  <Rbt.Executable>
rbdock ($Id: //depot/dev/client3/rdock/2013.1/src/exe/rbdock.cxx#4 $)

>  <Rbt.Library>
libRbt.so (2013.1, Build901 2013/11/27)

>  <Rbt.Parameter_File>
/export/apps/rDock/src/rDock_2013.1_src/data/scripts/dock_solv.prm

>  <Rbt.Receptor>
prm/pocket_docking_6.prm

>  <SCORE>
-43.7965

>  <SCORE.INTER>
-41.038

>  <SCORE.INTER.CONST>
1

>  <SCORE.INTER.POLAR>
-3.9703

>  <SCORE.INTER.ROT>
9

>  <SCORE.INTER.SOLV>
21.4178

>  <SCORE.INTER.VDW>
-30.8636

>  <SCORE.INTER.norm>
-0.977096

>  <SCORE.INTRA>
-2.75849

>  <SCORE.INTRA.DIHEDRAL>
-12.1742

>  <SCORE.INTRA.DIHEDRAL.0>
30.1357

>  <SCORE.INTRA.POLAR>
0.589491

>  <SCORE.INTRA.POLAR.0>
-0.631696

>  <SCORE.INTRA.REPUL>
0

>  <SCORE.INTRA.REPUL.0>
0

>  <SCORE.INTRA.SOLV>
-0.9339

>  <SCORE.INTRA.SOLV.lig_0>
-55.904

>  <SCORE.INTRA.VDW>
1.79128

>  <SCORE.INTRA.VDW.0>
-8.21197

>  <SCORE.INTRA.norm>
-0.0656783

>  <SCORE.RESTR>
0

>  <SCORE.RESTR.CAVITY>
0

>  <SCORE.RESTR.norm>
0

>  <SCORE.SYSTEM>
0

>  <SCORE.SYSTEM.CONST>
0

>  <SCORE.SYSTEM.DIHEDRAL>
0

>  <SCORE.SYSTEM.SOLV>
0

>  <SCORE.SYSTEM.norm>
0

>  <SCORE.heavy>
42

>  <SCORE.norm>
-1.04277

>  <RMSD>
5.563

$$$$
lig.pdb
 OpenBabel11021811453D
libRbt.so/2013.1/901 2013/11/27
 42 45  0  0  0  0  0  0  0  0999 V2000
   -4.4052    0.5450    2.2785 C   0  0  2  0  0  0  0  0  0  0  0  0
   -5.1494   -0.6048    2.6852 O   0  0  0  0  0  0  0  0  0  0  0  0
   -4.8620    1.0312    0.8948 C   0  0  2  0  0  0  0  0  0  0  0  0
   -6.3160    1.2760    0.8735 N   0  0  0  0  0  0  0  0  0  0  0  0
   -4.4548    0.0363   -0.1997 C   0  0  1  0  0  0  0  0  0  0  0  0
   -4.7538    0.5858   -1.4687 O   0  0  0  0  0  0  0  0  0  0  0  0
   -2.9501   -0.2609   -0.1155 C   0  0  2  0  0  0  0  0  0  0  0  0
   -2.6251   -1.2945   -1.0253 O   0  0  0  0  0  0  0  0  0  0  0  0
   -2.5336   -0.6714    1.3115 C   0  0  2  0  0  0  0  0  0  0  0  0
   -3.0072    0.2668    2.2772 O   0  0  0  0  0  0  0  0  0  0  0  0
   -0.9953   -0.7376    1.3611 C   0  0  0  0  0  0  0  0  0  0  0  0
   -0.3825    0.5506    1.0870 O   0  0  0  0  0  0  0  0  0  0  0  0
   -5.0349   -2.6681    6.4616 C   0  0  2  0  0  0  0  0  0  0  0  0
   -4.3239   -3.3454    7.5643 N   0  0  0  0  0  0  0  0  0  0  0  0
   -4.7958   -3.4059    5.1419 C   0  0  0  0  0  0  0  0  0  0  0  0
   -5.4083   -2.6362    3.9778 C   0  0  2  0  0  0  0  0  0  0  0  0
   -5.2600   -3.3987    2.7318 N   0  0  0  0  0  0  0  0  0  0  0  0
   -4.7259   -1.2510    3.8945 C   0  0  2  0  0  0  0  0  0  0  0  0
   -5.0927   -0.4684    5.1146 C   0  0  2  0  0  0  0  0  0  0  0  0
   -4.4930    0.8088    4.9986 O   0  0  0  0  0  0  0  0  0  0  0  0
   -4.6015   -1.1940    6.3529 C   0  0  1  0  0  0  0  0  0  0  0  0
   -4.9953   -0.5390    7.5441 O   0  0  0  0  0  0  0  0  0  0  0  0
   -4.4676    1.6371    6.1562 C   0  0  1  0  0  0  0  0  0  0  0  0
   -3.0796    1.5145    6.7885 C   0  0  2  0  0  0  0  0  0  0  0  0
   -3.2005    1.5699    8.1975 O   0  0  0  0  0  0  0  0  0  0  0  0
   -2.3421    2.7271    6.2048 C   0  0  2  0  0  0  0  0  0  0  0  0
   -1.2109    3.1150    6.9850 O   0  0  0  0  0  0  0  0  0  0  0  0
   -3.4871    3.7472    6.1785 C   0  0  2  0  0  0  0  0  0  0  0  0
   -4.6244    2.9978    5.7742 O   0  0  0  0  0  0  0  0  0  0  0  0
   -3.2797    4.9063    5.1967 C   0  0  0  0  0  0  0  0  0  0  0  0
   -2.3871    5.8710    5.7121 O   0  0  0  0  0  0  0  0  0  0  0  0
   -0.0592    2.2918    6.8121 C   0  0  2  0  0  0  0  0  0  0  0  0
    0.4637    1.7532    8.1525 C   0  0  2  0  0  0  0  0  0  0  0  0
   -0.5978    1.0413    8.8836 N   0  0  0  0  0  0  0  0  0  0  0  0
    1.0742    2.8781    9.0018 C   0  0  1  0  0  0  0  0  0  0  0  0
    1.6140    2.3119   10.1803 O   0  0  0  0  0  0  0  0  0  0  0  0
    2.1848    3.5577    8.1828 C   0  0  2  0  0  0  0  0  0  0  0  0
    2.7537    4.6338    8.9058 O   0  0  0  0  0  0  0  0  0  0  0  0
    1.6476    4.0468    6.8221 C   0  0  1  0  0  0  0  0  0  0  0  0
    0.9665    3.0028    6.1225 O   0  0  0  0  0  0  0  0  0  0  0  0
    0.7938    5.3192    6.9264 C   0  0  0  0  0  0  0  0  0  0  0  0
    0.6162    5.9550    5.6109 N   0  0  0  0  0  0  0  0  0  0  0  0
  1  3  1  0  0  0  0
  1  2  1  6  0  0  0
  3  4  1  1  0  0  0
  5  6  1  6  0  0  0
  5  3  1  0  0  0  0
  7  9  1  0  0  0  0
  7  5  1  0  0  0  0
  7  8  1  6  0  0  0
  9 10  1  0  0  0  0
  9 11  1  6  0  0  0
 10  1  1  0  0  0  0
 11 12  1  0  0  0  0
 13 14  1  1  0  0  0
 13 21  1  0  0  0  0
 15 13  1  0  0  0  0
 16 15  1  0  0  0  0
 16 18  1  0  0  0  0
 16 17  1  6  0  0  0
 18  2  1  6  0  0  0
 18 19  1  0  0  0  0
 19 21  1  0  0  0  0
 19 20  1  6  0  0  0
 21 22  1  1  0  0  0
 23 20  1  6  0  0  0
 23 29  1  0  0  0  0
 23 24  1  0  0  0  0
 24 26  1  0  0  0  0
 24 25  1  1  0  0  0
 26 27  1  1  0  0  0
 28 26  1  0  0  0  0
 28 30  1  6  0  0  0
 29 28  1  0  0  0  0
 30 31  1  0  0  0  0
 32 27  1  1  0  0  0
 32 40  1  0  0  0  0
 32 33  1  0  0  0  0
 33 35  1  0  0  0  0
 33 34  1  1  0  0  0
 35 37  1  0  0  0  0
 35 36  1  1  0  0  0
 37 38  1  1  0  0  0
 39 37  1  0  0  0  0
 39 41  1  1  0  0  0
 40 39  1  0  0  0  0
 42 41  1  0  0  0  0
M  END
>  <CHROM.1>
-166.32268988,173.39229528,42.43363970,-88.24969143,176.83051555,-58.83345243
61.94870556,147.40759158,171.14127280,-167.35576130,99.27523997,-58.85626342
59.08173105,77.36327010,-126.01966845,-78.01380612,-152.88969589,80.60287192
-176.60941225,-53.51041542,164.28640185,-13.82691871,-2.55658993,1.15104595
4.91700955,-2.54114965,0.84980076,1.76656865

>  <Name>
lig.pdb

>  <RI>
0

>  <Rbt.Current_Directory>
/home/itssahil/PROJECTS/Mol_Feturizer/New_Systems/rnas/2mxs

>  <Rbt.Executable>
rbdock ($Id: //depot/dev/client3/rdock/2013.1/src/exe/rbdock.cxx#4 $)

>  <Rbt.Library>
libRbt.so (2013.1, Build901 2013/11/27)

>  <Rbt.Parameter_File>
/export/apps/rDock/src/rDock_2013.1_src/data/scripts/dock_solv.prm

>  <Rbt.Receptor>
prm/pocket_docking_6.prm

>  <SCORE>
-35.9899

>  <SCORE.INTER>
-34.9551

>  <SCORE.INTER.CONST>
1

>  <SCORE.INTER.POLAR>
-5.18231

>  <SCORE.INTER.ROT>
9

>  <SCORE.INTER.SOLV>
17.5538

>  <SCORE.INTER.VDW>
-21.4803

>  <SCORE.INTER.norm>
-0.832264

>  <SCORE.INTRA>
-1.03478

>  <SCORE.INTRA.DIHEDRAL>
1.70685

>  <SCORE.INTRA.DIHEDRAL.0>
30.1357

>  <SCORE.INTRA.POLAR>
-2.06639

>  <SCORE.INTRA.POLAR.0>
-0.631696

>  <SCORE.INTRA.REPUL>
0

>  <SCORE.INTRA.REPUL.0>
0

>  <SCORE.INTRA.SOLV>
1.22149

>  <SCORE.INTRA.SOLV.lig_0>
-55.904

>  <SCORE.INTRA.VDW>
4.52676

>  <SCORE.INTRA.VDW.0>
-8.21197

>  <SCORE.INTRA.norm>
-0.0246377

>  <SCORE.RESTR>
0

>  <SCORE.RESTR.CAVITY>
0

>  <SCORE.RESTR.norm>
0

>  <SCORE.SYSTEM>
0

>  <SCORE.SYSTEM.CONST>
0

>  <SCORE.SYSTEM.DIHEDRAL>
0

>  <SCORE.SYSTEM.SOLV>
0

>  <SCORE.SYSTEM.norm>
0

>  <SCORE.heavy>
42

>  <SCORE.norm>
-0.856901

>  <RMSD>
5.565

$$$$
lig.pdb
 OpenBabel11021811453D
libRbt.so/2013.1/901 2013/11/27
 42 45  0  0  0  0  0  0  0  0999 V2000
    0.1782    4.1247    1.0145 C   0  0  2  0  0  0  0  0  0  0  0  0
    0.6170    4.8464   -0.1379 O   0  0  0  0  0  0  0  0  0  0  0  0
   -1.2802    3.6702    0.8530 C   0  0  2  0  0  0  0  0  0  0  0  0
   -1.4581    2.8939   -0.3881 N   0  0  0  0  0  0  0  0  0  0  0  0
   -2.2375    4.8682    0.8953 C   0  0  1  0  0  0  0  0  0  0  0  0
   -3.5733    4.4022    0.8979 O   0  0  0  0  0  0  0  0  0  0  0  0
   -1.9878    5.7044    2.1595 C   0  0  2  0  0  0  0  0  0  0  0  0
   -2.7660    6.8845    2.1019 O   0  0  0  0  0  0  0  0  0  0  0  0
   -0.4970    6.0689    2.3112 C   0  0  2  0  0  0  0  0  0  0  0  0
    0.3316    4.9130    2.1922 O   0  0  0  0  0  0  0  0  0  0  0  0
   -0.2995    6.7102    3.6979 C   0  0  0  0  0  0  0  0  0  0  0  0
    0.6267    5.9550    4.5237 O   0  0  0  0  0  0  0  0  0  0  0  0
    4.2586    4.0050   -2.2738 C   0  0  2  0  0  0  0  0  0  0  0  0
    5.7283    4.0186   -2.4156 N   0  0  0  0  0  0  0  0  0  0  0  0
    3.7239    5.4331   -2.1403 C   0  0  0  0  0  0  0  0  0  0  0  0
    2.2272    5.4213   -1.8529 C   0  0  2  0  0  0  0  0  0  0  0  0
    1.7057    6.7936   -1.8242 N   0  0  0  0  0  0  0  0  0  0  0  0
    1.9922    4.6837   -0.5141 C   0  0  2  0  0  0  0  0  0  0  0  0
    2.3655    3.2470   -0.6934 C   0  0  2  0  0  0  0  0  0  0  0  0
    2.1039    2.5825    0.5291 O   0  0  0  0  0  0  0  0  0  0  0  0
    3.8313    3.1439   -1.0704 C   0  0  1  0  0  0  0  0  0  0  0  0
    4.2194    1.8088   -1.3350 O   0  0  0  0  0  0  0  0  0  0  0  0
    2.4711    1.2107    0.6299 C   0  0  1  0  0  0  0  0  0  0  0  0
    2.1622    0.7475    2.0552 C   0  0  2  0  0  0  0  0  0  0  0  0
    3.1488   -0.1781    2.4707 O   0  0  0  0  0  0  0  0  0  0  0  0
    0.7739    0.1116    1.9026 C   0  0  2  0  0  0  0  0  0  0  0  0
    0.4676   -0.8068    2.9521 O   0  0  0  0  0  0  0  0  0  0  0  0
    0.9233   -0.5230    0.5144 C   0  0  2  0  0  0  0  0  0  0  0  0
    1.6570    0.4327   -0.2385 O   0  0  0  0  0  0  0  0  0  0  0  0
   -0.4042   -0.8058   -0.1985 C   0  0  0  0  0  0  0  0  0  0  0  0
   -0.9317    0.3591   -0.7967 O   0  0  0  0  0  0  0  0  0  0  0  0
    1.1774   -0.5784    4.1679 C   0  0  2  0  0  0  0  0  0  0  0  0
    0.5703   -1.3648    5.3396 C   0  0  2  0  0  0  0  0  0  0  0  0
    0.4947   -2.8015    5.0261 N   0  0  0  0  0  0  0  0  0  0  0  0
   -0.8040   -0.8019    5.7322 C   0  0  1  0  0  0  0  0  0  0  0  0
   -1.2733   -1.5060    6.8657 O   0  0  0  0  0  0  0  0  0  0  0  0
   -0.6409    0.6910    6.0650 C   0  0  2  0  0  0  0  0  0  0  0  0
   -1.8902    1.2708    6.3930 O   0  0  0  0  0  0  0  0  0  0  0  0
    0.0145    1.4502    4.8930 C   0  0  1  0  0  0  0  0  0  0  0  0
    1.2225    0.8148    4.4682 O   0  0  0  0  0  0  0  0  0  0  0  0
   -0.9438    1.7032    3.7197 C   0  0  0  0  0  0  0  0  0  0  0  0
   -2.0164    2.6383    4.0957 N   0  0  0  0  0  0  0  0  0  0  0  0
  1  3  1  0  0  0  0
  1  2  1  6  0  0  0
  3  4  1  6  0  0  0
  5  6  1  1  0  0  0
  5  3  1  0  0  0  0
  7  9  1  0  0  0  0
  7  5  1  0  0  0  0
  7  8  1  6  0  0  0
  9 10  1  0  0  0  0
  9 11  1  1  0  0  0
 10  1  1  0  0  0  0
 11 12  1  0  0  0  0
 13 14  1  1  0  0  0
 13 21  1  0  0  0  0
 15 13  1  0  0  0  0
 16 15  1  0  0  0  0
 16 18  1  0  0  0  0
 16 17  1  1  0  0  0
 18  2  1  6  0  0  0
 18 19  1  0  0  0  0
 19 21  1  0  0  0  0
 19 20  1  1  0  0  0
 21 22  1  6  0  0  0
 23 20  1  1  0  0  0
 23 29  1  0  0  0  0
 23 24  1  0  0  0  0
 24 26  1  0  0  0  0
 24 25  1  6  0  0  0
 26 27  1  1  0  0  0
 28 26  1  0  0  0  0
 28 30  1  6  0  0  0
 29 28  1  0  0  0  0
 30 31  1  0  0  0  0
 32 27  1  6  0  0  0
 32 40  1  0  0  0  0
 32 33  1  0  0  0  0
 33 35  1  0  0  0  0
 33 34  1  6  0  0  0
 35 37  1  0  0  0  0
 35 36  1  1  0  0  0
 37 38  1  6  0  0  0
 39 37  1  0  0  0  0
 39 41  1  6  0  0  0
 40 39  1  0  0  0  0
 42 41  1  0  0  0  0
M  END
>  <CHROM.1>
174.25148727,-145.58757462,-140.20132687,68.82678380,-63.08254450,-47.54915266
119.39729525,57.95948460,32.32685227,-175.71893761,176.87061226,69.39090585
-59.40134741,24.44238031,166.27233711,80.04676416,68.01575196,101.11959423
172.39759041,77.33600496,66.89944908,-155.89077950,0.59277432,2.47675038
1.74116122,1.09983732,0.77085165,-0.54855587

>  <Name>
lig.pdb

>  <RI>
0

>  <Rbt.Current_Directory>
/home/itssahil/PROJECTS/Mol_Feturizer/New_Systems/rnas/2mxs

>  <Rbt.Executable>
rbdock ($Id: //depot/dev/client3/rdock/2013.1/src/exe/rbdock.cxx#4 $)

>  <Rbt.Library>
libRbt.so (2013.1, Build901 2013/11/27)

>  <Rbt.Parameter_File>
/export/apps/rDock/src/rDock_2013.1_src/data/scripts/dock_solv.prm

>  <Rbt.Receptor>
prm/blind_docking_80.prm

>  <SCORE>
-16.6118

>  <SCORE.INTER>
-38.9239

>  <SCORE.INTER.CONST>
1

>  <SCORE.INTER.POLAR>
-4.5034

>  <SCORE.INTER.ROT>
9

>  <SCORE.INTER.SOLV>
25.2817

>  <SCORE.INTER.VDW>
-28.9652

>  <SCORE.INTER.norm>
-0.926759

>  <SCORE.INTRA>
7.5667

>  <SCORE.INTRA.DIHEDRAL>
-0.72905

>  <SCORE.INTRA.DIHEDRAL.0>
30.1357

>  <SCORE.INTRA.POLAR>
-1.06817

>  <SCORE.INTRA.POLAR.0>
-0.631696

>  <SCORE.INTRA.REPUL>
0.0696277

>  <SCORE.INTRA.REPUL.0>
0

>  <SCORE.INTRA.SOLV>
2.3736

>  <SCORE.INTRA.SOLV.lig_0>
-55.904

>  <SCORE.INTRA.VDW>
10.0281

>  <SCORE.INTRA.VDW.0>
-8.21197

>  <SCORE.INTRA.norm>
0.18016

>  <SCORE.RESTR>
14.7454

>  <SCORE.RESTR.CAVITY>
14.7454

>  <SCORE.RESTR.norm>
0.35108

>  <SCORE.SYSTEM>
0

>  <SCORE.SYSTEM.CONST>
0

>  <SCORE.SYSTEM.DIHEDRAL>
0

>  <SCORE.SYSTEM.SOLV>
0

>  <SCORE.SYSTEM.norm>
0

>  <SCORE.heavy>
42

>  <SCORE.norm>
-0.395519

>  <RMSD>
5.569

$$$$
lig.pdb
 OpenBabel11021811453D
libRbt.so/2013.1/901 2013/11/27
 42 45  0  0  0  0  0  0  0  0999 V2000
    0.1484    4.2292    1.2808 C   0  0  2  0  0  0  0  0  0  0  0  0
    0.5084    4.8952    0.0691 O   0  0  0  0  0  0  0  0  0  0  0  0
   -1.2765    3.6623    1.1910 C   0  0  2  0  0  0  0  0  0  0  0  0
   -1.4250    2.7882    0.0127 N   0  0  0  0  0  0  0  0  0  0  0  0
   -2.3168    4.7898    1.1750 C   0  0  1  0  0  0  0  0  0  0  0  0
   -3.6150    4.2320    1.2463 O   0  0  0  0  0  0  0  0  0  0  0  0
   -2.1006    5.7303    2.3702 C   0  0  2  0  0  0  0  0  0  0  0  0
   -2.9632    6.8452    2.2510 O   0  0  0  0  0  0  0  0  0  0  0  0
   -0.6372    6.2091    2.4556 C   0  0  2  0  0  0  0  0  0  0  0  0
    0.2701    5.1089    2.3957 O   0  0  0  0  0  0  0  0  0  0  0  0
   -0.4562    6.9608    3.7880 C   0  0  0  0  0  0  0  0  0  0  0  0
   -1.1845    8.2175    3.8113 O   0  0  0  0  0  0  0  0  0  0  0  0
    4.1136    4.1564   -2.1642 C   0  0  2  0  0  0  0  0  0  0  0  0
    5.5766    4.2246   -2.3520 N   0  0  0  0  0  0  0  0  0  0  0  0
    3.5270    5.5648   -2.0395 C   0  0  0  0  0  0  0  0  0  0  0  0
    2.0415    5.5000   -1.7053 C   0  0  2  0  0  0  0  0  0  0  0  0
    1.4671    6.8511   -1.6847 N   0  0  0  0  0  0  0  0  0  0  0  0
    1.8769    4.7793   -0.3469 C   0  0  2  0  0  0  0  0  0  0  0  0
    2.3012    3.3552   -0.5121 C   0  0  2  0  0  0  0  0  0  0  0  0
    2.1036    2.7043    0.7296 O   0  0  0  0  0  0  0  0  0  0  0  0
    3.7577    3.3022   -0.9329 C   0  0  1  0  0  0  0  0  0  0  0  0
    4.1902    1.9786   -1.1856 O   0  0  0  0  0  0  0  0  0  0  0  0
    2.3313    1.3001    0.7857 C   0  0  1  0  0  0  0  0  0  0  0  0
    1.9917    0.8276    2.2010 C   0  0  2  0  0  0  0  0  0  0  0  0
    2.8839   -0.2047    2.5765 O   0  0  0  0  0  0  0  0  0  0  0  0
    0.5448    0.3396    2.0483 C   0  0  2  0  0  0  0  0  0  0  0  0
    0.1580   -0.5745    3.0747 O   0  0  0  0  0  0  0  0  0  0  0  0
    0.6153   -0.2647    0.6405 C   0  0  2  0  0  0  0  0  0  0  0  0
    1.4340    0.6345   -0.0940 O   0  0  0  0  0  0  0  0  0  0  0  0
   -0.7412   -0.3908   -0.0628 C   0  0  0  0  0  0  0  0  0  0  0  0
   -0.5927   -0.7682   -1.4151 O   0  0  0  0  0  0  0  0  0  0  0  0
    1.1045   -0.7161    4.1322 C   0  0  2  0  0  0  0  0  0  0  0  0
    0.5524   -1.5735    5.2812 C   0  0  2  0  0  0  0  0  0  0  0  0
    0.1002   -2.8853    4.7887 N   0  0  0  0  0  0  0  0  0  0  0  0
   -0.5677   -0.8384    6.0327 C   0  0  1  0  0  0  0  0  0  0  0  0
   -0.9759   -1.6359    7.1273 O   0  0  0  0  0  0  0  0  0  0  0  0
   -0.0156    0.5072    6.5333 C   0  0  2  0  0  0  0  0  0  0  0  0
   -1.0235    1.2464    7.1983 O   0  0  0  0  0  0  0  0  0  0  0  0
    0.5765    1.3289    5.3699 C   0  0  1  0  0  0  0  0  0  0  0  0
    1.5153    0.5621    4.6122 O   0  0  0  0  0  0  0  0  0  0  0  0
   -0.4917    1.9746    4.4751 C   0  0  0  0  0  0  0  0  0  0  0  0
   -1.2654    2.9884    5.2100 N   0  0  0  0  0  0  0  0  0  0  0  0
  1  3  1  0  0  0  0
  1  2  1  6  0  0  0
  3  4  1  6  0  0  0
  5  6  1  1  0  0  0
  5  3  1  0  0  0  0
  7  9  1  0  0  0  0
  7  5  1  0  0  0  0
  7  8  1  6  0  0  0
  9 10  1  0  0  0  0
  9 11  1  1  0  0  0
 10  1  1  0  0  0  0
 11 12  1  0  0  0  0
 13 14  1  1  0  0  0
 13 21  1  0  0  0  0
 15 13  1  0  0  0  0
 16 15  1  0  0  0  0
 16 18  1  0  0  0  0
 16 17  1  1  0  0  0
 18  2  1  6  0  0  0
 18 19  1  0  0  0  0
 19 21  1  0  0  0  0
 19 20  1  1  0  0  0
 21 22  1  6  0  0  0
 23 20  1  1  0  0  0
 23 29  1  0  0  0  0
 23 24  1  0  0  0  0
 24 26  1  0  0  0  0
 24 25  1  6  0  0  0
 26 27  1  1  0  0  0
 28 26  1  0  0  0  0
 28 30  1  6  0  0  0
 29 28  1  0  0  0  0
 30 31  1  0  0  0  0
 32 27  1  6  0  0  0
 32 40  1  0  0  0  0
 32 33  1  0  0  0  0
 33 35  1  0  0  0  0
 33 34  1  6  0  0  0
 35 37  1  0  0  0  0
 35 36  1  1  0  0  0
 37 38  1  6  0  0  0
 39 37  1  0  0  0  0
 39 41  1  6  0  0  0
 40 39  1  0  0  0  0
 42 41  1  0  0  0  0
M  END
>  <CHROM.1>
177.03173619,-144.28384321,-87.38941476,65.23822537,168.21513006,-60.99865169
-68.43977424,-64.11012965,34.83956136,174.68864561,-177.44236930,-63.13394981
68.80961669,8.21102864,172.88798910,171.45060123,-44.36163780,140.26770683
-169.01437477,65.42037834,65.40445320,-166.98976848,0.54344977,2.57154733
1.92570490,1.18321070,0.86948699,-0.52915983

>  <Name>
lig.pdb

>  <RI>
0

>  <Rbt.Current_Directory>
/home/itssahil/PROJECTS/Mol_Feturizer/New_Systems/rnas/2mxs

>  <Rbt.Executable>
rbdock ($Id: //depot/dev/client3/rdock/2013.1/src/exe/rbdock.cxx#4 $)

>  <Rbt.Library>
libRbt.so (2013.1, Build901 2013/11/27)

>  <Rbt.Parameter_File>
/export/apps/rDock/src/rDock_2013.1_src/data/scripts/dock_solv.prm

>  <Rbt.Receptor>
prm/blind_docking_80.prm

>  <SCORE>
-23.9804

>  <SCORE.INTER>
-46.2952

>  <SCORE.INTER.CONST>
1

>  <SCORE.INTER.POLAR>
-4.49839

>  <SCORE.INTER.ROT>
9

>  <SCORE.INTER.SOLV>
26.5636

>  <SCORE.INTER.VDW>
-34.3234

>  <SCORE.INTER.norm>
-1.10227

>  <SCORE.INTRA>
8.50173

>  <SCORE.INTRA.DIHEDRAL>
-7.88545

>  <SCORE.INTRA.DIHEDRAL.0>
30.1357

>  <SCORE.INTRA.POLAR>
-0.446629

>  <SCORE.INTRA.POLAR.0>
-0.631696

>  <SCORE.INTRA.REPUL>
0

>  <SCORE.INTRA.REPUL.0>
0

>  <SCORE.INTRA.SOLV>
1.45335

>  <SCORE.INTRA.SOLV.lig_0>
-55.904

>  <SCORE.INTRA.VDW>
13.2363

>  <SCORE.INTRA.VDW.0>
-8.21197

>  <SCORE.INTRA.norm>
0.202422

>  <SCORE.RESTR>
13.813

>  <SCORE.RESTR.CAVITY>
13.813

>  <SCORE.RESTR.norm>
0.328882

>  <SCORE.SYSTEM>
0

>  <SCORE.SYSTEM.CONST>
0

>  <SCORE.SYSTEM.DIHEDRAL>
0

>  <SCORE.SYSTEM.SOLV>
0

>  <SCORE.SYSTEM.norm>
0

>  <SCORE.heavy>
42

>  <SCORE.norm>
-0.570963

>  <RMSD>
5.571

$$$$
lig.pdb
 OpenBabel11021811453D
libRbt.so/2013.1/901 2013/11/27
 42 45  0  0  0  0  0  0  0  0999 V2000
    1.8145    2.0573   -1.2522 C   0  0  2  0  0  0  0  0  0  0  0  0
    1.2067    3.1808   -0.6120 O   0  0  0  0  0  0  0  0  0  0  0  0
    0.7483    1.1028   -1.8105 C   0  0  2  0  0  0  0  0  0  0  0  0
   -0.1824    1.8145   -2.7058 N   0  0  0  0  0  0  0  0  0  0  0  0
   -0.0081    0.3994   -0.6762 C   0  0  1  0  0  0  0  0  0  0  0  0
   -0.8709   -0.5793   -1.2232 O   0  0  0  0  0  0  0  0  0  0  0  0
    0.9819   -0.2752    0.2854 C   0  0  2  0  0  0  0  0  0  0  0  0
    0.2783   -0.7802    1.4040 O   0  0  0  0  0  0  0  0  0  0  0  0
    2.0730    0.7081    0.7553 C   0  0  2  0  0  0  0  0  0  0  0  0
    2.6815    1.3716   -0.3523 O   0  0  0  0  0  0  0  0  0  0  0  0
    3.1368   -0.0918    1.5310 C   0  0  0  0  0  0  0  0  0  0  0  0
    4.2929   -0.4060    0.7093 O   0  0  0  0  0  0  0  0  0  0  0  0
    2.2352    7.3089   -1.2693 C   0  0  2  0  0  0  0  0  0  0  0  0
    2.4855    8.4750   -2.1399 N   0  0  0  0  0  0  0  0  0  0  0  0
    3.2165    6.1805   -1.5963 C   0  0  0  0  0  0  0  0  0  0  0  0
    2.8755    4.9253   -0.8019 C   0  0  2  0  0  0  0  0  0  0  0  0
    3.8786    3.8817   -1.0475 N   0  0  0  0  0  0  0  0  0  0  0  0
    1.4529    4.4670   -1.1988 C   0  0  2  0  0  0  0  0  0  0  0  0
    0.4760    5.4992   -0.7342 C   0  0  2  0  0  0  0  0  0  0  0  0
   -0.8209    5.0409   -1.0698 O   0  0  0  0  0  0  0  0  0  0  0  0
    0.7787    6.8262   -1.4039 C   0  0  1  0  0  0  0  0  0  0  0  0
   -0.0647    7.8621   -0.9364 O   0  0  0  0  0  0  0  0  0  0  0  0
   -1.8573    5.2234   -0.1109 C   0  0  1  0  0  0  0  0  0  0  0  0
   -1.6532    4.1913    1.0002 C   0  0  2  0  0  0  0  0  0  0  0  0
   -2.9144    3.7502    1.4667 O   0  0  0  0  0  0  0  0  0  0  0  0
   -0.8732    4.9895    2.0536 C   0  0  2  0  0  0  0  0  0  0  0  0
   -0.9721    4.4244    3.3611 O   0  0  0  0  0  0  0  0  0  0  0  0
   -1.5380    6.3622    1.8930 C   0  0  2  0  0  0  0  0  0  0  0  0
   -1.7303    6.5047    0.4926 O   0  0  0  0  0  0  0  0  0  0  0  0
   -0.6950    7.5372    2.4019 C   0  0  0  0  0  0  0  0  0  0  0  0
   -1.4190    8.7488    2.3704 O   0  0  0  0  0  0  0  0  0  0  0  0
   -0.8964    5.3711    4.4251 C   0  0  2  0  0  0  0  0  0  0  0  0
   -0.7480    4.6839    5.7910 C   0  0  2  0  0  0  0  0  0  0  0  0
    0.4107    3.7754    5.7999 N   0  0  0  0  0  0  0  0  0  0  0  0
   -2.0393    3.9521    6.1866 C   0  0  1  0  0  0  0  0  0  0  0  0
   -1.8740    3.4142    7.4844 O   0  0  0  0  0  0  0  0  0  0  0  0
   -3.1957    4.9662    6.1761 C   0  0  2  0  0  0  0  0  0  0  0  0
   -4.4213    4.3324    6.4931 O   0  0  0  0  0  0  0  0  0  0  0  0
   -3.2943    5.6779    4.8110 C   0  0  1  0  0  0  0  0  0  0  0  0
   -2.0357    6.2284    4.4158 O   0  0  0  0  0  0  0  0  0  0  0  0
   -3.9078    4.8003    3.7099 C   0  0  0  0  0  0  0  0  0  0  0  0
   -4.4367    5.6172    2.6057 N   0  0  0  0  0  0  0  0  0  0  0  0
  1  3  1  0  0  0  0
  1  2  1  1  0  0  0
  3  4  1  1  0  0  0
  5  6  1  6  0  0  0
  5  3  1  0  0  0  0
  7  9  1  0  0  0  0
  7  5  1  0  0  0  0
  7  8  1  1  0  0  0
  9 10  1  0  0  0  0
  9 11  1  6  0  0  0
 10  1  1  0  0  0  0
 11 12  1  0  0  0  0
 13 14  1  6  0  0  0
 13 21  1  0  0  0  0
 15 13  1  0  0  0  0
 16 15  1  0  0  0  0
 16 18  1  0  0  0  0
 16 17  1  6  0  0  0
 18  2  1  1  0  0  0
 18 19  1  0  0  0  0
 19 21  1  0  0  0  0
 19 20  1  6  0  0  0
 21 22  1  1  0  0  0
 23 20  1  6  0  0  0
 23 29  1  0  0  0  0
 23 24  1  0  0  0  0
 24 26  1  0  0  0  0
 24 25  1  1  0  0  0
 26 27  1  1  0  0  0
 28 26  1  0  0  0  0
 28 30  1  6  0  0  0
 29 28  1  0  0  0  0
 30 31  1  0  0  0  0
 32 27  1  6  0  0  0
 32 40  1  0  0  0  0
 32 33  1  0  0  0  0
 33 35  1  0  0  0  0
 33 34  1  6  0  0  0
 35 37  1  0  0  0  0
 35 36  1  1  0  0  0
 37 38  1  6  0  0  0
 39 37  1  0  0  0  0
 39 41  1  6  0  0  0
 40 39  1  0  0  0  0
 42 41  1  0  0  0  0
M  END
>  <CHROM.1>
-77.31274606,-116.11809686,151.29728011,-61.57974324,-52.62834085,-61.17148207
98.85880217,76.62385774,57.22089766,138.60941050,-74.98276071,-51.02876515
175.07183748,-149.60233702,-169.46379081,-173.14850876,-55.04694115,51.32230666
-169.25498045,70.31250967,159.05396386,-140.01000852,-0.19392110,4.11954974
1.35679358,0.05240698,-0.96059208,2.76333018

>  <Name>
lig.pdb

>  <RI>
0

>  <Rbt.Current_Directory>
/home/itssahil/PROJECTS/Mol_Feturizer/New_Systems/rnas/2mxs

>  <Rbt.Executable>
rbdock ($Id: //depot/dev/client3/rdock/2013.1/src/exe/rbdock.cxx#4 $)

>  <Rbt.Library>
libRbt.so (2013.1, Build901 2013/11/27)

>  <Rbt.Parameter_File>
/export/apps/rDock/src/rDock_2013.1_src/data/scripts/dock_solv.prm

>  <Rbt.Receptor>
prm/blind_docking_20.prm

>  <SCORE>
-12.1848

>  <SCORE.INTER>
-41.2813

>  <SCORE.INTER.CONST>
1

>  <SCORE.INTER.POLAR>
-6.21638

>  <SCORE.INTER.ROT>
9

>  <SCORE.INTER.SOLV>
26.432

>  <SCORE.INTER.VDW>
-25.2103

>  <SCORE.INTER.norm>
-0.982888

>  <SCORE.INTRA>
8.41062

>  <SCORE.INTRA.DIHEDRAL>
2.45149

>  <SCORE.INTRA.DIHEDRAL.0>
30.1357

>  <SCORE.INTRA.POLAR>
-0.546262

>  <SCORE.INTRA.POLAR.0>
-0.631696

>  <SCORE.INTRA.REPUL>
0

>  <SCORE.INTRA.REPUL.0>
0

>  <SCORE.INTRA.SOLV>
1.93964

>  <SCORE.INTRA.SOLV.lig_0>
-55.904

>  <SCORE.INTRA.VDW>
8.07235

>  <SCORE.INTRA.VDW.0>
-8.21197

>  <SCORE.INTRA.norm>
0.200253

>  <SCORE.RESTR>
20.6859

>  <SCORE.RESTR.CAVITY>
20.6859

>  <SCORE.RESTR.norm>
0.492522

>  <SCORE.SYSTEM>
0

>  <SCORE.SYSTEM.CONST>
0

>  <SCORE.SYSTEM.DIHEDRAL>
0

>  <SCORE.SYSTEM.SOLV>
0

>  <SCORE.SYSTEM.norm>
0

>  <SCORE.heavy>
42

>  <SCORE.norm>
-0.290114

>  <RMSD>
5.579

$$$$
lig.pdb
 OpenBabel11021811453D
libRbt.so/2013.1/901 2013/11/27
 42 45  0  0  0  0  0  0  0  0999 V2000
   -0.7409    0.6988    2.4643 C   0  0  2  0  0  0  0  0  0  0  0  0
   -0.6225    2.1199    2.3752 O   0  0  0  0  0  0  0  0  0  0  0  0
    0.6383    0.0282    2.3758 C   0  0  2  0  0  0  0  0  0  0  0  0
    1.5576    0.5727    3.3921 N   0  0  0  0  0  0  0  0  0  0  0  0
    1.2288    0.1691    0.9669 C   0  0  1  0  0  0  0  0  0  0  0  0
    2.4215   -0.5869    0.8798 O   0  0  0  0  0  0  0  0  0  0  0  0
    0.2278   -0.3368   -0.0827 C   0  0  2  0  0  0  0  0  0  0  0  0
    0.7231   -0.0536   -1.3773 O   0  0  0  0  0  0  0  0  0  0  0  0
   -1.1591    0.3126    0.0993 C   0  0  2  0  0  0  0  0  0  0  0  0
   -1.6085    0.2000    1.4493 O   0  0  0  0  0  0  0  0  0  0  0  0
   -2.1494   -0.4017   -0.8400 C   0  0  0  0  0  0  0  0  0  0  0  0
   -2.2532   -1.8213   -0.5494 O   0  0  0  0  0  0  0  0  0  0  0  0
   -3.4902    5.2993    2.8215 C   0  0  2  0  0  0  0  0  0  0  0  0
   -4.8630    5.8098    3.0084 N   0  0  0  0  0  0  0  0  0  0  0  0
   -3.3968    4.4849    1.5287 C   0  0  0  0  0  0  0  0  0  0  0  0
   -2.0229    3.8380    1.3997 C   0  0  2  0  0  0  0  0  0  0  0  0
   -1.9095    3.1413    0.1123 N   0  0  0  0  0  0  0  0  0  0  0  0
   -1.8190    2.8806    2.5969 C   0  0  2  0  0  0  0  0  0  0  0  0
   -1.7494    3.6957    3.8485 C   0  0  2  0  0  0  0  0  0  0  0  0
   -1.5211    2.8055    4.9254 O   0  0  0  0  0  0  0  0  0  0  0  0
   -3.0478    4.4581    4.0336 C   0  0  1  0  0  0  0  0  0  0  0  0
   -3.0061    5.3130    5.1607 O   0  0  0  0  0  0  0  0  0  0  0  0
   -0.2605    2.8709    5.5838 C   0  0  1  0  0  0  0  0  0  0  0  0
   -0.2381    4.1489    6.4249 C   0  0  2  0  0  0  0  0  0  0  0  0
    1.0678    4.6943    6.4130 O   0  0  0  0  0  0  0  0  0  0  0  0
   -0.6598    3.6405    7.8101 C   0  0  2  0  0  0  0  0  0  0  0  0
   -0.2623    4.5162    8.8655 O   0  0  0  0  0  0  0  0  0  0  0  0
    0.0327    2.2721    7.8131 C   0  0  2  0  0  0  0  0  0  0  0  0
   -0.1375    1.7823    6.4905 O   0  0  0  0  0  0  0  0  0  0  0  0
   -0.5657    1.2620    8.7990 C   0  0  0  0  0  0  0  0  0  0  0  0
   -0.3403    1.6465   10.1386 O   0  0  0  0  0  0  0  0  0  0  0  0
   -0.7844    5.8399    8.7680 C   0  0  2  0  0  0  0  0  0  0  0  0
    0.1953    6.8824    9.3277 C   0  0  2  0  0  0  0  0  0  0  0  0
    1.5090    6.7758    8.6713 N   0  0  0  0  0  0  0  0  0  0  0  0
    0.3182    6.7642   10.8543 C   0  0  1  0  0  0  0  0  0  0  0  0
    1.1619    7.7993   11.3208 O   0  0  0  0  0  0  0  0  0  0  0  0
   -1.0851    6.9066   11.4677 C   0  0  2  0  0  0  0  0  0  0  0  0
   -1.0341    6.7618   12.8751 O   0  0  0  0  0  0  0  0  0  0  0  0
   -2.0624    5.8821   10.8556 C   0  0  1  0  0  0  0  0  0  0  0  0
   -2.0455    5.9315    9.4271 O   0  0  0  0  0  0  0  0  0  0  0  0
   -1.8566    4.4543   11.3826 C   0  0  0  0  0  0  0  0  0  0  0  0
   -2.5683    4.2442   12.6537 N   0  0  0  0  0  0  0  0  0  0  0  0
  1  3  1  0  0  0  0
  1  2  1  6  0  0  0
  3  4  1  1  0  0  0
  5  6  1  1  0  0  0
  5  3  1  0  0  0  0
  7  9  1  0  0  0  0
  7  5  1  0  0  0  0
  7  8  1  6  0  0  0
  9 10  1  0  0  0  0
  9 11  1  6  0  0  0
 10  1  1  0  0  0  0
 11 12  1  0  0  0  0
 13 14  1  1  0  0  0
 13 21  1  0  0  0  0
 15 13  1  0  0  0  0
 16 15  1  0  0  0  0
 16 18  1  0  0  0  0
 16 17  1  6  0  0  0
 18  2  1  6  0  0  0
 18 19  1  0  0  0  0
 19 21  1  0  0  0  0
 19 20  1  1  0  0  0
 21 22  1  1  0  0  0
 23 20  1  1  0  0  0
 23 29  1  0  0  0  0
 23 24  1  0  0  0  0
 24 26  1  0  0  0  0
 24 25  1  1  0  0  0
 26 27  1  1  0  0  0
 28 26  1  0  0  0  0
 28 30  1  1  0  0  0
 29 28  1  0  0  0  0
 30 31  1  0  0  0  0
 32 27  1  1  0  0  0
 32 40  1  0  0  0  0
 32 33  1  0  0  0  0
 33 35  1  0  0  0  0
 33 34  1  6  0  0  0
 35 37  1  0  0  0  0
 35 36  1  1  0  0  0
 37 38  1  1  0  0  0
 39 37  1  0  0  0  0
 39 41  1  6  0  0  0
 40 39  1  0  0  0  0
 42 41  1  0  0  0  0
M  END
>  <CHROM.1>
-127.03379025,-173.10488885,141.05396218,-63.04540623,-57.77145587,62.12242712
59.94635154,37.24454926,51.01681923,111.77035889,72.95298565,-14.73305624
60.58199035,59.11838425,-147.05126012,-67.71193999,-179.18643034,22.23962887
61.85166687,-51.16210823,84.23438256,-179.89092578,-0.89129401,3.27550720
5.41659383,-1.57900406,-0.83563365,1.09851289

>  <Name>
lig.pdb

>  <RI>
4.11275e+07

>  <Rbt.Current_Directory>
/home/itssahil/PROJECTS/Mol_Feturizer/New_Systems/rnas/2mxs

>  <Rbt.Executable>
rbdock ($Id: //depot/dev/client3/rdock/2013.1/src/exe/rbdock.cxx#4 $)

>  <Rbt.Library>
libRbt.so (2013.1, Build901 2013/11/27)

>  <Rbt.Parameter_File>
/export/apps/rDock/src/rDock_2013.1_src/data/scripts/dock_solv.prm

>  <Rbt.Receptor>
prm/pocket_docking_8.prm

>  <SCORE>
-22.007

>  <SCORE.INTER>
-26.5309

>  <SCORE.INTER.CONST>
1

>  <SCORE.INTER.POLAR>
-4.86728

>  <SCORE.INTER.ROT>
9

>  <SCORE.INTER.SOLV>
12.6292

>  <SCORE.INTER.VDW>
-15.2727

>  <SCORE.INTER.norm>
-0.631689

>  <SCORE.INTRA>
4.52387

>  <SCORE.INTRA.DIHEDRAL>
4.38939

>  <SCORE.INTRA.DIHEDRAL.0>
30.1357

>  <SCORE.INTRA.POLAR>
-0.426467

>  <SCORE.INTRA.POLAR.0>
-0.631696

>  <SCORE.INTRA.REPUL>
0

>  <SCORE.INTRA.REPUL.0>
0

>  <SCORE.INTRA.SOLV>
0.422507

>  <SCORE.INTRA.SOLV.lig_0>
-55.904

>  <SCORE.INTRA.VDW>
3.56791

>  <SCORE.INTRA.VDW.0>
-8.21197

>  <SCORE.INTRA.norm>
0.107711

>  <SCORE.RESTR>
0

>  <SCORE.RESTR.CAVITY>
0

>  <SCORE.RESTR.norm>
0

>  <SCORE.SYSTEM>
0

>  <SCORE.SYSTEM.CONST>
0

>  <SCORE.SYSTEM.DIHEDRAL>
0

>  <SCORE.SYSTEM.SOLV>
0

>  <SCORE.SYSTEM.norm>
0

>  <SCORE.heavy>
42

>  <SCORE.norm>
-0.523977

>  <RMSD>
5.584

$$$$
lig.pdb
 OpenBabel11021811453D
libRbt.so/2013.1/901 2013/11/27
 42 45  0  0  0  0  0  0  0  0999 V2000
   -0.0469    1.6168    3.4798 C   0  0  2  0  0  0  0  0  0  0  0  0
   -0.9392    2.0839    2.4664 O   0  0  0  0  0  0  0  0  0  0  0  0
    1.0705    0.7564    2.8708 C   0  0  2  0  0  0  0  0  0  0  0  0
    1.7781    1.4867    1.8029 N   0  0  0  0  0  0  0  0  0  0  0  0
    0.5171   -0.5774    2.3527 C   0  0  1  0  0  0  0  0  0  0  0  0
    1.5899   -1.4026    1.9409 O   0  0  0  0  0  0  0  0  0  0  0  0
   -0.2773   -1.2892    3.4581 C   0  0  2  0  0  0  0  0  0  0  0  0
   -0.9092   -2.4339    2.9179 O   0  0  0  0  0  0  0  0  0  0  0  0
   -1.3336   -0.3569    4.0853 C   0  0  2  0  0  0  0  0  0  0  0  0
   -0.7553    0.8872    4.4787 O   0  0  0  0  0  0  0  0  0  0  0  0
   -1.9283   -1.0667    5.3165 C   0  0  0  0  0  0  0  0  0  0  0  0
   -3.0020   -0.3005    5.9250 O   0  0  0  0  0  0  0  0  0  0  0  0
   -1.1269    6.3483    1.9088 C   0  0  2  0  0  0  0  0  0  0  0  0
   -1.7727    7.6653    2.0778 N   0  0  0  0  0  0  0  0  0  0  0  0
   -2.0452    5.4011    1.1325 C   0  0  0  0  0  0  0  0  0  0  0  0
   -1.4475    4.0003    1.0759 C   0  0  2  0  0  0  0  0  0  0  0  0
   -2.2856    3.1246    0.2473 N   0  0  0  0  0  0  0  0  0  0  0  0
   -1.3071    3.4699    2.5217 C   0  0  2  0  0  0  0  0  0  0  0  0
   -0.2872    4.2998    3.2335 C   0  0  2  0  0  0  0  0  0  0  0  0
   -0.1439    3.7722    4.5395 O   0  0  0  0  0  0  0  0  0  0  0  0
   -0.7440    5.7459    3.2737 C   0  0  1  0  0  0  0  0  0  0  0  0
    0.2244    6.5929    3.8635 O   0  0  0  0  0  0  0  0  0  0  0  0
   -1.2494    3.8929    5.4284 C   0  0  1  0  0  0  0  0  0  0  0  0
   -1.0565    2.8758    6.5552 C   0  0  2  0  0  0  0  0  0  0  0  0
   -2.3167    2.3602    6.9411 O   0  0  0  0  0  0  0  0  0  0  0  0
   -0.3956    3.7200    7.6531 C   0  0  2  0  0  0  0  0  0  0  0  0
   -0.5452    3.1509    8.9541 O   0  0  0  0  0  0  0  0  0  0  0  0
   -1.1294    5.0502    7.4435 C   0  0  2  0  0  0  0  0  0  0  0  0
   -1.2386    5.1800    6.0330 O   0  0  0  0  0  0  0  0  0  0  0  0
   -0.3929    6.2740    8.0006 C   0  0  0  0  0  0  0  0  0  0  0  0
   -1.2133    7.4230    7.9925 O   0  0  0  0  0  0  0  0  0  0  0  0
   -0.0009    1.8403    9.0958 C   0  0  2  0  0  0  0  0  0  0  0  0
   -0.8343    0.9768   10.0549 C   0  0  2  0  0  0  0  0  0  0  0  0
   -2.2431    0.9278    9.6296 N   0  0  0  0  0  0  0  0  0  0  0  0
   -0.7010    1.4707   11.5033 C   0  0  1  0  0  0  0  0  0  0  0  0
   -1.4164    0.5904   12.3482 O   0  0  0  0  0  0  0  0  0  0  0  0
    0.7901    1.4737   11.8809 C   0  0  2  0  0  0  0  0  0  0  0  0
    0.9731    1.9632   13.1966 O   0  0  0  0  0  0  0  0  0  0  0  0
    1.6129    2.3067   10.8766 C   0  0  1  0  0  0  0  0  0  0  0  0
    1.3560    1.9048    9.5291 O   0  0  0  0  0  0  0  0  0  0  0  0
    1.4491    3.8222   11.0644 C   0  0  0  0  0  0  0  0  0  0  0  0
    2.2027    4.5731   10.0472 N   0  0  0  0  0  0  0  0  0  0  0  0
  1  3  1  0  0  0  0
  1  2  1  6  0  0  0
  3  4  1  6  0  0  0
  5  6  1  1  0  0  0
  5  3  1  0  0  0  0
  7  9  1  0  0  0  0
  7  5  1  0  0  0  0
  7  8  1  6  0  0  0
  9 10  1  0  0  0  0
  9 11  1  1  0  0  0
 10  1  1  0  0  0  0
 11 12  1  0  0  0  0
 13 14  1  1  0  0  0
 13 21  1  0  0  0  0
 15 13  1  0  0  0  0
 16 15  1  0  0  0  0
 16 18  1  0  0  0  0
 16 17  1  6  0  0  0
 18  2  1  6  0  0  0
 18 19  1  0  0  0  0
 19 21  1  0  0  0  0
 19 20  1  1  0  0  0
 21 22  1  6  0  0  0
 23 20  1  6  0  0  0
 23 29  1  0  0  0  0
 23 24  1  0  0  0  0
 24 26  1  0  0  0  0
 24 25  1  1  0  0  0
 26 27  1  1  0  0  0
 28 26  1  0  0  0  0
 28 30  1  6  0  0  0
 29 28  1  0  0  0  0
 30 31  1  0  0  0  0
 32 27  1  1  0  0  0
 32 40  1  0  0  0  0
 32 33  1  0  0  0  0
 33 35  1  0  0  0  0
 33 34  1  6  0  0  0
 35 37  1  0  0  0  0
 35 36  1  1  0  0  0
 37 38  1  1  0  0  0
 39 37  1  0  0  0  0
 39 41  1  6  0  0  0
 40 39  1  0  0  0  0
 42 41  1  0  0  0  0
M  END
>  <CHROM.1>
144.42990102,-134.26613385,-111.09645848,-56.22762444,70.31115719,-178.55556924
-176.10795517,65.97563681,61.19203623,-67.29012789,161.14733649,68.87968451
82.31561044,59.00329022,-145.42458822,-169.52742818,-58.08459096,-11.20591017
57.79118493,61.86043455,-177.40852914,-71.33769803,-0.52316788,2.65511054
5.94456406,-2.72303069,-1.46805651,0.48097072

>  <Name>
lig.pdb

>  <RI>
3.99633e+07

>  <Rbt.Current_Directory>
/home/itssahil/PROJECTS/Mol_Feturizer/New_Systems/rnas/2mxs

>  <Rbt.Executable>
rbdock ($Id: //depot/dev/client3/rdock/2013.1/src/exe/rbdock.cxx#4 $)

>  <Rbt.Library>
libRbt.so (2013.1, Build901 2013/11/27)

>  <Rbt.Parameter_File>
/export/apps/rDock/src/rDock_2013.1_src/data/scripts/dock_solv.prm

>  <Rbt.Receptor>
prm/pocket_docking_5.prm

>  <SCORE>
-24.7416

>  <SCORE.INTER>
-27.3724

>  <SCORE.INTER.CONST>
1

>  <SCORE.INTER.POLAR>
-4.78642

>  <SCORE.INTER.ROT>
9

>  <SCORE.INTER.SOLV>
14.7378

>  <SCORE.INTER.VDW>
-16.8061

>  <SCORE.INTER.norm>
-0.651723

>  <SCORE.INTRA>
2.63071

>  <SCORE.INTRA.DIHEDRAL>
-1.60626

>  <SCORE.INTRA.DIHEDRAL.0>
30.1357

>  <SCORE.INTRA.POLAR>
-1.39125

>  <SCORE.INTRA.POLAR.0>
-0.631696

>  <SCORE.INTRA.REPUL>
0

>  <SCORE.INTRA.REPUL.0>
0

>  <SCORE.INTRA.SOLV>
0.858753

>  <SCORE.INTRA.SOLV.lig_0>
-55.904

>  <SCORE.INTRA.VDW>
7.73472

>  <SCORE.INTRA.VDW.0>
-8.21197

>  <SCORE.INTRA.norm>
0.062636

>  <SCORE.RESTR>
0

>  <SCORE.RESTR.CAVITY>
0

>  <SCORE.RESTR.norm>
0

>  <SCORE.SYSTEM>
0

>  <SCORE.SYSTEM.CONST>
0

>  <SCORE.SYSTEM.DIHEDRAL>
0

>  <SCORE.SYSTEM.SOLV>
0

>  <SCORE.SYSTEM.norm>
0

>  <SCORE.heavy>
42

>  <SCORE.norm>
-0.589087

>  <RMSD>
5.599

$$$$
lig.pdb
 OpenBabel11021811453D
libRbt.so/2013.1/901 2013/11/27
 42 45  0  0  0  0  0  0  0  0999 V2000
   -1.0792    4.4919    1.5428 C   0  0  2  0  0  0  0  0  0  0  0  0
   -0.7827    4.8439    0.1902 O   0  0  0  0  0  0  0  0  0  0  0  0
   -2.5966    4.4050    1.7656 C   0  0  2  0  0  0  0  0  0  0  0  0
   -3.2206    3.4791    0.8024 N   0  0  0  0  0  0  0  0  0  0  0  0
   -3.2435    5.7941    1.6928 C   0  0  1  0  0  0  0  0  0  0  0  0
   -4.6083    5.6960    2.0523 O   0  0  0  0  0  0  0  0  0  0  0  0
   -2.5333    6.7627    2.6506 C   0  0  2  0  0  0  0  0  0  0  0  0
   -3.0376    8.0698    2.4540 O   0  0  0  0  0  0  0  0  0  0  0  0
   -1.0065    6.7541    2.4341 C   0  0  2  0  0  0  0  0  0  0  0  0
   -0.4909    5.4233    2.4473 O   0  0  0  0  0  0  0  0  0  0  0  0
   -0.3578    7.5747    3.5651 C   0  0  0  0  0  0  0  0  0  0  0  0
   -0.6280    7.0100    4.8759 O   0  0  0  0  0  0  0  0  0  0  0  0
    2.9369    5.3316   -1.9210 C   0  0  2  0  0  0  0  0  0  0  0  0
    4.4029    5.5006   -1.9722 N   0  0  0  0  0  0  0  0  0  0  0  0
    2.2938    6.4932   -1.1593 C   0  0  0  0  0  0  0  0  0  0  0  0
    0.7990    6.2556   -0.9800 C   0  0  2  0  0  0  0  0  0  0  0  0
    0.1745    7.4181   -0.3363 N   0  0  0  0  0  0  0  0  0  0  0  0
    0.6052    4.9623   -0.1547 C   0  0  2  0  0  0  0  0  0  0  0  0
    1.0885    3.8046   -0.9682 C   0  0  2  0  0  0  0  0  0  0  0  0
    0.8639    2.6286   -0.2125 O   0  0  0  0  0  0  0  0  0  0  0  0
    2.5622    3.9813   -1.2818 C   0  0  1  0  0  0  0  0  0  0  0  0
    3.0536    2.9541   -2.1223 O   0  0  0  0  0  0  0  0  0  0  0  0
    1.4601    2.5456    1.0777 C   0  0  1  0  0  0  0  0  0  0  0  0
    0.3710    2.1336    2.0704 C   0  0  2  0  0  0  0  0  0  0  0  0
    0.5939    2.7851    3.3068 O   0  0  0  0  0  0  0  0  0  0  0  0
    0.5586    0.6129    2.1549 C   0  0  2  0  0  0  0  0  0  0  0  0
    0.0052    0.0524    3.3458 O   0  0  0  0  0  0  0  0  0  0  0  0
    2.0864    0.5275    2.0521 C   0  0  2  0  0  0  0  0  0  0  0  0
    2.4355    1.5108    1.0880 O   0  0  0  0  0  0  0  0  0  0  0  0
    2.6144   -0.8348    1.5876 C   0  0  0  0  0  0  0  0  0  0  0  0
    2.6505   -0.9258    0.1792 O   0  0  0  0  0  0  0  0  0  0  0  0
    0.9305   -0.6871    4.1404 C   0  0  2  0  0  0  0  0  0  0  0  0
    0.2466   -1.8445    4.8839 C   0  0  2  0  0  0  0  0  0  0  0  0
   -0.4724   -2.7214    3.9448 N   0  0  0  0  0  0  0  0  0  0  0  0
   -0.6833   -1.3210    5.9888 C   0  0  1  0  0  0  0  0  0  0  0  0
   -1.2156   -2.4267    6.6924 O   0  0  0  0  0  0  0  0  0  0  0  0
    0.1405   -0.4347    6.9384 C   0  0  2  0  0  0  0  0  0  0  0  0
   -0.6810    0.1101    7.9546 O   0  0  0  0  0  0  0  0  0  0  0  0
    0.8561    0.6904    6.1628 C   0  0  1  0  0  0  0  0  0  0  0  0
    1.6019    0.1724    5.0588 O   0  0  0  0  0  0  0  0  0  0  0  0
   -0.0829    1.8288    5.7371 C   0  0  0  0  0  0  0  0  0  0  0  0
   -0.7371    2.4478    6.9011 N   0  0  0  0  0  0  0  0  0  0  0  0
  1  3  1  0  0  0  0
  1  2  1  6  0  0  0
  3  4  1  6  0  0  0
  5  6  1  1  0  0  0
  5  3  1  0  0  0  0
  7  9  1  0  0  0  0
  7  5  1  0  0  0  0
  7  8  1  6  0  0  0
  9 10  1  0  0  0  0
  9 11  1  1  0  0  0
 10  1  1  0  0  0  0
 11 12  1  0  0  0  0
 13 14  1  1  0  0  0
 13 21  1  0  0  0  0
 15 13  1  0  0  0  0
 16 15  1  0  0  0  0
 16 18  1  0  0  0  0
 16 17  1  1  0  0  0
 18  2  1  6  0  0  0
 18 19  1  0  0  0  0
 19 21  1  0  0  0  0
 19 20  1  1  0  0  0
 21 22  1  6  0  0  0
 23 20  1  6  0  0  0
 23 29  1  0  0  0  0
 23 24  1  0  0  0  0
 24 26  1  0  0  0  0
 24 25  1  1  0  0  0
 26 27  1  1  0  0  0
 28 26  1  0  0  0  0
 28 30  1  6  0  0  0
 29 28  1  0  0  0  0
 30 31  1  0  0  0  0
 32 27  1  1  0  0  0
 32 40  1  0  0  0  0
 32 33  1  0  0  0  0
 33 35  1  0  0  0  0
 33 34  1  6  0  0  0
 35 37  1  0  0  0  0
 35 36  1  1  0  0  0
 37 38  1  1  0  0  0
 39 37  1  0  0  0  0
 39 41  1  6  0  0  0
 40 39  1  0  0  0  0
 42 41  1  0  0  0  0
M  END
>  <CHROM.1>
-134.56222490,179.88307531,-165.28078118,174.41953343,-71.20776413,177.07864226
61.06445497,-173.21789808,-61.89668933,-57.54332616,129.90581456,-179.25114518
66.76867908,-123.47912792,-148.18203903,86.19255575,65.51724501,-173.21426336
-68.35451502,59.14680327,58.91117630,-123.18217407,0.16404864,2.94848867
2.32301157,1.54363938,0.83470171,-0.64400938

>  <Name>
lig.pdb

>  <RI>
0

>  <Rbt.Current_Directory>
/home/itssahil/PROJECTS/Mol_Feturizer/New_Systems/rnas/2mxs

>  <Rbt.Executable>
rbdock ($Id: //depot/dev/client3/rdock/2013.1/src/exe/rbdock.cxx#4 $)

>  <Rbt.Library>
libRbt.so (2013.1, Build901 2013/11/27)

>  <Rbt.Parameter_File>
/export/apps/rDock/src/rDock_2013.1_src/data/scripts/dock_solv.prm

>  <Rbt.Receptor>
prm/blind_docking_80.prm

>  <SCORE>
-32.3384

>  <SCORE.INTER>
-48.1624

>  <SCORE.INTER.CONST>
1

>  <SCORE.INTER.POLAR>
-5.75213

>  <SCORE.INTER.ROT>
9

>  <SCORE.INTER.SOLV>
29.0866

>  <SCORE.INTER.VDW>
-32.23

>  <SCORE.INTER.norm>
-1.14672

>  <SCORE.INTRA>
6.04163

>  <SCORE.INTRA.DIHEDRAL>
2.28172

>  <SCORE.INTRA.DIHEDRAL.0>
30.1357

>  <SCORE.INTRA.POLAR>
-0.881986

>  <SCORE.INTRA.POLAR.0>
-0.631696

>  <SCORE.INTRA.REPUL>
0

>  <SCORE.INTRA.REPUL.0>
0

>  <SCORE.INTRA.SOLV>
1.72328

>  <SCORE.INTRA.SOLV.lig_0>
-55.904

>  <SCORE.INTRA.VDW>
7.03789

>  <SCORE.INTRA.VDW.0>
-8.21197

>  <SCORE.INTRA.norm>
0.143848

>  <SCORE.RESTR>
9.78238

>  <SCORE.RESTR.CAVITY>
9.78238

>  <SCORE.RESTR.norm>
0.232914

>  <SCORE.SYSTEM>
0

>  <SCORE.SYSTEM.CONST>
0

>  <SCORE.SYSTEM.DIHEDRAL>
0

>  <SCORE.SYSTEM.SOLV>
0

>  <SCORE.SYSTEM.norm>
0

>  <SCORE.heavy>
42

>  <SCORE.norm>
-0.769961

>  <RMSD>
5.616

$$$$
lig.pdb
 OpenBabel11021811453D
libRbt.so/2013.1/901 2013/11/27
 42 45  0  0  0  0  0  0  0  0999 V2000
   -0.0938    4.5253    1.5584 C   0  0  2  0  0  0  0  0  0  0  0  0
    0.3240    5.1498    0.3431 O   0  0  0  0  0  0  0  0  0  0  0  0
   -1.5509    4.0498    1.4563 C   0  0  2  0  0  0  0  0  0  0  0  0
   -1.7399    3.1704    0.2878 N   0  0  0  0  0  0  0  0  0  0  0  0
   -2.5163    5.2412    1.4109 C   0  0  1  0  0  0  0  0  0  0  0  0
   -3.8485    4.7688    1.4715 O   0  0  0  0  0  0  0  0  0  0  0  0
   -2.2558    6.1827    2.5964 C   0  0  2  0  0  0  0  0  0  0  0  0
   -3.0433    7.3489    2.4504 O   0  0  0  0  0  0  0  0  0  0  0  0
   -0.7658    6.5679    2.6957 C   0  0  2  0  0  0  0  0  0  0  0  0
    0.0696    5.4112    2.6631 O   0  0  0  0  0  0  0  0  0  0  0  0
   -0.5542    7.3253    4.0205 C   0  0  0  0  0  0  0  0  0  0  0  0
   -1.3378    8.5468    4.0842 O   0  0  0  0  0  0  0  0  0  0  0  0
    3.5790    3.6421   -2.0367 C   0  0  2  0  0  0  0  0  0  0  0  0
    5.0147    3.4733   -2.3374 N   0  0  0  0  0  0  0  0  0  0  0  0
    3.2044    5.1263   -2.0464 C   0  0  0  0  0  0  0  0  0  0  0  0
    1.7600    5.3184   -1.5996 C   0  0  2  0  0  0  0  0  0  0  0  0
    1.3803    6.7327   -1.7060 N   0  0  0  0  0  0  0  0  0  0  0  0
    1.6208    4.7880   -0.1536 C   0  0  2  0  0  0  0  0  0  0  0  0
    1.8295    3.3076   -0.1703 C   0  0  2  0  0  0  0  0  0  0  0  0
    1.6568    2.8374    1.1540 O   0  0  0  0  0  0  0  0  0  0  0  0
    3.2214    2.9942   -0.6859 C   0  0  1  0  0  0  0  0  0  0  0  0
    3.4440    1.6014   -0.8023 O   0  0  0  0  0  0  0  0  0  0  0  0
    2.0036    1.4840    1.4276 C   0  0  1  0  0  0  0  0  0  0  0  0
    1.5526    1.1651    2.8545 C   0  0  2  0  0  0  0  0  0  0  0  0
    2.4875    0.2894    3.4563 O   0  0  0  0  0  0  0  0  0  0  0  0
    0.1821    0.5120    2.6300 C   0  0  2  0  0  0  0  0  0  0  0  0
   -0.2321   -0.2976    3.7308 O   0  0  0  0  0  0  0  0  0  0  0  0
    0.4639   -0.2582    1.3340 C   0  0  2  0  0  0  0  0  0  0  0  0
    1.2743    0.6198    0.5653 O   0  0  0  0  0  0  0  0  0  0  0  0
   -0.7884   -0.6160    0.5253 C   0  0  0  0  0  0  0  0  0  0  0  0
   -0.5515   -1.6995   -0.3482 O   0  0  0  0  0  0  0  0  0  0  0  0
   -1.1710    0.3244    4.6059 C   0  0  2  0  0  0  0  0  0  0  0  0
   -0.4779    1.2264    5.6384 C   0  0  2  0  0  0  0  0  0  0  0  0
    0.3778    2.2245    4.9752 N   0  0  0  0  0  0  0  0  0  0  0  0
    0.3148    0.3946    6.6579 C   0  0  1  0  0  0  0  0  0  0  0  0
    0.8572    1.2681    7.6292 O   0  0  0  0  0  0  0  0  0  0  0  0
   -0.6465   -0.6058    7.3218 C   0  0  2  0  0  0  0  0  0  0  0  0
    0.0447   -1.4296    8.2427 O   0  0  0  0  0  0  0  0  0  0  0  0
   -1.3661   -1.4667    6.2632 C   0  0  1  0  0  0  0  0  0  0  0  0
   -1.9763   -0.6561    5.2563 O   0  0  0  0  0  0  0  0  0  0  0  0
   -0.4726   -2.5589    5.6569 C   0  0  0  0  0  0  0  0  0  0  0  0
    0.7841   -1.9961    5.1369 N   0  0  0  0  0  0  0  0  0  0  0  0
  1  3  1  0  0  0  0
  1  2  1  6  0  0  0
  3  4  1  6  0  0  0
  5  6  1  1  0  0  0
  5  3  1  0  0  0  0
  7  9  1  0  0  0  0
  7  5  1  0  0  0  0
  7  8  1  6  0  0  0
  9 10  1  0  0  0  0
  9 11  1  1  0  0  0
 10  1  1  0  0  0  0
 11 12  1  0  0  0  0
 13 14  1  1  0  0  0
 13 21  1  0  0  0  0
 15 13  1  0  0  0  0
 16 15  1  0  0  0  0
 16 18  1  0  0  0  0
 16 17  1  1  0  0  0
 18  2  1  6  0  0  0
 18 19  1  0  0  0  0
 19 21  1  0  0  0  0
 19 20  1  1  0  0  0
 21 22  1  6  0  0  0
 23 20  1  6  0  0  0
 23 29  1  0  0  0  0
 23 24  1  0  0  0  0
 24 26  1  0  0  0  0
 24 25  1  6  0  0  0
 26 27  1  1  0  0  0
 28 26  1  0  0  0  0
 28 30  1  6  0  0  0
 29 28  1  0  0  0  0
 30 31  1  0  0  0  0
 32 27  1  1  0  0  0
 32 40  1  0  0  0  0
 32 33  1  0  0  0  0
 33 35  1  0  0  0  0
 33 34  1  6  0  0  0
 35 37  1  0  0  0  0
 35 36  1  1  0  0  0
 37 38  1  1  0  0  0
 39 37  1  0  0  0  0
 39 41  1  6  0  0  0
 40 39  1  0  0  0  0
 42 41  1  0  0  0  0
M  END
>  <CHROM.1>
167.98277886,-135.57030290,-84.75633290,66.32343605,-175.37361243,-78.71952532
-61.09528511,-59.84401727,-84.01331680,-170.73817880,-172.35843112,71.75638247
69.44367852,100.38089216,-83.16883240,-158.34498264,-52.09715288,147.03954205
66.92245844,67.46433326,-53.07897354,-25.98591181,0.29303414,2.52900459,2.34859138
1.31751970,0.93176186,-0.57905213

>  <Name>
lig.pdb

>  <RI>
0

>  <Rbt.Current_Directory>
/home/itssahil/PROJECTS/Mol_Feturizer/New_Systems/rnas/2mxs

>  <Rbt.Executable>
rbdock ($Id: //depot/dev/client3/rdock/2013.1/src/exe/rbdock.cxx#4 $)

>  <Rbt.Library>
libRbt.so (2013.1, Build901 2013/11/27)

>  <Rbt.Parameter_File>
/export/apps/rDock/src/rDock_2013.1_src/data/scripts/dock_solv.prm

>  <Rbt.Receptor>
prm/blind_docking_80.prm

>  <SCORE>
-20.0472

>  <SCORE.INTER>
-44.4612

>  <SCORE.INTER.CONST>
1

>  <SCORE.INTER.POLAR>
-5.59389

>  <SCORE.INTER.ROT>
9

>  <SCORE.INTER.SOLV>
30.4821

>  <SCORE.INTER.VDW>
-30.7552

>  <SCORE.INTER.norm>
-1.0586

>  <SCORE.INTRA>
11.8135

>  <SCORE.INTRA.DIHEDRAL>
-2.11

>  <SCORE.INTRA.DIHEDRAL.0>
30.1357

>  <SCORE.INTRA.POLAR>
-0.607062

>  <SCORE.INTRA.POLAR.0>
-0.631696

>  <SCORE.INTRA.REPUL>
0.0367329

>  <SCORE.INTRA.REPUL.0>
0

>  <SCORE.INTRA.SOLV>
2.1903

>  <SCORE.INTRA.SOLV.lig_0>
-55.904

>  <SCORE.INTRA.VDW>
13.6537

>  <SCORE.INTRA.VDW.0>
-8.21197

>  <SCORE.INTRA.norm>
0.281275

>  <SCORE.RESTR>
12.6005

>  <SCORE.RESTR.CAVITY>
12.6005

>  <SCORE.RESTR.norm>
0.300011

>  <SCORE.SYSTEM>
0

>  <SCORE.SYSTEM.CONST>
0

>  <SCORE.SYSTEM.DIHEDRAL>
0

>  <SCORE.SYSTEM.SOLV>
0

>  <SCORE.SYSTEM.norm>
0

>  <SCORE.heavy>
42

>  <SCORE.norm>
-0.477315

>  <RMSD>
5.617

$$$$
lig.pdb
 OpenBabel11021811453D
libRbt.so/2013.1/901 2013/11/27
 42 45  0  0  0  0  0  0  0  0999 V2000
   -0.8115    2.4062    2.0879 C   0  0  2  0  0  0  0  0  0  0  0  0
   -0.3500    3.6575    1.5751 O   0  0  0  0  0  0  0  0  0  0  0  0
   -0.1269    1.2342    1.3686 C   0  0  2  0  0  0  0  0  0  0  0  0
    1.3411    1.3548    1.4394 N   0  0  0  0  0  0  0  0  0  0  0  0
   -0.6014    1.1293   -0.0865 C   0  0  1  0  0  0  0  0  0  0  0  0
   -0.0706   -0.0452   -0.6701 O   0  0  0  0  0  0  0  0  0  0  0  0
   -2.1356    1.0772   -0.1435 C   0  0  2  0  0  0  0  0  0  0  0  0
   -2.5567    1.1406   -1.4926 O   0  0  0  0  0  0  0  0  0  0  0  0
   -2.7707    2.2327    0.6565 C   0  0  2  0  0  0  0  0  0  0  0  0
   -2.2289    2.3064    1.9749 O   0  0  0  0  0  0  0  0  0  0  0  0
   -4.2895    1.9854    0.7312 C   0  0  0  0  0  0  0  0  0  0  0  0
   -4.7417    1.0452   -0.2797 O   0  0  0  0  0  0  0  0  0  0  0  0
   -0.5838    7.4609    3.5777 C   0  0  2  0  0  0  0  0  0  0  0  0
   -1.3334    8.5892    4.1654 N   0  0  0  0  0  0  0  0  0  0  0  0
   -0.9125    7.3216    2.0892 C   0  0  0  0  0  0  0  0  0  0  0  0
   -0.2535    6.0762    1.5081 C   0  0  2  0  0  0  0  0  0  0  0  0
   -0.4929    6.0043    0.0612 N   0  0  0  0  0  0  0  0  0  0  0  0
   -0.8087    4.8380    2.2498 C   0  0  2  0  0  0  0  0  0  0  0  0
   -0.3506    4.8933    3.6720 C   0  0  2  0  0  0  0  0  0  0  0  0
   -0.8338    3.7316    4.3213 O   0  0  0  0  0  0  0  0  0  0  0  0
   -0.8834    6.1514    4.3312 C   0  0  1  0  0  0  0  0  0  0  0  0
   -0.4104    6.2978    5.6570 O   0  0  0  0  0  0  0  0  0  0  0  0
    0.1037    2.9324    5.0349 C   0  0  1  0  0  0  0  0  0  0  0  0
    0.4810    3.6837    6.3134 C   0  0  2  0  0  0  0  0  0  0  0  0
    1.8460    3.4523    6.6067 O   0  0  0  0  0  0  0  0  0  0  0  0
   -0.4654    3.0659    7.3515 C   0  0  2  0  0  0  0  0  0  0  0  0
   -0.0037    3.2362    8.6918 O   0  0  0  0  0  0  0  0  0  0  0  0
   -0.4898    1.6140    6.8581 C   0  0  2  0  0  0  0  0  0  0  0  0
   -0.5148    1.7181    5.4414 O   0  0  0  0  0  0  0  0  0  0  0  0
   -1.7102    0.8090    7.3197 C   0  0  0  0  0  0  0  0  0  0  0  0
   -1.4167   -0.5682    7.4214 O   0  0  0  0  0  0  0  0  0  0  0  0
   -0.9777    2.9581    9.6959 C   0  0  2  0  0  0  0  0  0  0  0  0
   -0.6818    3.7109   11.0020 C   0  0  2  0  0  0  0  0  0  0  0  0
   -0.5617    5.1583   10.7596 N   0  0  0  0  0  0  0  0  0  0  0  0
    0.5703    3.1507   11.6933 C   0  0  1  0  0  0  0  0  0  0  0  0
    0.7430    3.8209   12.9269 O   0  0  0  0  0  0  0  0  0  0  0  0
    0.3618    1.6456   11.9319 C   0  0  2  0  0  0  0  0  0  0  0  0
    1.5082    1.0693   12.5302 O   0  0  0  0  0  0  0  0  0  0  0  0
    0.0186    0.9195   10.6149 C   0  0  1  0  0  0  0  0  0  0  0  0
   -1.0659    1.5551    9.9342 O   0  0  0  0  0  0  0  0  0  0  0  0
    1.2330    0.7178    9.6965 C   0  0  0  0  0  0  0  0  0  0  0  0
    1.0960   -0.5036    8.8869 N   0  0  0  0  0  0  0  0  0  0  0  0
  1  3  1  0  0  0  0
  1  2  1  6  0  0  0
  3  4  1  6  0  0  0
  5  6  1  1  0  0  0
  5  3  1  0  0  0  0
  7  9  1  0  0  0  0
  7  5  1  0  0  0  0
  7  8  1  6  0  0  0
  9 10  1  0  0  0  0
  9 11  1  1  0  0  0
 10  1  1  0  0  0  0
 11 12  1  0  0  0  0
 13 14  1  1  0  0  0
 13 21  1  0  0  0  0
 15 13  1  0  0  0  0
 16 15  1  0  0  0  0
 16 18  1  0  0  0  0
 16 17  1  6  0  0  0
 18  2  1  6  0  0  0
 18 19  1  0  0  0  0
 19 21  1  0  0  0  0
 19 20  1  1  0  0  0
 21 22  1  1  0  0  0
 23 20  1  6  0  0  0
 23 29  1  0  0  0  0
 23 24  1  0  0  0  0
 24 26  1  0  0  0  0
 24 25  1  1  0  0  0
 26 27  1  1  0  0  0
 28 26  1  0  0  0  0
 28 30  1  1  0  0  0
 29 28  1  0  0  0  0
 30 31  1  0  0  0  0
 32 27  1  6  0  0  0
 32 40  1  0  0  0  0
 32 33  1  0  0  0  0
 33 35  1  0  0  0  0
 33 34  1  6  0  0  0
 35 37  1  0  0  0  0
 35 36  1  1  0  0  0
 37 38  1  6  0  0  0
 39 37  1  0  0  0  0
 39 41  1  6  0  0  0
 40 39  1  0  0  0  0
 42 41  1  0  0  0  0
M  END
>  <CHROM.1>
-177.45185122,-173.95729063,-61.66514980,-61.59593500,-69.30717015,-50.56979093
-18.49093577,177.36609238,-37.94939994,127.82411101,73.01918533,160.91303329
-63.98392041,166.37121247,-154.85644549,-151.61122467,168.20891233,-58.25736768
61.95350119,-62.36400781,149.48927308,37.23950999,-0.61273104,2.95530839
5.22550295,2.82230761,-1.38586572,-0.27195405

>  <Name>
lig.pdb

>  <RI>
3.99633e+07

>  <Rbt.Current_Directory>
/home/itssahil/PROJECTS/Mol_Feturizer/New_Systems/rnas/2mxs

>  <Rbt.Executable>
rbdock ($Id: //depot/dev/client3/rdock/2013.1/src/exe/rbdock.cxx#4 $)

>  <Rbt.Library>
libRbt.so (2013.1, Build901 2013/11/27)

>  <Rbt.Parameter_File>
/export/apps/rDock/src/rDock_2013.1_src/data/scripts/dock_solv.prm

>  <Rbt.Receptor>
prm/pocket_docking_5.prm

>  <SCORE>
-32.5215

>  <SCORE.INTER>
-35.5722

>  <SCORE.INTER.CONST>
1

>  <SCORE.INTER.POLAR>
-4.42015

>  <SCORE.INTER.ROT>
9

>  <SCORE.INTER.SOLV>
19.2368

>  <SCORE.INTER.VDW>
-24.9933

>  <SCORE.INTER.norm>
-0.846958

>  <SCORE.INTRA>
3.05072

>  <SCORE.INTRA.DIHEDRAL>
-3.24834

>  <SCORE.INTRA.DIHEDRAL.0>
30.1357

>  <SCORE.INTRA.POLAR>
-0.525048

>  <SCORE.INTRA.POLAR.0>
-0.631696

>  <SCORE.INTRA.REPUL>
0

>  <SCORE.INTRA.REPUL.0>
0

>  <SCORE.INTRA.SOLV>
0.636983

>  <SCORE.INTRA.SOLV.lig_0>
-55.904

>  <SCORE.INTRA.VDW>
6.14157

>  <SCORE.INTRA.VDW.0>
-8.21197

>  <SCORE.INTRA.norm>
0.0726363

>  <SCORE.RESTR>
0

>  <SCORE.RESTR.CAVITY>
0

>  <SCORE.RESTR.norm>
0

>  <SCORE.SYSTEM>
0

>  <SCORE.SYSTEM.CONST>
0

>  <SCORE.SYSTEM.DIHEDRAL>
0

>  <SCORE.SYSTEM.SOLV>
0

>  <SCORE.SYSTEM.norm>
0

>  <SCORE.heavy>
42

>  <SCORE.norm>
-0.774322

>  <RMSD>
5.636

$$$$
lig.pdb
 OpenBabel11021811453D
libRbt.so/2013.1/901 2013/11/27
 42 45  0  0  0  0  0  0  0  0999 V2000
   -0.8550    1.4505    4.2114 C   0  0  2  0  0  0  0  0  0  0  0  0
    0.1587    1.9541    3.3395 O   0  0  0  0  0  0  0  0  0  0  0  0
   -0.2805    0.3911    5.1640 C   0  0  2  0  0  0  0  0  0  0  0  0
    0.8775    0.9207    5.9077 N   0  0  0  0  0  0  0  0  0  0  0  0
    0.0916   -0.8883    4.4036 C   0  0  1  0  0  0  0  0  0  0  0  0
    0.4712   -1.8902    5.3275 O   0  0  0  0  0  0  0  0  0  0  0  0
   -1.1056   -1.3841    3.5785 C   0  0  2  0  0  0  0  0  0  0  0  0
   -0.6977   -2.4677    2.7656 O   0  0  0  0  0  0  0  0  0  0  0  0
   -1.6892   -0.2610    2.6974 C   0  0  2  0  0  0  0  0  0  0  0  0
   -1.9442    0.9160    3.4633 O   0  0  0  0  0  0  0  0  0  0  0  0
   -3.0031   -0.7729    2.0769 C   0  0  0  0  0  0  0  0  0  0  0  0
   -2.7738   -1.8145    1.0906 O   0  0  0  0  0  0  0  0  0  0  0  0
   -0.3597    4.9253    0.2679 C   0  0  2  0  0  0  0  0  0  0  0  0
   -0.9445    5.4159   -0.9961 N   0  0  0  0  0  0  0  0  0  0  0  0
    0.4558    3.6541    0.0186 C   0  0  0  0  0  0  0  0  0  0  0  0
    0.9451    3.0632    1.3355 C   0  0  2  0  0  0  0  0  0  0  0  0
    1.8069    1.9020    1.0810 N   0  0  0  0  0  0  0  0  0  0  0  0
   -0.2874    2.6935    2.1933 C   0  0  2  0  0  0  0  0  0  0  0  0
   -0.9962    3.9544    2.5719 C   0  0  2  0  0  0  0  0  0  0  0  0
   -2.0951    3.5970    3.3899 O   0  0  0  0  0  0  0  0  0  0  0  0
   -1.4570    4.6763    1.3198 C   0  0  1  0  0  0  0  0  0  0  0  0
   -2.0618    5.9211    1.6162 O   0  0  0  0  0  0  0  0  0  0  0  0
   -2.3622    4.4047    4.5315 C   0  0  1  0  0  0  0  0  0  0  0  0
   -1.2899    4.1014    5.5801 C   0  0  2  0  0  0  0  0  0  0  0  0
   -1.8677    4.1587    6.8707 O   0  0  0  0  0  0  0  0  0  0  0  0
   -0.2638    5.2161    5.3357 C   0  0  2  0  0  0  0  0  0  0  0  0
    0.5783    5.4503    6.4648 O   0  0  0  0  0  0  0  0  0  0  0  0
   -1.2070    6.3732    4.9843 C   0  0  2  0  0  0  0  0  0  0  0  0
   -2.2226    5.7778    4.1890 O   0  0  0  0  0  0  0  0  0  0  0  0
   -0.5498    7.5057    4.1868 C   0  0  0  0  0  0  0  0  0  0  0  0
   -1.4294    8.5958    4.0102 O   0  0  0  0  0  0  0  0  0  0  0  0
    1.8026    6.1174    6.1649 C   0  0  2  0  0  0  0  0  0  0  0  0
    2.8830    5.8281    7.2182 C   0  0  2  0  0  0  0  0  0  0  0  0
    3.0884    4.3788    7.3769 N   0  0  0  0  0  0  0  0  0  0  0  0
    2.5442    6.4981    8.5583 C   0  0  1  0  0  0  0  0  0  0  0  0
    3.6108    6.2707    9.4591 O   0  0  0  0  0  0  0  0  0  0  0  0
    2.3664    8.0067    8.3166 C   0  0  2  0  0  0  0  0  0  0  0  0
    2.0095    8.6680    9.5164 O   0  0  0  0  0  0  0  0  0  0  0  0
    1.3124    8.2706    7.2216 C   0  0  1  0  0  0  0  0  0  0  0  0
    1.5903    7.5215    6.0363 O   0  0  0  0  0  0  0  0  0  0  0  0
   -0.1312    8.0659    7.7043 C   0  0  0  0  0  0  0  0  0  0  0  0
   -0.7782    9.3497    8.0198 N   0  0  0  0  0  0  0  0  0  0  0  0
  1  3  1  0  0  0  0
  1  2  1  6  0  0  0
  3  4  1  6  0  0  0
  5  6  1  1  0  0  0
  5  3  1  0  0  0  0
  7  9  1  0  0  0  0
  7  5  1  0  0  0  0
  7  8  1  6  0  0  0
  9 10  1  0  0  0  0
  9 11  1  1  0  0  0
 10  1  1  0  0  0  0
 11 12  1  0  0  0  0
 13 14  1  6  0  0  0
 13 21  1  0  0  0  0
 15 13  1  0  0  0  0
 16 15  1  0  0  0  0
 16 18  1  0  0  0  0
 16 17  1  6  0  0  0
 18  2  1  1  0  0  0
 18 19  1  0  0  0  0
 19 21  1  0  0  0  0
 19 20  1  1  0  0  0
 21 22  1  1  0  0  0
 23 20  1  6  0  0  0
 23 29  1  0  0  0  0
 23 24  1  0  0  0  0
 24 26  1  0  0  0  0
 24 25  1  1  0  0  0
 26 27  1  1  0  0  0
 28 26  1  0  0  0  0
 28 30  1  6  0  0  0
 29 28  1  0  0  0  0
 30 31  1  0  0  0  0
 32 27  1  1  0  0  0
 32 40  1  0  0  0  0
 32 33  1  0  0  0  0
 33 35  1  0  0  0  0
 33 34  1  1  0  0  0
 35 37  1  0  0  0  0
 35 36  1  1  0  0  0
 37 38  1  1  0  0  0
 39 37  1  0  0  0  0
 39 41  1  1  0  0  0
 40 39  1  0  0  0  0
 42 41  1  0  0  0  0
M  END
>  <CHROM.1>
-176.17418272,165.10419599,94.56731184,-59.77741864,36.03307660,-56.90328046
-69.30124321,-41.87202373,55.33991610,138.30381722,-73.43319216,-49.84568956
68.99950422,159.66359961,-156.02253114,-174.13714952,171.64422272,-94.96010912
-69.12921227,65.44715785,100.31125508,-76.43053592,-0.13615878,3.96112146
4.50785393,-2.16820814,-1.12360246,0.05583583

>  <Name>
lig.pdb

>  <RI>
4.11275e+07

>  <Rbt.Current_Directory>
/home/itssahil/PROJECTS/Mol_Feturizer/New_Systems/rnas/2mxs

>  <Rbt.Executable>
rbdock ($Id: //depot/dev/client3/rdock/2013.1/src/exe/rbdock.cxx#4 $)

>  <Rbt.Library>
libRbt.so (2013.1, Build901 2013/11/27)

>  <Rbt.Parameter_File>
/export/apps/rDock/src/rDock_2013.1_src/data/scripts/dock_solv.prm

>  <Rbt.Receptor>
prm/pocket_docking_8.prm

>  <SCORE>
-46.2391

>  <SCORE.INTER>
-51.5029

>  <SCORE.INTER.CONST>
1

>  <SCORE.INTER.POLAR>
-7.40266

>  <SCORE.INTER.ROT>
9

>  <SCORE.INTER.SOLV>
20.1263

>  <SCORE.INTER.VDW>
-25.9685

>  <SCORE.INTER.norm>
-1.22626

>  <SCORE.INTRA>
5.26373

>  <SCORE.INTRA.DIHEDRAL>
-3.11064

>  <SCORE.INTRA.DIHEDRAL.0>
30.1357

>  <SCORE.INTRA.POLAR>
0.522278

>  <SCORE.INTRA.POLAR.0>
-0.631696

>  <SCORE.INTRA.REPUL>
0.0139027

>  <SCORE.INTRA.REPUL.0>
0

>  <SCORE.INTRA.SOLV>
0.5254

>  <SCORE.INTRA.SOLV.lig_0>
-55.904

>  <SCORE.INTRA.VDW>
4.71109

>  <SCORE.INTRA.VDW.0>
-8.21197

>  <SCORE.INTRA.norm>
0.125327

>  <SCORE.RESTR>
0

>  <SCORE.RESTR.CAVITY>
0

>  <SCORE.RESTR.norm>
0

>  <SCORE.SYSTEM>
0

>  <SCORE.SYSTEM.CONST>
0

>  <SCORE.SYSTEM.DIHEDRAL>
0

>  <SCORE.SYSTEM.SOLV>
0

>  <SCORE.SYSTEM.norm>
0

>  <SCORE.heavy>
42

>  <SCORE.norm>
-1.10093

>  <RMSD>
5.648

$$$$
lig.pdb
 OpenBabel11021811453D
libRbt.so/2013.1/901 2013/11/27
 42 45  0  0  0  0  0  0  0  0999 V2000
   -0.5983    5.1372    1.9696 C   0  0  2  0  0  0  0  0  0  0  0  0
    0.1200    5.7722    0.9103 O   0  0  0  0  0  0  0  0  0  0  0  0
   -2.0944    5.4782    1.8975 C   0  0  2  0  0  0  0  0  0  0  0  0
   -2.6499    5.1442    0.5730 N   0  0  0  0  0  0  0  0  0  0  0  0
   -2.3395    6.9529    2.2417 C   0  0  1  0  0  0  0  0  0  0  0  0
   -3.7318    7.1930    2.3150 O   0  0  0  0  0  0  0  0  0  0  0  0
   -1.6916    7.2993    3.5908 C   0  0  2  0  0  0  0  0  0  0  0  0
   -1.7911    8.6927    3.8143 O   0  0  0  0  0  0  0  0  0  0  0  0
   -0.2117    6.8678    3.6349 C   0  0  2  0  0  0  0  0  0  0  0  0
   -0.0592    5.5057    3.2367 O   0  0  0  0  0  0  0  0  0  0  0  0
    0.2970    7.0481    5.0778 C   0  0  0  0  0  0  0  0  0  0  0  0
    0.8622    5.8231    5.6165 O   0  0  0  0  0  0  0  0  0  0  0  0
    2.5225    3.6482   -1.9616 C   0  0  2  0  0  0  0  0  0  0  0  0
    3.7346    2.9076   -2.3650 N   0  0  0  0  0  0  0  0  0  0  0  0
    2.8905    5.0616   -1.5035 C   0  0  0  0  0  0  0  0  0  0  0  0
    1.6660    5.7836   -0.9536 C   0  0  2  0  0  0  0  0  0  0  0  0
    2.0071    7.1694   -0.6085 N   0  0  0  0  0  0  0  0  0  0  0  0
    1.1409    4.9944    0.2682 C   0  0  2  0  0  0  0  0  0  0  0  0
    0.6320    3.6709   -0.2062 C   0  0  2  0  0  0  0  0  0  0  0  0
    0.1186    2.9827    0.9196 O   0  0  0  0  0  0  0  0  0  0  0  0
    1.7609    2.8933   -0.8559 C   0  0  1  0  0  0  0  0  0  0  0  0
    1.3160    1.6646   -1.3994 O   0  0  0  0  0  0  0  0  0  0  0  0
    1.0136    2.7038    1.9911 C   0  0  1  0  0  0  0  0  0  0  0  0
    0.1983    2.0980    3.1355 C   0  0  2  0  0  0  0  0  0  0  0  0
    0.7265    2.5403    4.3717 O   0  0  0  0  0  0  0  0  0  0  0  0
    0.3840    0.5911    2.9122 C   0  0  2  0  0  0  0  0  0  0  0  0
    0.1352   -0.1775    4.0895 O   0  0  0  0  0  0  0  0  0  0  0  0
    1.8383    0.5718    2.4255 C   0  0  2  0  0  0  0  0  0  0  0  0
    1.9498    1.7129    1.5865 O   0  0  0  0  0  0  0  0  0  0  0  0
    2.2202   -0.6765    1.6217 C   0  0  0  0  0  0  0  0  0  0  0  0
    3.6063   -0.9356    1.6907 O   0  0  0  0  0  0  0  0  0  0  0  0
   -0.8239    0.3911    4.9789 C   0  0  2  0  0  0  0  0  0  0  0  0
   -0.3900    0.2584    6.4466 C   0  0  2  0  0  0  0  0  0  0  0  0
    0.9454    0.8423    6.6555 N   0  0  0  0  0  0  0  0  0  0  0  0
   -0.4425   -1.2052    6.9101 C   0  0  1  0  0  0  0  0  0  0  0  0
   -0.1180   -1.2550    8.2859 O   0  0  0  0  0  0  0  0  0  0  0  0
   -1.8677   -1.7368    6.6816 C   0  0  2  0  0  0  0  0  0  0  0  0
   -1.9600   -3.0997    7.0536 O   0  0  0  0  0  0  0  0  0  0  0  0
   -2.2989   -1.5487    5.2125 C   0  0  1  0  0  0  0  0  0  0  0  0
   -2.1058   -0.2004    4.7790 O   0  0  0  0  0  0  0  0  0  0  0  0
   -1.6501   -2.5580    4.2537 C   0  0  0  0  0  0  0  0  0  0  0  0
   -0.2185   -2.7326    4.5473 N   0  0  0  0  0  0  0  0  0  0  0  0
  1  3  1  0  0  0  0
  1  2  1  6  0  0  0
  3  4  1  6  0  0  0
  5  6  1  1  0  0  0
  5  3  1  0  0  0  0
  7  9  1  0  0  0  0
  7  5  1  0  0  0  0
  7  8  1  6  0  0  0
  9 10  1  0  0  0  0
  9 11  1  1  0  0  0
 10  1  1  0  0  0  0
 11 12  1  0  0  0  0
 13 14  1  1  0  0  0
 13 21  1  0  0  0  0
 15 13  1  0  0  0  0
 16 15  1  0  0  0  0
 16 18  1  0  0  0  0
 16 17  1  1  0  0  0
 18  2  1  6  0  0  0
 18 19  1  0  0  0  0
 19 21  1  0  0  0  0
 19 20  1  1  0  0  0
 21 22  1  6  0  0  0
 23 20  1  6  0  0  0
 23 29  1  0  0  0  0
 23 24  1  0  0  0  0
 24 26  1  0  0  0  0
 24 25  1  1  0  0  0
 26 27  1  1  0  0  0
 28 26  1  0  0  0  0
 28 30  1  6  0  0  0
 29 28  1  0  0  0  0
 30 31  1  0  0  0  0
 32 27  1  6  0  0  0
 32 40  1  0  0  0  0
 32 33  1  0  0  0  0
 33 35  1  0  0  0  0
 33 34  1  6  0  0  0
 35 37  1  0  0  0  0
 35 36  1  1  0  0  0
 37 38  1  6  0  0  0
 39 37  1  0  0  0  0
 39 41  1  6  0  0  0
 40 39  1  0  0  0  0
 42 41  1  0  0  0  0
M  END
>  <CHROM.1>
172.76584243,-139.21578640,161.56129514,63.57977576,-65.04156905,72.22489628
124.82160268,158.91187361,7.88190334,-60.17132699,174.02973262,-49.84786251
-90.78814183,30.08800592,-138.30818953,-154.72721949,61.97904920,-62.75945087
-64.11913962,35.23656751,-43.44985452,-49.32303487,0.13935639,2.68337670
2.78121641,1.38105251,0.97988329,-0.44983059

>  <Name>
lig.pdb

>  <RI>
0

>  <Rbt.Current_Directory>
/home/itssahil/PROJECTS/Mol_Feturizer/New_Systems/rnas/2mxs

>  <Rbt.Executable>
rbdock ($Id: //depot/dev/client3/rdock/2013.1/src/exe/rbdock.cxx#4 $)

>  <Rbt.Library>
libRbt.so (2013.1, Build901 2013/11/27)

>  <Rbt.Parameter_File>
/export/apps/rDock/src/rDock_2013.1_src/data/scripts/dock_solv.prm

>  <Rbt.Receptor>
prm/blind_docking_80.prm

>  <SCORE>
-14.5206

>  <SCORE.INTER>
-39.2037

>  <SCORE.INTER.CONST>
1

>  <SCORE.INTER.POLAR>
-5.64341

>  <SCORE.INTER.ROT>
9

>  <SCORE.INTER.SOLV>
35.1304

>  <SCORE.INTER.VDW>
-28.6346

>  <SCORE.INTER.norm>
-0.933421

>  <SCORE.INTRA>
13.7837

>  <SCORE.INTRA.DIHEDRAL>
6.88227

>  <SCORE.INTRA.DIHEDRAL.0>
30.1357

>  <SCORE.INTRA.POLAR>
-0.686697

>  <SCORE.INTRA.POLAR.0>
-0.631696

>  <SCORE.INTRA.REPUL>
0

>  <SCORE.INTRA.REPUL.0>
0

>  <SCORE.INTRA.SOLV>
1.53166

>  <SCORE.INTRA.SOLV.lig_0>
-55.904

>  <SCORE.INTRA.VDW>
11.9115

>  <SCORE.INTRA.VDW.0>
-8.21197

>  <SCORE.INTRA.norm>
0.328184

>  <SCORE.RESTR>
10.8994

>  <SCORE.RESTR.CAVITY>
10.8994

>  <SCORE.RESTR.norm>
0.259508

>  <SCORE.SYSTEM>
0

>  <SCORE.SYSTEM.CONST>
0

>  <SCORE.SYSTEM.DIHEDRAL>
0

>  <SCORE.SYSTEM.SOLV>
0

>  <SCORE.SYSTEM.norm>
0

>  <SCORE.heavy>
42

>  <SCORE.norm>
-0.345729

>  <RMSD>
5.659

$$$$
lig.pdb
 OpenBabel11021811453D
libRbt.so/2013.1/901 2013/11/27
 42 45  0  0  0  0  0  0  0  0999 V2000
    1.9316    2.0820   -1.3752 C   0  0  2  0  0  0  0  0  0  0  0  0
    1.5668    3.2151   -0.5849 O   0  0  0  0  0  0  0  0  0  0  0  0
    0.6852    1.3069   -1.8283 C   0  0  2  0  0  0  0  0  0  0  0  0
   -0.2614    2.1919   -2.5320 N   0  0  0  0  0  0  0  0  0  0  0  0
    0.0090    0.6101   -0.6406 C   0  0  1  0  0  0  0  0  0  0  0  0
   -1.0392   -0.2138   -1.1141 O   0  0  0  0  0  0  0  0  0  0  0  0
    1.0277   -0.2504    0.1220 C   0  0  2  0  0  0  0  0  0  0  0  0
    0.4265   -0.7557    1.2987 O   0  0  0  0  0  0  0  0  0  0  0  0
    2.2900    0.5573    0.4861 C   0  0  2  0  0  0  0  0  0  0  0  0
    2.8195    1.2299   -0.6560 O   0  0  0  0  0  0  0  0  0  0  0  0
    3.3395   -0.4212    1.0467 C   0  0  0  0  0  0  0  0  0  0  0  0
    4.6959   -0.0153    0.7212 O   0  0  0  0  0  0  0  0  0  0  0  0
    2.6394    7.3169   -1.3302 C   0  0  2  0  0  0  0  0  0  0  0  0
    2.7871    8.4945   -2.2087 N   0  0  0  0  0  0  0  0  0  0  0  0
    3.5038    6.1611   -1.8401 C   0  0  0  0  0  0  0  0  0  0  0  0
    3.2502    4.8999   -1.0228 C   0  0  2  0  0  0  0  0  0  0  0  0
    4.1534    3.8258   -1.4547 N   0  0  0  0  0  0  0  0  0  0  0  0
    1.7633    4.5056   -1.1809 C   0  0  2  0  0  0  0  0  0  0  0  0
    0.9226    5.5617   -0.5379 C   0  0  2  0  0  0  0  0  0  0  0  0
   -0.4302    5.1613   -0.6569 O   0  0  0  0  0  0  0  0  0  0  0  0
    1.1624    6.8930   -1.2245 C   0  0  1  0  0  0  0  0  0  0  0  0
    0.4537    7.9477   -0.6012 O   0  0  0  0  0  0  0  0  0  0  0  0
   -0.9336    4.2337    0.2987 C   0  0  1  0  0  0  0  0  0  0  0  0
   -0.2717    4.5421    1.6433 C   0  0  2  0  0  0  0  0  0  0  0  0
   -0.0433    3.3322    2.3410 O   0  0  0  0  0  0  0  0  0  0  0  0
   -1.3136    5.4377    2.3271 C   0  0  2  0  0  0  0  0  0  0  0  0
   -1.1683    5.4707    3.7471 O   0  0  0  0  0  0  0  0  0  0  0  0
   -2.6030    4.7751    1.8266 C   0  0  2  0  0  0  0  0  0  0  0  0
   -2.3300    4.4380    0.4737 O   0  0  0  0  0  0  0  0  0  0  0  0
   -3.8396    5.6801    1.8744 C   0  0  0  0  0  0  0  0  0  0  0  0
   -4.9265    5.1130    1.1744 O   0  0  0  0  0  0  0  0  0  0  0  0
   -2.0755    6.3436    4.4173 C   0  0  2  0  0  0  0  0  0  0  0  0
   -1.4783    7.7453    4.6144 C   0  0  2  0  0  0  0  0  0  0  0  0
   -1.0378    8.3149    3.3300 N   0  0  0  0  0  0  0  0  0  0  0  0
   -0.3354    7.7217    5.6405 C   0  0  1  0  0  0  0  0  0  0  0  0
    0.1157    9.0467    5.8444 O   0  0  0  0  0  0  0  0  0  0  0  0
   -0.8755    7.1368    6.9566 C   0  0  2  0  0  0  0  0  0  0  0  0
    0.1521    7.0525    7.9267 O   0  0  0  0  0  0  0  0  0  0  0  0
   -1.5131    5.7513    6.7251 C   0  0  1  0  0  0  0  0  0  0  0  0
   -2.4748    5.7878    5.6682 O   0  0  0  0  0  0  0  0  0  0  0  0
   -0.4808    4.6322    6.5230 C   0  0  0  0  0  0  0  0  0  0  0  0
    0.5398    5.0163    5.5345 N   0  0  0  0  0  0  0  0  0  0  0  0
  1  3  1  0  0  0  0
  1  2  1  1  0  0  0
  3  4  1  1  0  0  0
  5  6  1  6  0  0  0
  5  3  1  0  0  0  0
  7  9  1  0  0  0  0
  7  5  1  0  0  0  0
  7  8  1  1  0  0  0
  9 10  1  0  0  0  0
  9 11  1  6  0  0  0
 10  1  1  0  0  0  0
 11 12  1  0  0  0  0
 13 14  1  6  0  0  0
 13 21  1  0  0  0  0
 15 13  1  0  0  0  0
 16 15  1  0  0  0  0
 16 18  1  0  0  0  0
 16 17  1  6  0  0  0
 18  2  1  1  0  0  0
 18 19  1  0  0  0  0
 19 21  1  0  0  0  0
 19 20  1  6  0  0  0
 21 22  1  1  0  0  0
 23 20  1  6  0  0  0
 23 29  1  0  0  0  0
 23 24  1  0  0  0  0
 24 26  1  0  0  0  0
 24 25  1  1  0  0  0
 26 27  1  1  0  0  0
 28 26  1  0  0  0  0
 28 30  1  6  0  0  0
 29 28  1  0  0  0  0
 30 31  1  0  0  0  0
 32 27  1  1  0  0  0
 32 40  1  0  0  0  0
 32 33  1  0  0  0  0
 33 35  1  0  0  0  0
 33 34  1  6  0  0  0
 35 37  1  0  0  0  0
 35 36  1  1  0  0  0
 37 38  1  1  0  0  0
 39 37  1  0  0  0  0
 39 41  1  6  0  0  0
 40 39  1  0  0  0  0
 42 41  1  0  0  0  0
M  END
>  <CHROM.1>
-81.20037762,-109.77781858,-69.28780983,47.51657855,51.67359964,-60.45691936
147.26032829,-66.48231425,61.09004123,82.29861348,35.44234464,-48.88676530
174.52450541,177.04714280,-92.26854923,168.78702507,74.53245141,-74.11278621
-158.96941597,-51.01563932,-48.67212885,-38.20588119,0.26496364,4.47033410
1.47219888,0.63121916,-1.10359349,-3.13163156

>  <Name>
lig.pdb

>  <RI>
3.17932e+07

>  <Rbt.Current_Directory>
/home/itssahil/PROJECTS/Mol_Feturizer/New_Systems/rnas/2mxs

>  <Rbt.Executable>
rbdock ($Id: //depot/dev/client3/rdock/2013.1/src/exe/rbdock.cxx#4 $)

>  <Rbt.Library>
libRbt.so (2013.1, Build901 2013/11/27)

>  <Rbt.Parameter_File>
/export/apps/rDock/src/rDock_2013.1_src/data/scripts/dock_solv.prm

>  <Rbt.Receptor>
prm/blind_docking_100.prm

>  <SCORE>
-16.2342

>  <SCORE.INTER>
-41.1101

>  <SCORE.INTER.CONST>
1

>  <SCORE.INTER.POLAR>
-5.09733

>  <SCORE.INTER.ROT>
9

>  <SCORE.INTER.SOLV>
31.2154

>  <SCORE.INTER.VDW>
-30.4208

>  <SCORE.INTER.norm>
-0.978813

>  <SCORE.INTRA>
2.87806

>  <SCORE.INTRA.DIHEDRAL>
-1.04036

>  <SCORE.INTRA.DIHEDRAL.0>
30.1357

>  <SCORE.INTRA.POLAR>
-1.07327

>  <SCORE.INTRA.POLAR.0>
-0.631696

>  <SCORE.INTRA.REPUL>
0.0529396

>  <SCORE.INTRA.REPUL.0>
0

>  <SCORE.INTRA.SOLV>
0.64454

>  <SCORE.INTRA.SOLV.lig_0>
-55.904

>  <SCORE.INTRA.VDW>
6.46039

>  <SCORE.INTRA.VDW.0>
-8.21197

>  <SCORE.INTRA.norm>
0.0685252

>  <SCORE.RESTR>
21.9979

>  <SCORE.RESTR.CAVITY>
21.9979

>  <SCORE.RESTR.norm>
0.523759

>  <SCORE.SYSTEM>
0

>  <SCORE.SYSTEM.CONST>
0

>  <SCORE.SYSTEM.DIHEDRAL>
0

>  <SCORE.SYSTEM.SOLV>
0

>  <SCORE.SYSTEM.norm>
0

>  <SCORE.heavy>
42

>  <SCORE.norm>
-0.386529

>  <RMSD>
5.670

$$$$
lig.pdb
 OpenBabel11021811453D
libRbt.so/2013.1/901 2013/11/27
 42 45  0  0  0  0  0  0  0  0999 V2000
    0.4831    1.6285    1.0666 C   0  0  2  0  0  0  0  0  0  0  0  0
    1.4755    2.5923    0.7089 O   0  0  0  0  0  0  0  0  0  0  0  0
    1.0748    0.2110    1.0744 C   0  0  2  0  0  0  0  0  0  0  0  0
    2.2599    0.1371    1.9488 N   0  0  0  0  0  0  0  0  0  0  0  0
    1.4107   -0.2526   -0.3489 C   0  0  1  0  0  0  0  0  0  0  0  0
    1.8074   -1.6102   -0.3194 O   0  0  0  0  0  0  0  0  0  0  0  0
    0.1843   -0.1004   -1.2614 C   0  0  2  0  0  0  0  0  0  0  0  0
    0.5565   -0.3812   -2.5971 O   0  0  0  0  0  0  0  0  0  0  0  0
   -0.4136    1.3184   -1.1733 C   0  0  2  0  0  0  0  0  0  0  0  0
   -0.6335    1.7023    0.1837 O   0  0  0  0  0  0  0  0  0  0  0  0
   -1.7507    1.3230   -1.9384 C   0  0  0  0  0  0  0  0  0  0  0  0
   -2.7306    0.4369   -1.3344 O   0  0  0  0  0  0  0  0  0  0  0  0
    0.8377    6.7307   -0.2900 C   0  0  2  0  0  0  0  0  0  0  0  0
    0.2409    7.8047   -1.1088 N   0  0  0  0  0  0  0  0  0  0  0  0
    1.7180    5.8273   -1.1572 C   0  0  0  0  0  0  0  0  0  0  0  0
    2.2239    4.6368   -0.3512 C   0  0  2  0  0  0  0  0  0  0  0  0
    3.1450    3.8304   -1.1619 N   0  0  0  0  0  0  0  0  0  0  0  0
    1.0036    3.8167    0.1281 C   0  0  2  0  0  0  0  0  0  0  0  0
    0.2294    4.6456    1.1023 C   0  0  2  0  0  0  0  0  0  0  0  0
   -0.8578    3.8624    1.5595 O   0  0  0  0  0  0  0  0  0  0  0  0
   -0.2554    5.9122    0.4225 C   0  0  1  0  0  0  0  0  0  0  0  0
   -0.9243    6.7758    1.3224 O   0  0  0  0  0  0  0  0  0  0  0  0
   -1.5075    4.2664    2.7602 C   0  0  1  0  0  0  0  0  0  0  0  0
   -2.4304    3.1274    3.1985 C   0  0  2  0  0  0  0  0  0  0  0  0
   -3.6029    3.6706    3.7754 O   0  0  0  0  0  0  0  0  0  0  0  0
   -1.5624    2.3698    4.2122 C   0  0  2  0  0  0  0  0  0  0  0  0
   -2.3314    1.5685    5.1095 O   0  0  0  0  0  0  0  0  0  0  0  0
   -0.8294    3.5473    4.8667 C   0  0  2  0  0  0  0  0  0  0  0  0
   -0.5438    4.4323    3.7927 O   0  0  0  0  0  0  0  0  0  0  0  0
    0.4834    3.1681    5.5619 C   0  0  0  0  0  0  0  0  0  0  0  0
    0.2642    2.2842    6.6407 O   0  0  0  0  0  0  0  0  0  0  0  0
   -3.2980    0.7307    4.4787 C   0  0  2  0  0  0  0  0  0  0  0  0
   -4.3082    0.1647    5.4883 C   0  0  2  0  0  0  0  0  0  0  0  0
   -4.9538    1.2469    6.2499 N   0  0  0  0  0  0  0  0  0  0  0  0
   -3.6453   -0.8608    6.4203 C   0  0  1  0  0  0  0  0  0  0  0  0
   -4.6371   -1.4090    7.2667 O   0  0  0  0  0  0  0  0  0  0  0  0
   -3.0147   -1.9664    5.5566 C   0  0  2  0  0  0  0  0  0  0  0  0
   -2.3509   -2.9185    6.3674 O   0  0  0  0  0  0  0  0  0  0  0  0
   -2.0414   -1.3698    4.5191 C   0  0  1  0  0  0  0  0  0  0  0  0
   -2.6578   -0.3241    3.7643 O   0  0  0  0  0  0  0  0  0  0  0  0
   -0.7018   -0.9266    5.1256 C   0  0  0  0  0  0  0  0  0  0  0  0
    0.1807   -2.0778    5.3752 N   0  0  0  0  0  0  0  0  0  0  0  0
  1  3  1  0  0  0  0
  1  2  1  6  0  0  0
  3  4  1  1  0  0  0
  5  6  1  1  0  0  0
  5  3  1  0  0  0  0
  7  9  1  0  0  0  0
  7  5  1  0  0  0  0
  7  8  1  6  0  0  0
  9 10  1  0  0  0  0
  9 11  1  6  0  0  0
 10  1  1  0  0  0  0
 11 12  1  0  0  0  0
 13 14  1  6  0  0  0
 13 21  1  0  0  0  0
 15 13  1  0  0  0  0
 16 15  1  0  0  0  0
 16 18  1  0  0  0  0
 16 17  1  6  0  0  0
 18  2  1  1  0  0  0
 18 19  1  0  0  0  0
 19 21  1  0  0  0  0
 19 20  1  6  0  0  0
 21 22  1  1  0  0  0
 23 20  1  6  0  0  0
 23 29  1  0  0  0  0
 23 24  1  0  0  0  0
 24 26  1  0  0  0  0
 24 25  1  1  0  0  0
 26 27  1  1  0  0  0
 28 26  1  0  0  0  0
 28 30  1  6  0  0  0
 29 28  1  0  0  0  0
 30 31  1  0  0  0  0
 32 27  1  1  0  0  0
 32 40  1  0  0  0  0
 32 33  1  0  0  0  0
 33 35  1  0  0  0  0
 33 34  1  1  0  0  0
 35 37  1  0  0  0  0
 35 36  1  1  0  0  0
 37 38  1  1  0  0  0
 39 37  1  0  0  0  0
 39 41  1  1  0  0  0
 40 39  1  0  0  0  0
 42 41  1  0  0  0  0
M  END
>  <CHROM.1>
-172.77481712,154.91408144,-19.97620973,-140.70222667,-171.66300323,-48.15064292
63.47724509,34.93669255,-53.45470634,162.05824974,-168.33195077,78.57626904
-52.79137204,49.23902329,-166.05840202,-63.26978687,64.67853879,173.29697468
-162.99410004,65.56647866,77.66413686,-47.80394792,-0.77492568,1.86335903
2.32899859,-0.57902185,-1.04998845,3.12465438

>  <Name>
lig.pdb

>  <RI>
4.11275e+07

>  <Rbt.Current_Directory>
/home/itssahil/PROJECTS/Mol_Feturizer/New_Systems/rnas/2mxs

>  <Rbt.Executable>
rbdock ($Id: //depot/dev/client3/rdock/2013.1/src/exe/rbdock.cxx#4 $)

>  <Rbt.Library>
libRbt.so (2013.1, Build901 2013/11/27)

>  <Rbt.Parameter_File>
/export/apps/rDock/src/rDock_2013.1_src/data/scripts/dock_solv.prm

>  <Rbt.Receptor>
prm/pocket_docking_8.prm

>  <SCORE>
-55.4151

>  <SCORE.INTER>
-56.0257

>  <SCORE.INTER.CONST>
1

>  <SCORE.INTER.POLAR>
-7.61857

>  <SCORE.INTER.ROT>
9

>  <SCORE.INTER.SOLV>
20.3997

>  <SCORE.INTER.VDW>
-28.3551

>  <SCORE.INTER.norm>
-1.33394

>  <SCORE.INTRA>
0.479575

>  <SCORE.INTRA.DIHEDRAL>
-7.54266

>  <SCORE.INTRA.DIHEDRAL.0>
30.1357

>  <SCORE.INTRA.POLAR>
-0.0823849

>  <SCORE.INTRA.POLAR.0>
-0.631696

>  <SCORE.INTRA.REPUL>
0.014677

>  <SCORE.INTRA.REPUL.0>
0

>  <SCORE.INTRA.SOLV>
-0.12106

>  <SCORE.INTRA.SOLV.lig_0>
-55.904

>  <SCORE.INTRA.VDW>
4.51816

>  <SCORE.INTRA.VDW.0>
-8.21197

>  <SCORE.INTRA.norm>
0.0114185

>  <SCORE.RESTR>
0.131044

>  <SCORE.RESTR.CAVITY>
0.131044

>  <SCORE.RESTR.norm>
0.0031201

>  <SCORE.SYSTEM>
0

>  <SCORE.SYSTEM.CONST>
0

>  <SCORE.SYSTEM.DIHEDRAL>
0

>  <SCORE.SYSTEM.SOLV>
0

>  <SCORE.SYSTEM.norm>
0

>  <SCORE.heavy>
42

>  <SCORE.norm>
-1.31941

>  <RMSD>
5.671

$$$$
lig.pdb
 OpenBabel11021811453D
libRbt.so/2013.1/901 2013/11/27
 42 45  0  0  0  0  0  0  0  0999 V2000
   -0.2533    2.4223    4.5904 C   0  0  2  0  0  0  0  0  0  0  0  0
    0.5689    2.5483    3.4287 O   0  0  0  0  0  0  0  0  0  0  0  0
    0.1672    1.2060    5.4292 C   0  0  2  0  0  0  0  0  0  0  0  0
    1.6008    1.2677    5.7688 N   0  0  0  0  0  0  0  0  0  0  0  0
   -0.1718   -0.1041    4.7065 C   0  0  1  0  0  0  0  0  0  0  0  0
    0.0870   -1.1962    5.5678 O   0  0  0  0  0  0  0  0  0  0  0  0
   -1.6524   -0.1184    4.2973 C   0  0  2  0  0  0  0  0  0  0  0  0
   -1.9065   -1.2574    3.4976 O   0  0  0  0  0  0  0  0  0  0  0  0
   -2.0378    1.1590    3.5240 C   0  0  2  0  0  0  0  0  0  0  0  0
   -1.6288    2.3314    4.2277 O   0  0  0  0  0  0  0  0  0  0  0  0
   -3.5678    1.1670    3.3446 C   0  0  0  0  0  0  0  0  0  0  0  0
   -4.0076    2.2133    2.4378 O   0  0  0  0  0  0  0  0  0  0  0  0
   -0.1256    4.9716   -0.0607 C   0  0  2  0  0  0  0  0  0  0  0  0
   -0.9458    5.4185   -1.2043 N   0  0  0  0  0  0  0  0  0  0  0  0
    0.1774    3.4756   -0.1759 C   0  0  0  0  0  0  0  0  0  0  0  0
    0.9021    2.9772    1.0688 C   0  0  2  0  0  0  0  0  0  0  0  0
    1.2751    1.5663    0.9074 N   0  0  0  0  0  0  0  0  0  0  0  0
   -0.0186    3.1972    2.2916 C   0  0  2  0  0  0  0  0  0  0  0  0
   -0.1846    4.6683    2.5007 C   0  0  2  0  0  0  0  0  0  0  0  0
   -0.9951    4.8476    3.6476 O   0  0  0  0  0  0  0  0  0  0  0  0
   -0.8260    5.2889    1.2739 C   0  0  1  0  0  0  0  0  0  0  0  0
   -0.9305    6.6961    1.3832 O   0  0  0  0  0  0  0  0  0  0  0  0
   -0.7816    6.0146    4.4346 C   0  0  1  0  0  0  0  0  0  0  0  0
   -1.6510    5.8985    5.6884 C   0  0  2  0  0  0  0  0  0  0  0  0
   -2.1324    7.1808    6.0446 O   0  0  0  0  0  0  0  0  0  0  0  0
   -0.6704    5.3220    6.7185 C   0  0  2  0  0  0  0  0  0  0  0  0
   -1.0785    5.5620    8.0656 O   0  0  0  0  0  0  0  0  0  0  0  0
    0.6144    6.0449    6.2959 C   0  0  2  0  0  0  0  0  0  0  0  0
    0.5696    6.0531    4.8759 O   0  0  0  0  0  0  0  0  0  0  0  0
    1.9068    5.3559    6.7493 C   0  0  0  0  0  0  0  0  0  0  0  0
    3.0472    6.1181    6.4154 O   0  0  0  0  0  0  0  0  0  0  0  0
   -0.2500    4.9545    9.0548 C   0  0  2  0  0  0  0  0  0  0  0  0
   -0.6136    3.4783    9.2755 C   0  0  2  0  0  0  0  0  0  0  0  0
   -0.5697    2.7303    8.0080 N   0  0  0  0  0  0  0  0  0  0  0  0
   -1.9807    3.3408    9.9624 C   0  0  1  0  0  0  0  0  0  0  0  0
   -2.2224    1.9706   10.2169 O   0  0  0  0  0  0  0  0  0  0  0  0
   -1.9422    4.1271   11.2838 C   0  0  2  0  0  0  0  0  0  0  0  0
   -3.1961    4.0687   11.9386 O   0  0  0  0  0  0  0  0  0  0  0  0
   -1.5280    5.5934   11.0427 C   0  0  1  0  0  0  0  0  0  0  0  0
   -0.3209    5.6777   10.2816 O   0  0  0  0  0  0  0  0  0  0  0  0
   -2.6490    6.4510   10.4372 C   0  0  0  0  0  0  0  0  0  0  0  0
   -2.1041    7.5355    9.6046 N   0  0  0  0  0  0  0  0  0  0  0  0
  1  3  1  0  0  0  0
  1  2  1  6  0  0  0
  3  4  1  6  0  0  0
  5  6  1  1  0  0  0
  5  3  1  0  0  0  0
  7  9  1  0  0  0  0
  7  5  1  0  0  0  0
  7  8  1  6  0  0  0
  9 10  1  0  0  0  0
  9 11  1  1  0  0  0
 10  1  1  0  0  0  0
 11 12  1  0  0  0  0
 13 14  1  6  0  0  0
 13 21  1  0  0  0  0
 15 13  1  0  0  0  0
 16 15  1  0  0  0  0
 16 18  1  0  0  0  0
 16 17  1  6  0  0  0
 18  2  1  1  0  0  0
 18 19  1  0  0  0  0
 19 21  1  0  0  0  0
 19 20  1  1  0  0  0
 21 22  1  1  0  0  0
 23 20  1  6  0  0  0
 23 29  1  0  0  0  0
 23 24  1  0  0  0  0
 24 26  1  0  0  0  0
 24 25  1  1  0  0  0
 26 27  1  1  0  0  0
 28 26  1  0  0  0  0
 28 30  1  6  0  0  0
 29 28  1  0  0  0  0
 30 31  1  0  0  0  0
 32 27  1  6  0  0  0
 32 40  1  0  0  0  0
 32 33  1  0  0  0  0
 33 35  1  0  0  0  0
 33 34  1  6  0  0  0
 35 37  1  0  0  0  0
 35 36  1  1  0  0  0
 37 38  1  6  0  0  0
 39 37  1  0  0  0  0
 39 41  1  6  0  0  0
 40 39  1  0  0  0  0
 42 41  1  0  0  0  0
M  END
>  <CHROM.1>
-168.47637986,152.83507592,55.59972738,57.54776716,-54.94182556,60.64438036
-170.42166907,-62.66774734,-50.76572953,149.47440639,-173.47324556,67.07650400
179.62021256,175.40598936,-82.29427878,-175.70005759,-172.95427419,48.73630426
-60.98181286,65.17533599,-150.45816673,66.77206199,-0.76798196,3.75756587
5.44816143,0.85531754,-1.40182365,-2.49964453

>  <Name>
lig.pdb

>  <RI>
0

>  <Rbt.Current_Directory>
/home/itssahil/PROJECTS/Mol_Feturizer/New_Systems/rnas/2mxs

>  <Rbt.Executable>
rbdock ($Id: //depot/dev/client3/rdock/2013.1/src/exe/rbdock.cxx#4 $)

>  <Rbt.Library>
libRbt.so (2013.1, Build901 2013/11/27)

>  <Rbt.Parameter_File>
/export/apps/rDock/src/rDock_2013.1_src/data/scripts/dock_solv.prm

>  <Rbt.Receptor>
prm/pocket_docking_7.prm

>  <SCORE>
-35.4444

>  <SCORE.INTER>
-27.8106

>  <SCORE.INTER.CONST>
1

>  <SCORE.INTER.POLAR>
-4.802

>  <SCORE.INTER.ROT>
9

>  <SCORE.INTER.SOLV>
13.0154

>  <SCORE.INTER.VDW>
-16.4722

>  <SCORE.INTER.norm>
-0.662157

>  <SCORE.INTRA>
-7.63376

>  <SCORE.INTRA.DIHEDRAL>
-15.1515

>  <SCORE.INTRA.DIHEDRAL.0>
30.1357

>  <SCORE.INTRA.POLAR>
-0.259782

>  <SCORE.INTRA.POLAR.0>
-0.631696

>  <SCORE.INTRA.REPUL>
0

>  <SCORE.INTRA.REPUL.0>
0

>  <SCORE.INTRA.SOLV>
-0.584367

>  <SCORE.INTRA.SOLV.lig_0>
-55.904

>  <SCORE.INTRA.VDW>
1.11746

>  <SCORE.INTRA.VDW.0>
-8.21197

>  <SCORE.INTRA.norm>
-0.181756

>  <SCORE.RESTR>
0

>  <SCORE.RESTR.CAVITY>
0

>  <SCORE.RESTR.norm>
0

>  <SCORE.SYSTEM>
0

>  <SCORE.SYSTEM.CONST>
0

>  <SCORE.SYSTEM.DIHEDRAL>
0

>  <SCORE.SYSTEM.SOLV>
0

>  <SCORE.SYSTEM.norm>
0

>  <SCORE.heavy>
42

>  <SCORE.norm>
-0.843913

>  <RMSD>
5.673

$$$$
lig.pdb
 OpenBabel11021811453D
libRbt.so/2013.1/901 2013/11/27
 42 45  0  0  0  0  0  0  0  0999 V2000
   -0.6254    1.2123    4.3860 C   0  0  2  0  0  0  0  0  0  0  0  0
   -0.4579    2.5533    3.9223 O   0  0  0  0  0  0  0  0  0  0  0  0
    0.6778    0.6787    4.9996 C   0  0  2  0  0  0  0  0  0  0  0  0
    1.1681    1.5755    6.0625 N   0  0  0  0  0  0  0  0  0  0  0  0
    1.7474    0.4670    3.9204 C   0  0  1  0  0  0  0  0  0  0  0  0
    2.8752   -0.1654    4.4947 O   0  0  0  0  0  0  0  0  0  0  0  0
    1.1940   -0.4103    2.7874 C   0  0  2  0  0  0  0  0  0  0  0  0
    2.1355   -0.4626    1.7328 O   0  0  0  0  0  0  0  0  0  0  0  0
   -0.1512    0.1290    2.2601 C   0  0  2  0  0  0  0  0  0  0  0  0
   -1.0674    0.3643    3.3289 O   0  0  0  0  0  0  0  0  0  0  0  0
   -0.7388   -0.9145    1.2912 C   0  0  0  0  0  0  0  0  0  0  0  0
   -2.0403   -0.5177    0.7822 O   0  0  0  0  0  0  0  0  0  0  0  0
   -3.4871    5.2932    2.5630 C   0  0  2  0  0  0  0  0  0  0  0  0
   -4.6271    5.6651    1.7013 N   0  0  0  0  0  0  0  0  0  0  0  0
   -2.2561    4.9777    1.7097 C   0  0  0  0  0  0  0  0  0  0  0  0
   -1.1182    4.4579    2.5804 C   0  0  2  0  0  0  0  0  0  0  0  0
    0.0877    4.2516    1.7686 N   0  0  0  0  0  0  0  0  0  0  0  0
   -1.5849    3.1534    3.2673 C   0  0  2  0  0  0  0  0  0  0  0  0
   -2.6846    3.4889    4.2232 C   0  0  2  0  0  0  0  0  0  0  0  0
   -3.0679    2.2895    4.8705 O   0  0  0  0  0  0  0  0  0  0  0  0
   -3.8491    4.1000    3.4671 C   0  0  1  0  0  0  0  0  0  0  0  0
   -4.8873    4.5148    4.3351 O   0  0  0  0  0  0  0  0  0  0  0  0
   -3.1869    2.3104    6.2891 C   0  0  1  0  0  0  0  0  0  0  0  0
   -1.8995    2.9113    6.8573 C   0  0  2  0  0  0  0  0  0  0  0  0
   -1.5779    2.2637    8.0739 O   0  0  0  0  0  0  0  0  0  0  0  0
   -2.2792    4.3859    7.0485 C   0  0  2  0  0  0  0  0  0  0  0  0
   -1.4422    5.0549    7.9922 O   0  0  0  0  0  0  0  0  0  0  0  0
   -3.7420    4.2296    7.4819 C   0  0  2  0  0  0  0  0  0  0  0  0
   -4.2461    3.1805    6.6673 O   0  0  0  0  0  0  0  0  0  0  0  0
   -4.6019    5.4811    7.2706 C   0  0  0  0  0  0  0  0  0  0  0  0
   -5.8914    5.3257    7.8240 O   0  0  0  0  0  0  0  0  0  0  0  0
   -1.7268    6.4422    8.1605 C   0  0  2  0  0  0  0  0  0  0  0  0
   -1.1471    7.2867    7.0156 C   0  0  2  0  0  0  0  0  0  0  0  0
   -1.6200    6.7982    5.7096 N   0  0  0  0  0  0  0  0  0  0  0  0
    0.3872    7.3275    7.0787 C   0  0  1  0  0  0  0  0  0  0  0  0
    0.8585    8.1853    6.0576 O   0  0  0  0  0  0  0  0  0  0  0  0
    0.8030    7.8664    8.4581 C   0  0  2  0  0  0  0  0  0  0  0  0
    2.2129    7.8840    8.5852 O   0  0  0  0  0  0  0  0  0  0  0  0
    0.1701    7.0324    9.5910 C   0  0  1  0  0  0  0  0  0  0  0  0
   -1.2433    6.9044    9.4197 O   0  0  0  0  0  0  0  0  0  0  0  0
    0.8488    5.6700    9.7962 C   0  0  0  0  0  0  0  0  0  0  0  0
   -0.0409    4.7274   10.4936 N   0  0  0  0  0  0  0  0  0  0  0  0
  1  3  1  0  0  0  0
  1  2  1  6  0  0  0
  3  4  1  1  0  0  0
  5  6  1  1  0  0  0
  5  3  1  0  0  0  0
  7  9  1  0  0  0  0
  7  5  1  0  0  0  0
  7  8  1  6  0  0  0
  9 10  1  0  0  0  0
  9 11  1  6  0  0  0
 10  1  1  0  0  0  0
 11 12  1  0  0  0  0
 13 14  1  6  0  0  0
 13 21  1  0  0  0  0
 15 13  1  0  0  0  0
 16 15  1  0  0  0  0
 16 18  1  0  0  0  0
 16 17  1  6  0  0  0
 18  2  1  1  0  0  0
 18 19  1  0  0  0  0
 19 21  1  0  0  0  0
 19 20  1  6  0  0  0
 21 22  1  1  0  0  0
 23 20  1  6  0  0  0
 23 29  1  0  0  0  0
 23 24  1  0  0  0  0
 24 26  1  0  0  0  0
 24 25  1  1  0  0  0
 26 27  1  1  0  0  0
 28 26  1  0  0  0  0
 28 30  1  6  0  0  0
 29 28  1  0  0  0  0
 30 31  1  0  0  0  0
 32 27  1  6  0  0  0
 32 40  1  0  0  0  0
 32 33  1  0  0  0  0
 33 35  1  0  0  0  0
 33 34  1  6  0  0  0
 35 37  1  0  0  0  0
 35 36  1  6  0  0  0
 37 38  1  6  0  0  0
 39 37  1  0  0  0  0
 39 41  1  6  0  0  0
 40 39  1  0  0  0  0
 42 41  1  0  0  0  0
M  END
>  <CHROM.1>
-167.91592563,177.15867271,-54.98460837,-65.73672970,174.89195554,-63.14749862
177.61980492,-119.89535538,-175.09393158,131.70925608,-50.76073970,75.79060725
68.61535842,177.61571574,-78.47814782,-173.36505583,-176.40378268,-62.35416322
179.66143060,62.41614069,-158.92279317,67.72764276,-1.23433411,3.75894366
5.38631595,-1.47344728,-0.42222939,0.82056220

>  <Name>
lig.pdb

>  <RI>
4.11275e+07

>  <Rbt.Current_Directory>
/home/itssahil/PROJECTS/Mol_Feturizer/New_Systems/rnas/2mxs

>  <Rbt.Executable>
rbdock ($Id: //depot/dev/client3/rdock/2013.1/src/exe/rbdock.cxx#4 $)

>  <Rbt.Library>
libRbt.so (2013.1, Build901 2013/11/27)

>  <Rbt.Parameter_File>
/export/apps/rDock/src/rDock_2013.1_src/data/scripts/dock_solv.prm

>  <Rbt.Receptor>
prm/pocket_docking_8.prm

>  <SCORE>
-24.4612

>  <SCORE.INTER>
-21.3078

>  <SCORE.INTER.CONST>
1

>  <SCORE.INTER.POLAR>
-3.24727

>  <SCORE.INTER.ROT>
9

>  <SCORE.INTER.SOLV>
14.9567

>  <SCORE.INTER.VDW>
-17.9665

>  <SCORE.INTER.norm>
-0.507329

>  <SCORE.INTRA>
-3.15336

>  <SCORE.INTRA.DIHEDRAL>
-12.7545

>  <SCORE.INTRA.DIHEDRAL.0>
30.1357

>  <SCORE.INTRA.POLAR>
-0.0964118

>  <SCORE.INTRA.POLAR.0>
-0.631696

>  <SCORE.INTRA.REPUL>
0

>  <SCORE.INTRA.REPUL.0>
0

>  <SCORE.INTRA.SOLV>
0.594151

>  <SCORE.INTRA.SOLV.lig_0>
-55.904

>  <SCORE.INTRA.VDW>
3.25464

>  <SCORE.INTRA.VDW.0>
-8.21197

>  <SCORE.INTRA.norm>
-0.0750799

>  <SCORE.RESTR>
0

>  <SCORE.RESTR.CAVITY>
0

>  <SCORE.RESTR.norm>
0

>  <SCORE.SYSTEM>
0

>  <SCORE.SYSTEM.CONST>
0

>  <SCORE.SYSTEM.DIHEDRAL>
0

>  <SCORE.SYSTEM.SOLV>
0

>  <SCORE.SYSTEM.norm>
0

>  <SCORE.heavy>
42

>  <SCORE.norm>
-0.582409

>  <RMSD>
5.677

$$$$
lig.pdb
 OpenBabel11021811453D
libRbt.so/2013.1/901 2013/11/27
 42 45  0  0  0  0  0  0  0  0999 V2000
   -1.6243    1.5475    1.8899 C   0  0  2  0  0  0  0  0  0  0  0  0
   -1.0197    2.7759    1.4812 O   0  0  0  0  0  0  0  0  0  0  0  0
   -0.7702    0.3465    1.4566 C   0  0  2  0  0  0  0  0  0  0  0  0
    0.6130    0.4750    1.9513 N   0  0  0  0  0  0  0  0  0  0  0  0
   -0.7964    0.1744   -0.0676 C   0  0  1  0  0  0  0  0  0  0  0  0
   -0.1293   -1.0234   -0.4165 O   0  0  0  0  0  0  0  0  0  0  0  0
   -2.2463    0.1148   -0.5715 C   0  0  2  0  0  0  0  0  0  0  0  0
   -2.2509    0.1158   -1.9863 O   0  0  0  0  0  0  0  0  0  0  0  0
   -3.0770    1.3031   -0.0459 C   0  0  2  0  0  0  0  0  0  0  0  0
   -2.9466    1.4381    1.3690 O   0  0  0  0  0  0  0  0  0  0  0  0
   -4.5529    1.0544   -0.4110 C   0  0  0  0  0  0  0  0  0  0  0  0
   -5.4401    2.0287    0.2005 O   0  0  0  0  0  0  0  0  0  0  0  0
   -0.5185    6.4242    3.7105 C   0  0  2  0  0  0  0  0  0  0  0  0
   -1.0192    7.5119    4.5744 N   0  0  0  0  0  0  0  0  0  0  0  0
   -1.2900    6.3966    2.3887 C   0  0  0  0  0  0  0  0  0  0  0  0
   -0.8770    5.1923    1.5510 C   0  0  2  0  0  0  0  0  0  0  0  0
   -1.5487    5.2282    0.2458 N   0  0  0  0  0  0  0  0  0  0  0  0
   -1.2154    3.9073    2.3420 C   0  0  2  0  0  0  0  0  0  0  0  0
   -0.3435    3.8549    3.5554 C   0  0  2  0  0  0  0  0  0  0  0  0
   -0.6394    2.6525    4.2419 O   0  0  0  0  0  0  0  0  0  0  0  0
   -0.6122    5.0653    4.4295 C   0  0  1  0  0  0  0  0  0  0  0  0
    0.2472    5.1108    5.5531 O   0  0  0  0  0  0  0  0  0  0  0  0
    0.4449    1.9384    4.8261 C   0  0  1  0  0  0  0  0  0  0  0  0
    0.6607    2.4888    6.2375 C   0  0  2  0  0  0  0  0  0  0  0  0
    2.0445    2.4882    6.5337 O   0  0  0  0  0  0  0  0  0  0  0  0
   -0.1350    1.5019    7.1024 C   0  0  2  0  0  0  0  0  0  0  0  0
    0.2839    1.5000    8.4674 O   0  0  0  0  0  0  0  0  0  0  0  0
    0.1413    0.1992    6.3418 C   0  0  2  0  0  0  0  0  0  0  0  0
    0.0926    0.5684    4.9708 O   0  0  0  0  0  0  0  0  0  0  0  0
   -0.8846   -0.9115    6.5951 C   0  0  0  0  0  0  0  0  0  0  0  0
   -2.1766   -0.3861    6.8137 O   0  0  0  0  0  0  0  0  0  0  0  0
   -0.7291    1.1272    9.3996 C   0  0  2  0  0  0  0  0  0  0  0  0
   -1.2156    2.3284   10.2244 C   0  0  2  0  0  0  0  0  0  0  0  0
   -1.6715    3.4194    9.3469 N   0  0  0  0  0  0  0  0  0  0  0  0
   -0.1298    2.8075   11.1996 C   0  0  1  0  0  0  0  0  0  0  0  0
   -0.6616    3.8541   11.9888 O   0  0  0  0  0  0  0  0  0  0  0  0
    0.2779    1.6239   12.0933 C   0  0  2  0  0  0  0  0  0  0  0  0
    1.3106    2.0014   12.9851 O   0  0  0  0  0  0  0  0  0  0  0  0
    0.7162    0.4142   11.2423 C   0  0  1  0  0  0  0  0  0  0  0  0
   -0.2644    0.0858   10.2555 O   0  0  0  0  0  0  0  0  0  0  0  0
    2.1151    0.5759   10.6294 C   0  0  0  0  0  0  0  0  0  0  0  0
    2.5062   -0.6185    9.8634 N   0  0  0  0  0  0  0  0  0  0  0  0
  1  3  1  0  0  0  0
  1  2  1  6  0  0  0
  3  4  1  6  0  0  0
  5  6  1  1  0  0  0
  5  3  1  0  0  0  0
  7  9  1  0  0  0  0
  7  5  1  0  0  0  0
  7  8  1  6  0  0  0
  9 10  1  0  0  0  0
  9 11  1  1  0  0  0
 10  1  1  0  0  0  0
 11 12  1  0  0  0  0
 13 14  1  1  0  0  0
 13 21  1  0  0  0  0
 15 13  1  0  0  0  0
 16 15  1  0  0  0  0
 16 18  1  0  0  0  0
 16 17  1  6  0  0  0
 18  2  1  6  0  0  0
 18 19  1  0  0  0  0
 19 21  1  0  0  0  0
 19 20  1  1  0  0  0
 21 22  1  1  0  0  0
 23 20  1  1  0  0  0
 23 29  1  0  0  0  0
 23 24  1  0  0  0  0
 24 26  1  0  0  0  0
 24 25  1  1  0  0  0
 26 27  1  1  0  0  0
 28 26  1  0  0  0  0
 28 30  1  6  0  0  0
 29 28  1  0  0  0  0
 30 31  1  0  0  0  0
 32 27  1  6  0  0  0
 32 40  1  0  0  0  0
 32 33  1  0  0  0  0
 33 35  1  0  0  0  0
 33 34  1  6  0  0  0
 35 37  1  0  0  0  0
 35 36  1  1  0  0  0
 37 38  1  1  0  0  0
 39 37  1  0  0  0  0
 39 41  1  6  0  0  0
 40 39  1  0  0  0  0
 42 41  1  0  0  0  0
M  END
>  <CHROM.1>
-163.05413570,-147.16221621,-53.39221030,-170.02120561,-64.91549282,166.77400428
172.12609161,-67.98580960,153.61616737,140.86185855,87.95749074,-65.57312072
-58.87262344,152.49047469,-108.26678666,33.02463076,-150.42981327,56.83761447
-63.79314819,64.61492879,178.18844307,76.51944202,-0.69722729,2.11282258
5.11122016,-2.92782270,-1.33193008,0.25065462

>  <Name>
lig.pdb

>  <RI>
4.11275e+07

>  <Rbt.Current_Directory>
/home/itssahil/PROJECTS/Mol_Feturizer/New_Systems/rnas/2mxs

>  <Rbt.Executable>
rbdock ($Id: //depot/dev/client3/rdock/2013.1/src/exe/rbdock.cxx#4 $)

>  <Rbt.Library>
libRbt.so (2013.1, Build901 2013/11/27)

>  <Rbt.Parameter_File>
/export/apps/rDock/src/rDock_2013.1_src/data/scripts/dock_solv.prm

>  <Rbt.Receptor>
prm/pocket_docking_8.prm

>  <SCORE>
-32.0743

>  <SCORE.INTER>
-34.932

>  <SCORE.INTER.CONST>
1

>  <SCORE.INTER.POLAR>
-4.34914

>  <SCORE.INTER.ROT>
9

>  <SCORE.INTER.SOLV>
20.2629

>  <SCORE.INTER.VDW>
-25.1451

>  <SCORE.INTER.norm>
-0.831714

>  <SCORE.INTRA>
2.85763

>  <SCORE.INTRA.DIHEDRAL>
4.20322

>  <SCORE.INTRA.DIHEDRAL.0>
30.1357

>  <SCORE.INTRA.POLAR>
-0.375359

>  <SCORE.INTRA.POLAR.0>
-0.631696

>  <SCORE.INTRA.REPUL>
0.000693118

>  <SCORE.INTRA.REPUL.0>
0

>  <SCORE.INTRA.SOLV>
-0.329029

>  <SCORE.INTRA.SOLV.lig_0>
-55.904

>  <SCORE.INTRA.VDW>
2.19329

>  <SCORE.INTRA.VDW.0>
-8.21197

>  <SCORE.INTRA.norm>
0.0680389

>  <SCORE.RESTR>
0

>  <SCORE.RESTR.CAVITY>
0

>  <SCORE.RESTR.norm>
0

>  <SCORE.SYSTEM>
0

>  <SCORE.SYSTEM.CONST>
0

>  <SCORE.SYSTEM.DIHEDRAL>
0

>  <SCORE.SYSTEM.SOLV>
0

>  <SCORE.SYSTEM.norm>
0

>  <SCORE.heavy>
42

>  <SCORE.norm>
-0.763675

>  <RMSD>
5.686

$$$$
lig.pdb
 OpenBabel11021811453D
libRbt.so/2013.1/901 2013/11/27
 42 45  0  0  0  0  0  0  0  0999 V2000
   -1.5515    4.1177    1.6830 C   0  0  2  0  0  0  0  0  0  0  0  0
   -1.1394    4.5934    0.4003 O   0  0  0  0  0  0  0  0  0  0  0  0
   -2.9794    4.5829    2.0062 C   0  0  2  0  0  0  0  0  0  0  0  0
   -3.9186    4.1876    0.9403 N   0  0  0  0  0  0  0  0  0  0  0  0
   -3.0233    6.0976    2.2453 C   0  0  1  0  0  0  0  0  0  0  0  0
   -4.3156    6.4659    2.6881 O   0  0  0  0  0  0  0  0  0  0  0  0
   -1.9881    6.4991    3.3068 C   0  0  2  0  0  0  0  0  0  0  0  0
   -1.9335    7.9098    3.3981 O   0  0  0  0  0  0  0  0  0  0  0  0
   -0.5893    5.9431    2.9712 C   0  0  2  0  0  0  0  0  0  0  0  0
   -0.6428    4.5438    2.6951 O   0  0  0  0  0  0  0  0  0  0  0  0
    0.3309    6.2001    4.1798 C   0  0  0  0  0  0  0  0  0  0  0  0
    0.0777    7.4910    4.7961 O   0  0  0  0  0  0  0  0  0  0  0  0
    2.4735    3.6344   -1.7347 C   0  0  2  0  0  0  0  0  0  0  0  0
    3.9429    3.5482   -1.8528 N   0  0  0  0  0  0  0  0  0  0  0  0
    2.0423    5.0855   -1.5080 C   0  0  0  0  0  0  0  0  0  0  0  0
    0.5432    5.1652   -1.2448 C   0  0  2  0  0  0  0  0  0  0  0  0
    0.1231    6.5671   -1.1265 N   0  0  0  0  0  0  0  0  0  0  0  0
    0.2276    4.3554    0.0343 C   0  0  2  0  0  0  0  0  0  0  0  0
    0.4983    2.9110   -0.2410 C   0  0  2  0  0  0  0  0  0  0  0  0
    0.1638    2.1840    0.9270 O   0  0  0  0  0  0  0  0  0  0  0  0
    1.9599    2.7255   -0.6022 C   0  0  1  0  0  0  0  0  0  0  0  0
    2.2545    1.3870   -0.9551 O   0  0  0  0  0  0  0  0  0  0  0  0
    1.0324    2.2966    2.0495 C   0  0  1  0  0  0  0  0  0  0  0  0
    0.3090    1.7058    3.2615 C   0  0  2  0  0  0  0  0  0  0  0  0
    0.6467    2.4500    4.4168 O   0  0  0  0  0  0  0  0  0  0  0  0
    0.8463    0.2688    3.2991 C   0  0  2  0  0  0  0  0  0  0  0  0
    0.7085   -0.3400    4.5833 O   0  0  0  0  0  0  0  0  0  0  0  0
    2.2934    0.5145    2.8545 C   0  0  2  0  0  0  0  0  0  0  0  0
    2.1925    1.5018    1.8380 O   0  0  0  0  0  0  0  0  0  0  0  0
    2.9976   -0.7206    2.2808 C   0  0  0  0  0  0  0  0  0  0  0  0
    2.2372   -1.3235    1.2554 O   0  0  0  0  0  0  0  0  0  0  0  0
    0.3229   -1.7128    4.5520 C   0  0  2  0  0  0  0  0  0  0  0  0
   -1.0455   -1.9060    3.8810 C   0  0  2  0  0  0  0  0  0  0  0  0
   -1.0582   -1.3159    2.5320 N   0  0  0  0  0  0  0  0  0  0  0  0
   -2.1757   -1.3392    4.7533 C   0  0  1  0  0  0  0  0  0  0  0  0
   -3.4130   -1.6214    4.1287 O   0  0  0  0  0  0  0  0  0  0  0  0
   -2.1113   -2.0162    6.1329 C   0  0  2  0  0  0  0  0  0  0  0  0
   -3.1084   -1.4968    6.9933 O   0  0  0  0  0  0  0  0  0  0  0  0
   -0.7141   -1.8504    6.7653 C   0  0  1  0  0  0  0  0  0  0  0  0
    0.3189   -2.2628    5.8675 O   0  0  0  0  0  0  0  0  0  0  0  0
   -0.4613   -0.4417    7.3224 C   0  0  0  0  0  0  0  0  0  0  0  0
    0.6253   -0.4447    8.3152 N   0  0  0  0  0  0  0  0  0  0  0  0
  1  3  1  0  0  0  0
  1  2  1  6  0  0  0
  3  4  1  6  0  0  0
  5  6  1  1  0  0  0
  5  3  1  0  0  0  0
  7  9  1  0  0  0  0
  7  5  1  0  0  0  0
  7  8  1  6  0  0  0
  9 10  1  0  0  0  0
  9 11  1  1  0  0  0
 10  1  1  0  0  0  0
 11 12  1  0  0  0  0
 13 14  1  1  0  0  0
 13 21  1  0  0  0  0
 15 13  1  0  0  0  0
 16 15  1  0  0  0  0
 16 18  1  0  0  0  0
 16 17  1  1  0  0  0
 18  2  1  6  0  0  0
 18 19  1  0  0  0  0
 19 21  1  0  0  0  0
 19 20  1  1  0  0  0
 21 22  1  6  0  0  0
 23 20  1  6  0  0  0
 23 29  1  0  0  0  0
 23 24  1  0  0  0  0
 24 26  1  0  0  0  0
 24 25  1  1  0  0  0
 26 27  1  1  0  0  0
 28 26  1  0  0  0  0
 28 30  1  6  0  0  0
 29 28  1  0  0  0  0
 30 31  1  0  0  0  0
 32 27  1  1  0  0  0
 32 40  1  0  0  0  0
 32 33  1  0  0  0  0
 33 35  1  0  0  0  0
 33 34  1  6  0  0  0
 35 37  1  0  0  0  0
 35 36  1  6  0  0  0
 37 38  1  1  0  0  0
 39 37  1  0  0  0  0
 39 41  1  6  0  0  0
 40 39  1  0  0  0  0
 42 41  1  0  0  0  0
M  END
>  <CHROM.1>
-169.45488114,173.38676468,79.50965172,-139.57625170,79.94192088,-76.52788533
-38.60103328,101.86468105,66.88495708,-72.66028814,167.01887082,58.37383049
-167.53529633,140.28023302,-61.08828656,52.26856584,-83.10882164,-83.30949307
61.18104238,177.75034685,159.44692389,177.47313889,-0.18139210,2.30051358
2.63691882,1.49149701,0.81948739,-0.55423096

>  <Name>
lig.pdb

>  <RI>
0

>  <Rbt.Current_Directory>
/home/itssahil/PROJECTS/Mol_Feturizer/New_Systems/rnas/2mxs

>  <Rbt.Executable>
rbdock ($Id: //depot/dev/client3/rdock/2013.1/src/exe/rbdock.cxx#4 $)

>  <Rbt.Library>
libRbt.so (2013.1, Build901 2013/11/27)

>  <Rbt.Parameter_File>
/export/apps/rDock/src/rDock_2013.1_src/data/scripts/dock_solv.prm

>  <Rbt.Receptor>
prm/blind_docking_80.prm

>  <SCORE>
-15.7208

>  <SCORE.INTER>
-38.8138

>  <SCORE.INTER.CONST>
1

>  <SCORE.INTER.POLAR>
-5.17016

>  <SCORE.INTER.ROT>
9

>  <SCORE.INTER.SOLV>
31.3321

>  <SCORE.INTER.VDW>
-28.686

>  <SCORE.INTER.norm>
-0.924137

>  <SCORE.INTRA>
10.7459

>  <SCORE.INTRA.DIHEDRAL>
-2.15901

>  <SCORE.INTRA.DIHEDRAL.0>
30.1357

>  <SCORE.INTRA.POLAR>
0.537041

>  <SCORE.INTRA.POLAR.0>
-0.631696

>  <SCORE.INTRA.REPUL>
0.271725

>  <SCORE.INTRA.REPUL.0>
0

>  <SCORE.INTRA.SOLV>
1.53255

>  <SCORE.INTRA.SOLV.lig_0>
-55.904

>  <SCORE.INTRA.VDW>
7.8746

>  <SCORE.INTRA.VDW.0>
-8.21197

>  <SCORE.INTRA.norm>
0.255856

>  <SCORE.RESTR>
12.347

>  <SCORE.RESTR.CAVITY>
12.347

>  <SCORE.RESTR.norm>
0.293976

>  <SCORE.SYSTEM>
0

>  <SCORE.SYSTEM.CONST>
0

>  <SCORE.SYSTEM.DIHEDRAL>
0

>  <SCORE.SYSTEM.SOLV>
0

>  <SCORE.SYSTEM.norm>
0

>  <SCORE.heavy>
42

>  <SCORE.norm>
-0.374305

>  <RMSD>
5.691

$$$$
lig.pdb
 OpenBabel11021811453D
libRbt.so/2013.1/901 2013/11/27
 42 45  0  0  0  0  0  0  0  0999 V2000
   -0.7990    2.1408    0.8768 C   0  0  2  0  0  0  0  0  0  0  0  0
   -0.1100    3.2373    0.2730 O   0  0  0  0  0  0  0  0  0  0  0  0
    0.1795    1.0145    1.2426 C   0  0  2  0  0  0  0  0  0  0  0  0
    1.2724    1.5191    2.0943 N   0  0  0  0  0  0  0  0  0  0  0  0
    0.7316    0.3349   -0.0171 C   0  0  1  0  0  0  0  0  0  0  0  0
    1.5051   -0.7893    0.3565 O   0  0  0  0  0  0  0  0  0  0  0  0
   -0.4210   -0.1194   -0.9252 C   0  0  2  0  0  0  0  0  0  0  0  0
    0.1064   -0.5980   -2.1476 O   0  0  0  0  0  0  0  0  0  0  0  0
   -1.4123    1.0300   -1.1987 C   0  0  2  0  0  0  0  0  0  0  0  0
   -1.8260    1.6546    0.0161 O   0  0  0  0  0  0  0  0  0  0  0  0
   -2.6373    0.4431   -1.9254 C   0  0  0  0  0  0  0  0  0  0  0  0
   -3.8648    1.1383   -1.5788 O   0  0  0  0  0  0  0  0  0  0  0  0
   -0.7295    7.2980    1.5605 C   0  0  2  0  0  0  0  0  0  0  0  0
   -1.4765    8.5717    1.5671 N   0  0  0  0  0  0  0  0  0  0  0  0
   -0.2408    6.9754    0.1462 C   0  0  0  0  0  0  0  0  0  0  0  0
    0.4078    5.5968    0.1037 C   0  0  2  0  0  0  0  0  0  0  0  0
    0.9603    5.3374   -1.2317 N   0  0  0  0  0  0  0  0  0  0  0  0
   -0.6519    4.5453    0.5070 C   0  0  2  0  0  0  0  0  0  0  0  0
   -1.0119    4.7621    1.9419 C   0  0  2  0  0  0  0  0  0  0  0  0
   -1.9502    3.7649    2.3018 O   0  0  0  0  0  0  0  0  0  0  0  0
   -1.5945    6.1517    2.1175 C   0  0  1  0  0  0  0  0  0  0  0  0
   -1.8761    6.4426    3.4736 O   0  0  0  0  0  0  0  0  0  0  0  0
   -2.7341    3.9828    3.4701 C   0  0  1  0  0  0  0  0  0  0  0  0
   -3.5812    2.7304    3.7051 C   0  0  2  0  0  0  0  0  0  0  0  0
   -4.8438    3.1091    4.2202 O   0  0  0  0  0  0  0  0  0  0  0  0
   -2.7357    1.9443    4.7162 C   0  0  2  0  0  0  0  0  0  0  0  0
   -3.5003    0.9903    5.4538 O   0  0  0  0  0  0  0  0  0  0  0  0
   -2.1734    3.1024    5.5498 C   0  0  2  0  0  0  0  0  0  0  0  0
   -1.8812    4.1177    4.6000 O   0  0  0  0  0  0  0  0  0  0  0  0
   -0.8948    2.7623    6.3244 C   0  0  0  0  0  0  0  0  0  0  0  0
    0.1836    2.4911    5.4546 O   0  0  0  0  0  0  0  0  0  0  0  0
   -2.8493    0.4755    6.6136 C   0  0  2  0  0  0  0  0  0  0  0  0
   -3.3032   -0.9567    6.9345 C   0  0  2  0  0  0  0  0  0  0  0  0
   -3.1091   -1.8426    5.7745 N   0  0  0  0  0  0  0  0  0  0  0  0
   -4.7595   -0.9804    7.4227 C   0  0  1  0  0  0  0  0  0  0  0  0
   -5.0931   -2.3067    7.7835 O   0  0  0  0  0  0  0  0  0  0  0  0
   -4.8781   -0.0526    8.6438 C   0  0  2  0  0  0  0  0  0  0  0  0
   -6.2145   -0.0044    9.1087 O   0  0  0  0  0  0  0  0  0  0  0  0
   -4.3717    1.3661    8.3113 C   0  0  1  0  0  0  0  0  0  0  0  0
   -3.0652    1.3329    7.7322 O   0  0  0  0  0  0  0  0  0  0  0  0
   -5.3566    2.1799    7.4589 C   0  0  0  0  0  0  0  0  0  0  0  0
   -6.5779    2.5040    8.2135 N   0  0  0  0  0  0  0  0  0  0  0  0
  1  3  1  0  0  0  0
  1  2  1  6  0  0  0
  3  4  1  6  0  0  0
  5  6  1  1  0  0  0
  5  3  1  0  0  0  0
  7  9  1  0  0  0  0
  7  5  1  0  0  0  0
  7  8  1  6  0  0  0
  9 10  1  0  0  0  0
  9 11  1  1  0  0  0
 10  1  1  0  0  0  0
 11 12  1  0  0  0  0
 13 14  1  6  0  0  0
 13 21  1  0  0  0  0
 15 13  1  0  0  0  0
 16 15  1  0  0  0  0
 16 18  1  0  0  0  0
 16 17  1  6  0  0  0
 18  2  1  1  0  0  0
 18 19  1  0  0  0  0
 19 21  1  0  0  0  0
 19 20  1  6  0  0  0
 21 22  1  1  0  0  0
 23 20  1  6  0  0  0
 23 29  1  0  0  0  0
 23 24  1  0  0  0  0
 24 26  1  0  0  0  0
 24 25  1  1  0  0  0
 26 27  1  1  0  0  0
 28 26  1  0  0  0  0
 28 30  1  6  0  0  0
 29 28  1  0  0  0  0
 30 31  1  0  0  0  0
 32 27  1  6  0  0  0
 32 40  1  0  0  0  0
 32 33  1  0  0  0  0
 33 35  1  0  0  0  0
 33 34  1  6  0  0  0
 35 37  1  0  0  0  0
 35 36  1  1  0  0  0
 37 38  1  6  0  0  0
 39 37  1  0  0  0  0
 39 41  1  6  0  0  0
 40 39  1  0  0  0  0
 42 41  1  0  0  0  0
M  END
>  <CHROM.1>
165.33004913,-148.25415753,-171.37013173,-75.57736772,-45.25075420,-59.32013955
147.23811897,30.13462065,-68.59408494,-161.87862472,-175.62773369,78.82952829
65.03468593,-165.33170400,-150.44704250,65.44318649,178.58305191,176.10354957
54.30753147,64.10678856,67.67505581,-54.92744395,-2.08767192,2.30271814,3.27140888
-0.21180200,-1.09305783,-3.00859198

>  <Name>
lig.pdb

>  <RI>
0

>  <Rbt.Current_Directory>
/home/itssahil/PROJECTS/Mol_Feturizer/New_Systems/rnas/2mxs

>  <Rbt.Executable>
rbdock ($Id: //depot/dev/client3/rdock/2013.1/src/exe/rbdock.cxx#4 $)

>  <Rbt.Library>
libRbt.so (2013.1, Build901 2013/11/27)

>  <Rbt.Parameter_File>
/export/apps/rDock/src/rDock_2013.1_src/data/scripts/dock_solv.prm

>  <Rbt.Receptor>
prm/pocket_docking_7.prm

>  <SCORE>
-32.4574

>  <SCORE.INTER>
-37.6774

>  <SCORE.INTER.CONST>
1

>  <SCORE.INTER.POLAR>
-5.29472

>  <SCORE.INTER.ROT>
9

>  <SCORE.INTER.SOLV>
20.2019

>  <SCORE.INTER.VDW>
-23.8032

>  <SCORE.INTER.norm>
-0.897081

>  <SCORE.INTRA>
5.22006

>  <SCORE.INTRA.DIHEDRAL>
-8.7125

>  <SCORE.INTRA.DIHEDRAL.0>
30.1357

>  <SCORE.INTRA.POLAR>
-0.0173066

>  <SCORE.INTRA.POLAR.0>
-0.631696

>  <SCORE.INTRA.REPUL>
0.0577453

>  <SCORE.INTRA.REPUL.0>
0

>  <SCORE.INTRA.SOLV>
0.225565

>  <SCORE.INTRA.SOLV.lig_0>
-55.904

>  <SCORE.INTRA.VDW>
9.23364

>  <SCORE.INTRA.VDW.0>
-8.21197

>  <SCORE.INTRA.norm>
0.124287

>  <SCORE.RESTR>
0

>  <SCORE.RESTR.CAVITY>
0

>  <SCORE.RESTR.norm>
0

>  <SCORE.SYSTEM>
0

>  <SCORE.SYSTEM.CONST>
0

>  <SCORE.SYSTEM.DIHEDRAL>
0

>  <SCORE.SYSTEM.SOLV>
0

>  <SCORE.SYSTEM.norm>
0

>  <SCORE.heavy>
42

>  <SCORE.norm>
-0.772794

>  <RMSD>
5.704

$$$$
lig.pdb
 OpenBabel11021811453D
libRbt.so/2013.1/901 2013/11/27
 42 45  0  0  0  0  0  0  0  0999 V2000
   -0.9905    4.1897    1.3117 C   0  0  2  0  0  0  0  0  0  0  0  0
   -0.6663    4.7876    0.0552 O   0  0  0  0  0  0  0  0  0  0  0  0
   -2.4071    3.5962    1.2858 C   0  0  2  0  0  0  0  0  0  0  0  0
   -2.5644    2.6509    0.1651 N   0  0  0  0  0  0  0  0  0  0  0  0
   -3.4665    4.7041    1.2248 C   0  0  1  0  0  0  0  0  0  0  0  0
   -4.7534    4.1312    1.3565 O   0  0  0  0  0  0  0  0  0  0  0  0
   -3.2423    5.7178    2.3570 C   0  0  2  0  0  0  0  0  0  0  0  0
   -4.1259    6.8099    2.1899 O   0  0  0  0  0  0  0  0  0  0  0  0
   -1.7857    6.2238    2.3828 C   0  0  2  0  0  0  0  0  0  0  0  0
   -0.8614    5.1364    2.3694 O   0  0  0  0  0  0  0  0  0  0  0  0
   -1.5908    7.0567    3.6641 C   0  0  0  0  0  0  0  0  0  0  0  0
   -0.9796    8.3461    3.3915 O   0  0  0  0  0  0  0  0  0  0  0  0
    3.1006    5.2986   -1.9649 C   0  0  2  0  0  0  0  0  0  0  0  0
    4.5660    5.4790   -1.9803 N   0  0  0  0  0  0  0  0  0  0  0  0
    2.4298    6.4573   -1.2228 C   0  0  0  0  0  0  0  0  0  0  0  0
    0.9330    6.2084   -1.0797 C   0  0  2  0  0  0  0  0  0  0  0  0
    0.2837    7.3678   -0.4551 N   0  0  0  0  0  0  0  0  0  0  0  0
    0.7288    4.9159   -0.2557 C   0  0  2  0  0  0  0  0  0  0  0  0
    1.2411    3.7598   -1.0536 C   0  0  2  0  0  0  0  0  0  0  0  0
    1.0070    2.5842   -0.3002 O   0  0  0  0  0  0  0  0  0  0  0  0
    2.7207    3.9472   -1.3311 C   0  0  1  0  0  0  0  0  0  0  0  0
    3.2407    2.9216   -2.1563 O   0  0  0  0  0  0  0  0  0  0  0  0
    1.5840    2.5032    0.9988 C   0  0  1  0  0  0  0  0  0  0  0  0
    0.4745    2.1189    1.9801 C   0  0  2  0  0  0  0  0  0  0  0  0
    0.6915    2.7781    3.2135 O   0  0  0  0  0  0  0  0  0  0  0  0
    0.6353    0.5961    2.0810 C   0  0  2  0  0  0  0  0  0  0  0  0
    0.0563    0.0561    3.2693 O   0  0  0  0  0  0  0  0  0  0  0  0
    2.1627    0.4842    2.0003 C   0  0  2  0  0  0  0  0  0  0  0  0
    2.5415    1.4525    1.0321 O   0  0  0  0  0  0  0  0  0  0  0  0
    2.6740   -0.8911    1.5555 C   0  0  0  0  0  0  0  0  0  0  0  0
    2.2872   -1.1861    0.2302 O   0  0  0  0  0  0  0  0  0  0  0  0
    0.9500   -0.7172    4.0676 C   0  0  2  0  0  0  0  0  0  0  0  0
    0.2150   -1.8265    4.8353 C   0  0  2  0  0  0  0  0  0  0  0  0
   -0.5566   -2.6800    3.9165 N   0  0  0  0  0  0  0  0  0  0  0  0
   -0.6767   -1.2392    5.9396 C   0  0  1  0  0  0  0  0  0  0  0  0
   -1.2581   -2.3051    6.6652 O   0  0  0  0  0  0  0  0  0  0  0  0
    0.2000   -0.3816    6.8679 C   0  0  2  0  0  0  0  0  0  0  0  0
   -0.5831    0.2203    7.8822 O   0  0  0  0  0  0  0  0  0  0  0  0
    0.9648    0.6934    6.0683 C   0  0  1  0  0  0  0  0  0  0  0  0
    1.6729    0.1209    4.9664 O   0  0  0  0  0  0  0  0  0  0  0  0
    0.0811    1.8715    5.6325 C   0  0  0  0  0  0  0  0  0  0  0  0
   -0.4260    2.6198    6.7941 N   0  0  0  0  0  0  0  0  0  0  0  0
  1  3  1  0  0  0  0
  1  2  1  6  0  0  0
  3  4  1  6  0  0  0
  5  6  1  1  0  0  0
  5  3  1  0  0  0  0
  7  9  1  0  0  0  0
  7  5  1  0  0  0  0
  7  8  1  6  0  0  0
  9 10  1  0  0  0  0
  9 11  1  1  0  0  0
 10  1  1  0  0  0  0
 11 12  1  0  0  0  0
 13 14  1  1  0  0  0
 13 21  1  0  0  0  0
 15 13  1  0  0  0  0
 16 15  1  0  0  0  0
 16 18  1  0  0  0  0
 16 17  1  1  0  0  0
 18  2  1  6  0  0  0
 18 19  1  0  0  0  0
 19 21  1  0  0  0  0
 19 20  1  1  0  0  0
 21 22  1  6  0  0  0
 23 20  1  6  0  0  0
 23 29  1  0  0  0  0
 23 24  1  0  0  0  0
 24 26  1  0  0  0  0
 24 25  1  1  0  0  0
 26 27  1  1  0  0  0
 28 26  1  0  0  0  0
 28 30  1  6  0  0  0
 29 28  1  0  0  0  0
 30 31  1  0  0  0  0
 32 27  1  1  0  0  0
 32 40  1  0  0  0  0
 32 33  1  0  0  0  0
 33 35  1  0  0  0  0
 33 34  1  6  0  0  0
 35 37  1  0  0  0  0
 35 36  1  1  0  0  0
 37 38  1  1  0  0  0
 39 37  1  0  0  0  0
 39 41  1  6  0  0  0
 40 39  1  0  0  0  0
 42 41  1  0  0  0  0
M  END
>  <CHROM.1>
-146.38174191,-156.80467460,-179.79947049,64.31301796,69.49447546,-53.58506395
-130.20138446,-176.19988698,56.62553038,-58.21740441,128.74973702,-67.16286291
75.94942486,-124.86770850,-149.62639256,64.81681793,150.22716779,-170.16935366
-72.51153370,176.53717918,64.35781099,-51.10707851,0.13245801,2.77602458
2.15648640,1.51182063,0.74046043,-0.67468046

>  <Name>
lig.pdb

>  <RI>
0

>  <Rbt.Current_Directory>
/home/itssahil/PROJECTS/Mol_Feturizer/New_Systems/rnas/2mxs

>  <Rbt.Executable>
rbdock ($Id: //depot/dev/client3/rdock/2013.1/src/exe/rbdock.cxx#4 $)

>  <Rbt.Library>
libRbt.so (2013.1, Build901 2013/11/27)

>  <Rbt.Parameter_File>
/export/apps/rDock/src/rDock_2013.1_src/data/scripts/dock_solv.prm

>  <Rbt.Receptor>
prm/blind_docking_80.prm

>  <SCORE>
-31.062

>  <SCORE.INTER>
-52.5806

>  <SCORE.INTER.CONST>
1

>  <SCORE.INTER.POLAR>
-5.97928

>  <SCORE.INTER.ROT>
9

>  <SCORE.INTER.SOLV>
29.7323

>  <SCORE.INTER.VDW>
-34.6336

>  <SCORE.INTER.norm>
-1.25192

>  <SCORE.INTRA>
10.7431

>  <SCORE.INTRA.DIHEDRAL>
6.53801

>  <SCORE.INTRA.DIHEDRAL.0>
30.1357

>  <SCORE.INTRA.POLAR>
-0.69852

>  <SCORE.INTRA.POLAR.0>
-0.631696

>  <SCORE.INTRA.REPUL>
0.00865093

>  <SCORE.INTRA.REPUL.0>
0

>  <SCORE.INTRA.SOLV>
1.29364

>  <SCORE.INTRA.SOLV.lig_0>
-55.904

>  <SCORE.INTRA.VDW>
9.15897

>  <SCORE.INTRA.VDW.0>
-8.21197

>  <SCORE.INTRA.norm>
0.255788

>  <SCORE.RESTR>
10.7755

>  <SCORE.RESTR.CAVITY>
10.7755

>  <SCORE.RESTR.norm>
0.256559

>  <SCORE.SYSTEM>
0

>  <SCORE.SYSTEM.CONST>
0

>  <SCORE.SYSTEM.DIHEDRAL>
0

>  <SCORE.SYSTEM.SOLV>
0

>  <SCORE.SYSTEM.norm>
0

>  <SCORE.heavy>
42

>  <SCORE.norm>
-0.739573

>  <RMSD>
5.707

$$$$
lig.pdb
 OpenBabel11021811453D
libRbt.so/2013.1/901 2013/11/27
 42 45  0  0  0  0  0  0  0  0999 V2000
   -2.4031    4.0452    4.2238 C   0  0  2  0  0  0  0  0  0  0  0  0
   -2.7394    2.6566    4.2037 O   0  0  0  0  0  0  0  0  0  0  0  0
   -3.6689    4.9140    4.2726 C   0  0  2  0  0  0  0  0  0  0  0  0
   -4.5273    4.5350    5.4102 N   0  0  0  0  0  0  0  0  0  0  0  0
   -4.4413    4.8353    2.9495 C   0  0  1  0  0  0  0  0  0  0  0  0
   -5.5113    5.7605    2.9745 O   0  0  0  0  0  0  0  0  0  0  0  0
   -3.5124    5.1632    1.7708 C   0  0  2  0  0  0  0  0  0  0  0  0
   -4.1984    4.9317    0.5553 O   0  0  0  0  0  0  0  0  0  0  0  0
   -2.2245    4.3160    1.8130 C   0  0  2  0  0  0  0  0  0  0  0  0
   -1.6021    4.3869    3.0954 O   0  0  0  0  0  0  0  0  0  0  0  0
   -1.2620    4.8537    0.7370 C   0  0  0  0  0  0  0  0  0  0  0  0
    0.0268    4.1844    0.7711 O   0  0  0  0  0  0  0  0  0  0  0  0
   -0.1591   -0.6899    5.0246 C   0  0  2  0  0  0  0  0  0  0  0  0
    1.0542   -1.4982    4.7903 N   0  0  0  0  0  0  0  0  0  0  0  0
   -1.0144   -0.6344    3.7563 C   0  0  0  0  0  0  0  0  0  0  0  0
   -2.1945    0.3113    3.9455 C   0  0  2  0  0  0  0  0  0  0  0  0
   -3.0620    0.2827    2.7613 N   0  0  0  0  0  0  0  0  0  0  0  0
   -1.6448    1.7289    4.2275 C   0  0  2  0  0  0  0  0  0  0  0  0
   -0.9446    1.7111    5.5484 C   0  0  2  0  0  0  0  0  0  0  0  0
   -0.4861    3.0256    5.8061 O   0  0  0  0  0  0  0  0  0  0  0  0
    0.2096    0.7277    5.5009 C   0  0  1  0  0  0  0  0  0  0  0  0
    0.8577    0.6078    6.7533 O   0  0  0  0  0  0  0  0  0  0  0  0
    0.0774    3.2923    7.0860 C   0  0  1  0  0  0  0  0  0  0  0  0
    0.5841    4.7362    7.0821 C   0  0  2  0  0  0  0  0  0  0  0  0
    1.7693    4.8184    7.8510 O   0  0  0  0  0  0  0  0  0  0  0  0
   -0.5892    5.4999    7.7108 C   0  0  2  0  0  0  0  0  0  0  0  0
   -0.1999    6.7610    8.2558 O   0  0  0  0  0  0  0  0  0  0  0  0
   -1.0549    4.4674    8.7448 C   0  0  2  0  0  0  0  0  0  0  0  0
   -0.9367    3.2174    8.0801 O   0  0  0  0  0  0  0  0  0  0  0  0
   -2.5041    4.6481    9.2113 C   0  0  0  0  0  0  0  0  0  0  0  0
   -3.4150    4.5202    8.1404 O   0  0  0  0  0  0  0  0  0  0  0  0
   -1.2803    7.5634    8.7279 C   0  0  2  0  0  0  0  0  0  0  0  0
   -1.0508    9.0552    8.4415 C   0  0  2  0  0  0  0  0  0  0  0  0
   -0.8012    9.2836    7.0085 N   0  0  0  0  0  0  0  0  0  0  0  0
    0.0870    9.6173    9.3070 C   0  0  1  0  0  0  0  0  0  0  0  0
    0.1947   11.0067    9.0645 O   0  0  0  0  0  0  0  0  0  0  0  0
   -0.2544    9.3616   10.7848 C   0  0  2  0  0  0  0  0  0  0  0  0
    0.7859    9.8236   11.6268 O   0  0  0  0  0  0  0  0  0  0  0  0
   -0.5279    7.8647   11.0379 C   0  0  1  0  0  0  0  0  0  0  0  0
   -1.4945    7.3470   10.1209 O   0  0  0  0  0  0  0  0  0  0  0  0
    0.7476    7.0097   11.0703 C   0  0  0  0  0  0  0  0  0  0  0  0
    1.4246    7.1060   12.3737 N   0  0  0  0  0  0  0  0  0  0  0  0
  1  3  1  0  0  0  0
  1  2  1  6  0  0  0
  3  4  1  1  0  0  0
  5  6  1  1  0  0  0
  5  3  1  0  0  0  0
  7  9  1  0  0  0  0
  7  5  1  0  0  0  0
  7  8  1  6  0  0  0
  9 10  1  0  0  0  0
  9 11  1  6  0  0  0
 10  1  1  0  0  0  0
 11 12  1  0  0  0  0
 13 14  1  6  0  0  0
 13 21  1  0  0  0  0
 15 13  1  0  0  0  0
 16 15  1  0  0  0  0
 16 18  1  0  0  0  0
 16 17  1  6  0  0  0
 18  2  1  1  0  0  0
 18 19  1  0  0  0  0
 19 21  1  0  0  0  0
 19 20  1  6  0  0  0
 21 22  1  1  0  0  0
 23 20  1  6  0  0  0
 23 29  1  0  0  0  0
 23 24  1  0  0  0  0
 24 26  1  0  0  0  0
 24 25  1  1  0  0  0
 26 27  1  1  0  0  0
 28 26  1  0  0  0  0
 28 30  1  6  0  0  0
 29 28  1  0  0  0  0
 30 31  1  0  0  0  0
 32 27  1  1  0  0  0
 32 40  1  0  0  0  0
 32 33  1  0  0  0  0
 33 35  1  0  0  0  0
 33 34  1  6  0  0  0
 35 37  1  0  0  0  0
 35 36  1  1  0  0  0
 37 38  1  1  0  0  0
 39 37  1  0  0  0  0
 39 41  1  6  0  0  0
 40 39  1  0  0  0  0
 42 41  1  0  0  0  0
M  END
>  <CHROM.1>
-169.96576943,-176.88915986,62.43015452,71.21516102,-57.76976074,-56.03820917
175.42585339,-45.50494382,-175.88502813,172.75192124,175.97150963,60.99882891
-54.97063146,173.91980637,-142.81276162,61.30627386,-176.17923204,-55.54022458
-70.22782559,-49.87104041,80.29754328,67.71164575,-1.22696542,4.71096919
6.25509130,1.96235463,1.00468444,-2.62690682

>  <Name>
lig.pdb

>  <RI>
0

>  <Rbt.Current_Directory>
/home/itssahil/PROJECTS/Mol_Feturizer/New_Systems/rnas/2mxs

>  <Rbt.Executable>
rbdock ($Id: //depot/dev/client3/rdock/2013.1/src/exe/rbdock.cxx#4 $)

>  <Rbt.Library>
libRbt.so (2013.1, Build901 2013/11/27)

>  <Rbt.Parameter_File>
/export/apps/rDock/src/rDock_2013.1_src/data/scripts/dock_solv.prm

>  <Rbt.Receptor>
prm/pocket_docking_7.prm

>  <SCORE>
-28.9001

>  <SCORE.INTER>
-20.6131

>  <SCORE.INTER.CONST>
1

>  <SCORE.INTER.POLAR>
-4.4645

>  <SCORE.INTER.ROT>
9

>  <SCORE.INTER.SOLV>
15.7961

>  <SCORE.INTER.VDW>
-13.7258

>  <SCORE.INTER.norm>
-0.490788

>  <SCORE.INTRA>
-8.28701

>  <SCORE.INTRA.DIHEDRAL>
-19.38

>  <SCORE.INTRA.DIHEDRAL.0>
30.1357

>  <SCORE.INTRA.POLAR>
-0.4959

>  <SCORE.INTRA.POLAR.0>
-0.631696

>  <SCORE.INTRA.REPUL>
0

>  <SCORE.INTRA.REPUL.0>
0

>  <SCORE.INTRA.SOLV>
-0.283715

>  <SCORE.INTRA.SOLV.lig_0>
-55.904

>  <SCORE.INTRA.VDW>
3.23089

>  <SCORE.INTRA.VDW.0>
-8.21197

>  <SCORE.INTRA.norm>
-0.19731

>  <SCORE.RESTR>
0

>  <SCORE.RESTR.CAVITY>
0

>  <SCORE.RESTR.norm>
0

>  <SCORE.SYSTEM>
0

>  <SCORE.SYSTEM.CONST>
0

>  <SCORE.SYSTEM.DIHEDRAL>
0

>  <SCORE.SYSTEM.SOLV>
0

>  <SCORE.SYSTEM.norm>
0

>  <SCORE.heavy>
42

>  <SCORE.norm>
-0.688097

>  <RMSD>
5.716

$$$$
lig.pdb
 OpenBabel11021811453D
libRbt.so/2013.1/901 2013/11/27
 42 45  0  0  0  0  0  0  0  0999 V2000
   -1.0516    4.2371    1.2467 C   0  0  2  0  0  0  0  0  0  0  0  0
   -0.7189    4.8305   -0.0097 O   0  0  0  0  0  0  0  0  0  0  0  0
   -2.4052    3.5150    1.1694 C   0  0  2  0  0  0  0  0  0  0  0  0
   -2.4181    2.5313    0.0710 N   0  0  0  0  0  0  0  0  0  0  0  0
   -3.5563    4.5186    1.0235 C   0  0  1  0  0  0  0  0  0  0  0  0
   -4.7909    3.8330    1.1092 O   0  0  0  0  0  0  0  0  0  0  0  0
   -3.4837    5.5768    2.1347 C   0  0  2  0  0  0  0  0  0  0  0  0
   -4.4530    6.5783    1.8920 O   0  0  0  0  0  0  0  0  0  0  0  0
   -2.0824    6.2155    2.2166 C   0  0  2  0  0  0  0  0  0  0  0  0
   -1.0636    5.2181    2.2808 O   0  0  0  0  0  0  0  0  0  0  0  0
   -2.0300    7.0949    3.4804 C   0  0  0  0  0  0  0  0  0  0  0  0
   -1.0028    8.1184    3.3934 O   0  0  0  0  0  0  0  0  0  0  0  0
    3.0644    5.3276   -2.0024 C   0  0  2  0  0  0  0  0  0  0  0  0
    4.5286    5.5180   -2.0070 N   0  0  0  0  0  0  0  0  0  0  0  0
    2.3782    6.4961   -1.2904 C   0  0  0  0  0  0  0  0  0  0  0  0
    0.8818    6.2395   -1.1572 C   0  0  2  0  0  0  0  0  0  0  0  0
    0.2184    7.4066   -0.5625 N   0  0  0  0  0  0  0  0  0  0  0  0
    0.6783    4.9624   -0.3093 C   0  0  2  0  0  0  0  0  0  0  0  0
    1.2066    3.7942   -1.0786 C   0  0  2  0  0  0  0  0  0  0  0  0
    0.9730    2.6323   -0.3040 O   0  0  0  0  0  0  0  0  0  0  0  0
    2.6875    3.9865   -1.3453 C   0  0  1  0  0  0  0  0  0  0  0  0
    3.2228    2.9483   -2.1444 O   0  0  0  0  0  0  0  0  0  0  0  0
    1.3888    2.6485    1.0575 C   0  0  1  0  0  0  0  0  0  0  0  0
    0.2340    2.1111    1.9054 C   0  0  2  0  0  0  0  0  0  0  0  0
    0.1961    2.8049    3.1382 O   0  0  0  0  0  0  0  0  0  0  0  0
    0.6027    0.6300    2.0654 C   0  0  2  0  0  0  0  0  0  0  0  0
   -0.0347    0.0193    3.1877 O   0  0  0  0  0  0  0  0  0  0  0  0
    2.1280    0.7461    2.1751 C   0  0  2  0  0  0  0  0  0  0  0  0
    2.4785    1.7523    1.2354 O   0  0  0  0  0  0  0  0  0  0  0  0
    2.8871   -0.5411    1.8327 C   0  0  0  0  0  0  0  0  0  0  0  0
    3.7792   -0.9086    2.8633 O   0  0  0  0  0  0  0  0  0  0  0  0
    0.8291   -0.7659    4.0072 C   0  0  2  0  0  0  0  0  0  0  0  0
    0.0779   -1.9226    4.6838 C   0  0  2  0  0  0  0  0  0  0  0  0
   -0.6156   -2.7547    3.6864 N   0  0  0  0  0  0  0  0  0  0  0  0
   -0.8927   -1.4022    5.7546 C   0  0  1  0  0  0  0  0  0  0  0  0
   -1.4892   -2.5103    6.4003 O   0  0  0  0  0  0  0  0  0  0  0  0
   -0.0949   -0.5640    6.7680 C   0  0  2  0  0  0  0  0  0  0  0  0
   -0.9523   -0.0229    7.7562 O   0  0  0  0  0  0  0  0  0  0  0  0
    0.6887    0.5604    6.0600 C   0  0  1  0  0  0  0  0  0  0  0  0
    1.4756    0.0505    4.9811 O   0  0  0  0  0  0  0  0  0  0  0  0
   -0.1970    1.7351    5.6189 C   0  0  0  0  0  0  0  0  0  0  0  0
   -0.4263    2.6786    6.7251 N   0  0  0  0  0  0  0  0  0  0  0  0
  1  3  1  0  0  0  0
  1  2  1  6  0  0  0
  3  4  1  6  0  0  0
  5  6  1  1  0  0  0
  5  3  1  0  0  0  0
  7  9  1  0  0  0  0
  7  5  1  0  0  0  0
  7  8  1  6  0  0  0
  9 10  1  0  0  0  0
  9 11  1  1  0  0  0
 10  1  1  0  0  0  0
 11 12  1  0  0  0  0
 13 14  1  1  0  0  0
 13 21  1  0  0  0  0
 15 13  1  0  0  0  0
 16 15  1  0  0  0  0
 16 18  1  0  0  0  0
 16 17  1  1  0  0  0
 18  2  1  6  0  0  0
 18 19  1  0  0  0  0
 19 21  1  0  0  0  0
 19 20  1  1  0  0  0
 21 22  1  6  0  0  0
 23 20  1  6  0  0  0
 23 29  1  0  0  0  0
 23 24  1  0  0  0  0
 24 26  1  0  0  0  0
 24 25  1  1  0  0  0
 26 27  1  1  0  0  0
 28 26  1  0  0  0  0
 28 30  1  6  0  0  0
 29 28  1  0  0  0  0
 30 31  1  0  0  0  0
 32 27  1  1  0  0  0
 32 40  1  0  0  0  0
 32 33  1  0  0  0  0
 33 35  1  0  0  0  0
 33 34  1  6  0  0  0
 35 37  1  0  0  0  0
 35 36  1  1  0  0  0
 37 38  1  1  0  0  0
 39 37  1  0  0  0  0
 39 41  1  6  0  0  0
 40 39  1  0  0  0  0
 42 41  1  0  0  0  0
M  END
>  <CHROM.1>
-147.29941723,-151.06404982,173.08423582,-60.22020267,-176.07865221,-37.74300753
-157.60792967,59.56367637,-57.12489449,-50.37703191,132.90247114,-10.08424733
-66.67065618,-133.34754479,-150.10867099,-126.94249698,-44.47147137,76.90706986
-69.19461525,60.05289445,83.19971662,61.97755821,0.05490115,2.75846410,2.15840350
1.52856689,0.61566624,-0.68414278

>  <Name>
lig.pdb

>  <RI>
0

>  <Rbt.Current_Directory>
/home/itssahil/PROJECTS/Mol_Feturizer/New_Systems/rnas/2mxs

>  <Rbt.Executable>
rbdock ($Id: //depot/dev/client3/rdock/2013.1/src/exe/rbdock.cxx#4 $)

>  <Rbt.Library>
libRbt.so (2013.1, Build901 2013/11/27)

>  <Rbt.Parameter_File>
/export/apps/rDock/src/rDock_2013.1_src/data/scripts/dock_solv.prm

>  <Rbt.Receptor>
prm/blind_docking_80.prm

>  <SCORE>
-8.36727

>  <SCORE.INTER>
-41.3504

>  <SCORE.INTER.CONST>
1

>  <SCORE.INTER.POLAR>
-5.86193

>  <SCORE.INTER.ROT>
9

>  <SCORE.INTER.SOLV>
30.9699

>  <SCORE.INTER.VDW>
-27.9504

>  <SCORE.INTER.norm>
-0.984533

>  <SCORE.INTRA>
21.1941

>  <SCORE.INTRA.DIHEDRAL>
14.0737

>  <SCORE.INTRA.DIHEDRAL.0>
30.1357

>  <SCORE.INTRA.POLAR>
0.210757

>  <SCORE.INTRA.POLAR.0>
-0.631696

>  <SCORE.INTRA.REPUL>
0.0212818

>  <SCORE.INTRA.REPUL.0>
0

>  <SCORE.INTRA.SOLV>
1.00879

>  <SCORE.INTRA.SOLV.lig_0>
-55.904

>  <SCORE.INTRA.VDW>
12.8299

>  <SCORE.INTRA.VDW.0>
-8.21197

>  <SCORE.INTRA.norm>
0.504621

>  <SCORE.RESTR>
11.789

>  <SCORE.RESTR.CAVITY>
11.789

>  <SCORE.RESTR.norm>
0.280691

>  <SCORE.SYSTEM>
0

>  <SCORE.SYSTEM.CONST>
0

>  <SCORE.SYSTEM.DIHEDRAL>
0

>  <SCORE.SYSTEM.SOLV>
0

>  <SCORE.SYSTEM.norm>
0

>  <SCORE.heavy>
42

>  <SCORE.norm>
-0.199221

>  <RMSD>
5.721

$$$$
lig.pdb
 OpenBabel11021811453D
libRbt.so/2013.1/901 2013/11/27
 42 45  0  0  0  0  0  0  0  0999 V2000
   -2.0509   -0.7494    1.2623 C   0  0  2  0  0  0  0  0  0  0  0  0
   -0.9201   -0.6214    0.3983 O   0  0  0  0  0  0  0  0  0  0  0  0
   -2.9785   -1.8774    0.7859 C   0  0  2  0  0  0  0  0  0  0  0  0
   -2.2404   -3.1464    0.6472 N   0  0  0  0  0  0  0  0  0  0  0  0
   -3.6749   -1.4989   -0.5276 C   0  0  1  0  0  0  0  0  0  0  0  0
   -4.6310   -2.4891   -0.8546 O   0  0  0  0  0  0  0  0  0  0  0  0
   -4.3777   -0.1404   -0.3850 C   0  0  2  0  0  0  0  0  0  0  0  0
   -4.8767    0.2636   -1.6457 O   0  0  0  0  0  0  0  0  0  0  0  0
   -3.4211    0.9360    0.1671 C   0  0  2  0  0  0  0  0  0  0  0  0
   -2.7617    0.4830    1.3491 O   0  0  0  0  0  0  0  0  0  0  0  0
   -4.2493    2.1958    0.4836 C   0  0  0  0  0  0  0  0  0  0  0  0
   -5.5538    1.8699    1.0334 O   0  0  0  0  0  0  0  0  0  0  0  0
    1.1302    2.9425   -0.8769 C   0  0  2  0  0  0  0  0  0  0  0  0
    1.1588    4.3143   -1.4222 N   0  0  0  0  0  0  0  0  0  0  0  0
    0.4974    1.9817   -1.8867 C   0  0  0  0  0  0  0  0  0  0  0  0
    0.3355    0.5936   -1.2784 C   0  0  2  0  0  0  0  0  0  0  0  0
   -0.1802   -0.3436   -2.2841 N   0  0  0  0  0  0  0  0  0  0  0  0
   -0.6018    0.7030   -0.0533 C   0  0  2  0  0  0  0  0  0  0  0  0
    0.0871    1.5113    0.9992 C   0  0  2  0  0  0  0  0  0  0  0  0
   -0.7692    1.5638    2.1255 O   0  0  0  0  0  0  0  0  0  0  0  0
    0.3774    2.9016    0.4663 C   0  0  1  0  0  0  0  0  0  0  0  0
    1.1052    3.6849    1.3935 O   0  0  0  0  0  0  0  0  0  0  0  0
   -0.1674    1.6633    3.4119 C   0  0  1  0  0  0  0  0  0  0  0  0
   -0.6448    2.9688    4.0516 C   0  0  2  0  0  0  0  0  0  0  0  0
    0.4062    3.5262    4.8180 O   0  0  0  0  0  0  0  0  0  0  0  0
   -1.8277    2.5026    4.9110 C   0  0  2  0  0  0  0  0  0  0  0  0
   -2.1425    3.4168    5.9617 O   0  0  0  0  0  0  0  0  0  0  0  0
   -1.2966    1.1419    5.3785 C   0  0  2  0  0  0  0  0  0  0  0  0
   -0.6342    0.6068    4.2413 O   0  0  0  0  0  0  0  0  0  0  0  0
   -2.3835    0.1593    5.8298 C   0  0  0  0  0  0  0  0  0  0  0  0
   -1.8356   -1.0878    6.2007 O   0  0  0  0  0  0  0  0  0  0  0  0
   -3.4720    3.3075    6.4662 C   0  0  2  0  0  0  0  0  0  0  0  0
   -4.1944    4.6633    6.4697 C   0  0  2  0  0  0  0  0  0  0  0  0
   -4.1794    5.2709    5.1286 N   0  0  0  0  0  0  0  0  0  0  0  0
   -3.5947    5.6083    7.5219 C   0  0  1  0  0  0  0  0  0  0  0  0
   -4.3514    6.8032    7.5391 O   0  0  0  0  0  0  0  0  0  0  0  0
   -3.6651    4.9160    8.8936 C   0  0  2  0  0  0  0  0  0  0  0  0
   -3.0841    5.7295    9.8961 O   0  0  0  0  0  0  0  0  0  0  0  0
   -2.9759    3.5365    8.8526 C   0  0  1  0  0  0  0  0  0  0  0  0
   -3.4672    2.7381    7.7735 O   0  0  0  0  0  0  0  0  0  0  0  0
   -1.4424    3.6219    8.8512 C   0  0  0  0  0  0  0  0  0  0  0  0
   -0.9274    4.0385   10.1655 N   0  0  0  0  0  0  0  0  0  0  0  0
  1  3  1  0  0  0  0
  1  2  1  6  0  0  0
  3  4  1  6  0  0  0
  5  6  1  1  0  0  0
  5  3  1  0  0  0  0
  7  9  1  0  0  0  0
  7  5  1  0  0  0  0
  7  8  1  6  0  0  0
  9 10  1  0  0  0  0
  9 11  1  1  0  0  0
 10  1  1  0  0  0  0
 11 12  1  0  0  0  0
 13 14  1  6  0  0  0
 13 21  1  0  0  0  0
 15 13  1  0  0  0  0
 16 15  1  0  0  0  0
 16 18  1  0  0  0  0
 16 17  1  6  0  0  0
 18  2  1  1  0  0  0
 18 19  1  0  0  0  0
 19 21  1  0  0  0  0
 19 20  1  1  0  0  0
 21 22  1  1  0  0  0
 23 20  1  6  0  0  0
 23 29  1  0  0  0  0
 23 24  1  0  0  0  0
 24 26  1  0  0  0  0
 24 25  1  1  0  0  0
 26 27  1  1  0  0  0
 28 26  1  0  0  0  0
 28 30  1  6  0  0  0
 29 28  1  0  0  0  0
 30 31  1  0  0  0  0
 32 27  1  1  0  0  0
 32 40  1  0  0  0  0
 32 33  1  0  0  0  0
 33 35  1  0  0  0  0
 33 34  1  6  0  0  0
 35 37  1  0  0  0  0
 35 36  1  1  0  0  0
 37 38  1  1  0  0  0
 39 37  1  0  0  0  0
 39 41  1  6  0  0  0
 40 39  1  0  0  0  0
 42 41  1  0  0  0  0
M  END
>  <CHROM.1>
-162.84681424,131.58243244,54.43813142,164.31404649,68.18037400,-120.19223573
37.82659332,-86.31262551,2.71643605,149.66180302,119.16423117,-60.13083427
-63.63593246,158.26693589,-127.65192672,177.84673259,-61.19845638,-44.84519469
61.09863932,67.38443052,71.94995945,68.35361995,-2.02587037,1.91678440,3.15860740
1.44145628,-0.64832417,-2.10423198

>  <Name>
lig.pdb

>  <RI>
0

>  <Rbt.Current_Directory>
/home/itssahil/PROJECTS/Mol_Feturizer/New_Systems/rnas/2mxs

>  <Rbt.Executable>
rbdock ($Id: //depot/dev/client3/rdock/2013.1/src/exe/rbdock.cxx#4 $)

>  <Rbt.Library>
libRbt.so (2013.1, Build901 2013/11/27)

>  <Rbt.Parameter_File>
/export/apps/rDock/src/rDock_2013.1_src/data/scripts/dock_solv.prm

>  <Rbt.Receptor>
prm/pocket_docking_6.prm

>  <SCORE>
-19.6751

>  <SCORE.INTER>
-33.1781

>  <SCORE.INTER.CONST>
1

>  <SCORE.INTER.POLAR>
-5.21492

>  <SCORE.INTER.ROT>
9

>  <SCORE.INTER.SOLV>
17.4765

>  <SCORE.INTER.VDW>
-20.1612

>  <SCORE.INTER.norm>
-0.789956

>  <SCORE.INTRA>
13.503

>  <SCORE.INTRA.DIHEDRAL>
15.07

>  <SCORE.INTRA.DIHEDRAL.0>
30.1357

>  <SCORE.INTRA.POLAR>
-0.045638

>  <SCORE.INTRA.POLAR.0>
-0.631696

>  <SCORE.INTRA.REPUL>
0

>  <SCORE.INTRA.REPUL.0>
0

>  <SCORE.INTRA.SOLV>
-0.291059

>  <SCORE.INTRA.SOLV.lig_0>
-55.904

>  <SCORE.INTRA.VDW>
6.26874

>  <SCORE.INTRA.VDW.0>
-8.21197

>  <SCORE.INTRA.norm>
0.321501

>  <SCORE.RESTR>
0

>  <SCORE.RESTR.CAVITY>
0

>  <SCORE.RESTR.norm>
0

>  <SCORE.SYSTEM>
0

>  <SCORE.SYSTEM.CONST>
0

>  <SCORE.SYSTEM.DIHEDRAL>
0

>  <SCORE.SYSTEM.SOLV>
0

>  <SCORE.SYSTEM.norm>
0

>  <SCORE.heavy>
42

>  <SCORE.norm>
-0.468455

>  <RMSD>
5.724

$$$$
lig.pdb
 OpenBabel11021811453D
libRbt.so/2013.1/901 2013/11/27
 42 45  0  0  0  0  0  0  0  0999 V2000
   -0.5711    5.0355    1.8702 C   0  0  2  0  0  0  0  0  0  0  0  0
   -0.0850    5.4304    0.5859 O   0  0  0  0  0  0  0  0  0  0  0  0
   -2.0587    4.6591    1.8001 C   0  0  2  0  0  0  0  0  0  0  0  0
   -2.2951    3.6249    0.7759 N   0  0  0  0  0  0  0  0  0  0  0  0
   -2.9277    5.8971    1.5437 C   0  0  1  0  0  0  0  0  0  0  0  0
   -4.2934    5.5398    1.6375 O   0  0  0  0  0  0  0  0  0  0  0  0
   -2.6154    6.9898    2.5773 C   0  0  2  0  0  0  0  0  0  0  0  0
   -3.3073    8.1740    2.2306 O   0  0  0  0  0  0  0  0  0  0  0  0
   -1.1019    7.2744    2.6595 C   0  0  2  0  0  0  0  0  0  0  0  0
   -0.3585    6.0680    2.8296 O   0  0  0  0  0  0  0  0  0  0  0  0
   -0.8551    8.2109    3.8575 C   0  0  0  0  0  0  0  0  0  0  0  0
   -1.2800    7.6174    5.1135 O   0  0  0  0  0  0  0  0  0  0  0  0
    2.8960    3.5070   -1.8523 C   0  0  2  0  0  0  0  0  0  0  0  0
    4.2347    2.9232   -2.0695 N   0  0  0  0  0  0  0  0  0  0  0  0
    3.0160    4.9820   -1.4609 C   0  0  0  0  0  0  0  0  0  0  0  0
    1.6506    5.5540   -1.0983 C   0  0  2  0  0  0  0  0  0  0  0  0
    1.7609    6.9914   -0.8198 N   0  0  0  0  0  0  0  0  0  0  0  0
    1.0981    4.7693    0.1143 C   0  0  2  0  0  0  0  0  0  0  0  0
    0.8292    3.3625   -0.3148 C   0  0  2  0  0  0  0  0  0  0  0  0
    0.2859    2.6738    0.7965 O   0  0  0  0  0  0  0  0  0  0  0  0
    2.1196    2.7163   -0.7826 C   0  0  1  0  0  0  0  0  0  0  0  0
    1.9090    1.4082   -1.2801 O   0  0  0  0  0  0  0  0  0  0  0  0
    0.9942    2.7417    2.0296 C   0  0  1  0  0  0  0  0  0  0  0  0
    0.0217    2.3638    3.1488 C   0  0  2  0  0  0  0  0  0  0  0  0
    0.3085    3.1369    4.2990 O   0  0  0  0  0  0  0  0  0  0  0  0
    0.3102    0.8696    3.3470 C   0  0  2  0  0  0  0  0  0  0  0  0
   -0.1034    0.3913    4.6272 O   0  0  0  0  0  0  0  0  0  0  0  0
    1.8260    0.8584    3.1139 C   0  0  2  0  0  0  0  0  0  0  0  0
    2.0295    1.7669    2.0407 O   0  0  0  0  0  0  0  0  0  0  0  0
    2.3962   -0.5100    2.7228 C   0  0  0  0  0  0  0  0  0  0  0  0
    3.8037   -0.5365    2.8291 O   0  0  0  0  0  0  0  0  0  0  0  0
    0.1014   -1.0049    4.8346 C   0  0  2  0  0  0  0  0  0  0  0  0
   -0.9396   -1.8516    4.0866 C   0  0  2  0  0  0  0  0  0  0  0  0
   -0.9548   -1.5204    2.6520 N   0  0  0  0  0  0  0  0  0  0  0  0
   -2.3334   -1.6980    4.7139 C   0  0  1  0  0  0  0  0  0  0  0  0
   -3.2288   -2.5624    4.0417 O   0  0  0  0  0  0  0  0  0  0  0  0
   -2.2422   -2.0807    6.2009 C   0  0  2  0  0  0  0  0  0  0  0  0
   -3.4952   -1.9150    6.8389 O   0  0  0  0  0  0  0  0  0  0  0  0
   -1.1577   -1.2518    6.9195 C   0  0  1  0  0  0  0  0  0  0  0  0
    0.0913   -1.3119    6.2270 O   0  0  0  0  0  0  0  0  0  0  0  0
   -1.5866    0.1951    7.2046 C   0  0  0  0  0  0  0  0  0  0  0  0
   -2.8798    0.2427    7.9057 N   0  0  0  0  0  0  0  0  0  0  0  0
  1  3  1  0  0  0  0
  1  2  1  6  0  0  0
  3  4  1  6  0  0  0
  5  6  1  1  0  0  0
  5  3  1  0  0  0  0
  7  9  1  0  0  0  0
  7  5  1  0  0  0  0
  7  8  1  6  0  0  0
  9 10  1  0  0  0  0
  9 11  1  1  0  0  0
 10  1  1  0  0  0  0
 11 12  1  0  0  0  0
 13 14  1  1  0  0  0
 13 21  1  0  0  0  0
 15 13  1  0  0  0  0
 16 15  1  0  0  0  0
 16 18  1  0  0  0  0
 16 17  1  1  0  0  0
 18  2  1  6  0  0  0
 18 19  1  0  0  0  0
 19 21  1  0  0  0  0
 19 20  1  1  0  0  0
 21 22  1  6  0  0  0
 23 20  1  6  0  0  0
 23 29  1  0  0  0  0
 23 24  1  0  0  0  0
 24 26  1  0  0  0  0
 24 25  1  1  0  0  0
 26 27  1  1  0  0  0
 28 26  1  0  0  0  0
 28 30  1  6  0  0  0
 29 28  1  0  0  0  0
 30 31  1  0  0  0  0
 32 27  1  1  0  0  0
 32 40  1  0  0  0  0
 32 33  1  0  0  0  0
 33 35  1  0  0  0  0
 33 34  1  6  0  0  0
 35 37  1  0  0  0  0
 35 36  1  6  0  0  0
 37 38  1  1  0  0  0
 39 37  1  0  0  0  0
 39 41  1  6  0  0  0
 40 39  1  0  0  0  0
 42 41  1  0  0  0  0
M  END
>  <CHROM.1>
-166.47725468,-127.70446055,-82.58977601,-63.11396053,52.77453947,-174.01572244
60.49165516,61.80542180,34.71804296,-51.67108133,160.83340163,-51.33840821
65.53177700,177.78843027,-75.56228673,-166.10733315,-13.70184579,-71.21685519
59.34922114,73.22509513,52.30390971,-54.99706854,-0.23996452,2.60819446,2.59396803
1.28845636,0.76524477,-0.43559132

>  <Name>
lig.pdb

>  <RI>
0

>  <Rbt.Current_Directory>
/home/itssahil/PROJECTS/Mol_Feturizer/New_Systems/rnas/2mxs

>  <Rbt.Executable>
rbdock ($Id: //depot/dev/client3/rdock/2013.1/src/exe/rbdock.cxx#4 $)

>  <Rbt.Library>
libRbt.so (2013.1, Build901 2013/11/27)

>  <Rbt.Parameter_File>
/export/apps/rDock/src/rDock_2013.1_src/data/scripts/dock_solv.prm

>  <Rbt.Receptor>
prm/blind_docking_20.prm

>  <SCORE>
-7.76026

>  <SCORE.INTER>
-22.1584

>  <SCORE.INTER.CONST>
1

>  <SCORE.INTER.POLAR>
-3.53133

>  <SCORE.INTER.ROT>
9

>  <SCORE.INTER.SOLV>
30.0629

>  <SCORE.INTER.VDW>
-22.6221

>  <SCORE.INTER.norm>
-0.527581

>  <SCORE.INTRA>
0.208342

>  <SCORE.INTRA.DIHEDRAL>
-6.58952

>  <SCORE.INTRA.DIHEDRAL.0>
30.1357

>  <SCORE.INTRA.POLAR>
-1.12453

>  <SCORE.INTRA.POLAR.0>
-0.631696

>  <SCORE.INTRA.REPUL>
0

>  <SCORE.INTRA.REPUL.0>
0

>  <SCORE.INTRA.SOLV>
0.446851

>  <SCORE.INTRA.SOLV.lig_0>
-55.904

>  <SCORE.INTRA.VDW>
7.10307

>  <SCORE.INTRA.VDW.0>
-8.21197

>  <SCORE.INTRA.norm>
0.00496053

>  <SCORE.RESTR>
14.1898

>  <SCORE.RESTR.CAVITY>
14.1898

>  <SCORE.RESTR.norm>
0.337853

>  <SCORE.SYSTEM>
0

>  <SCORE.SYSTEM.CONST>
0

>  <SCORE.SYSTEM.DIHEDRAL>
0

>  <SCORE.SYSTEM.SOLV>
0

>  <SCORE.SYSTEM.norm>
0

>  <SCORE.heavy>
42

>  <SCORE.norm>
-0.184768

>  <RMSD>
5.736

$$$$
lig.pdb
 OpenBabel11021811453D
libRbt.so/2013.1/901 2013/11/27
 42 45  0  0  0  0  0  0  0  0999 V2000
    0.0823    1.8334    1.7560 C   0  0  2  0  0  0  0  0  0  0  0  0
    1.1258    2.7330    1.3773 O   0  0  0  0  0  0  0  0  0  0  0  0
    0.6254    0.4068    1.9281 C   0  0  2  0  0  0  0  0  0  0  0  0
    1.7520    0.3807    2.8792 N   0  0  0  0  0  0  0  0  0  0  0  0
    1.0318   -0.1937    0.5761 C   0  0  1  0  0  0  0  0  0  0  0  0
    1.3810   -1.5534    0.7521 O   0  0  0  0  0  0  0  0  0  0  0  0
   -0.1310   -0.0920   -0.4224 C   0  0  2  0  0  0  0  0  0  0  0  0
    0.3123   -0.5036   -1.7013 O   0  0  0  0  0  0  0  0  0  0  0  0
   -0.6861    1.3447   -0.4997 C   0  0  2  0  0  0  0  0  0  0  0  0
   -0.9754    1.8568    0.8007 O   0  0  0  0  0  0  0  0  0  0  0  0
   -1.9733    1.3159   -1.3457 C   0  0  0  0  0  0  0  0  0  0  0  0
   -3.0923    0.7389   -0.6211 O   0  0  0  0  0  0  0  0  0  0  0  0
    0.7465    6.7588   -0.0991 C   0  0  2  0  0  0  0  0  0  0  0  0
    0.2188    7.7650   -1.0421 N   0  0  0  0  0  0  0  0  0  0  0  0
    1.5713    5.7090   -0.8479 C   0  0  0  0  0  0  0  0  0  0  0  0
    2.0012    4.5914    0.0950 C   0  0  2  0  0  0  0  0  0  0  0  0
    2.8725    3.6417   -0.6084 N   0  0  0  0  0  0  0  0  0  0  0  0
    0.7316    3.9083    0.6546 C   0  0  2  0  0  0  0  0  0  0  0  0
    0.0078    4.8902    1.5192 C   0  0  2  0  0  0  0  0  0  0  0  0
   -1.1266    4.2330    2.0537 O   0  0  0  0  0  0  0  0  0  0  0  0
   -0.3965    6.0966    0.6931 C   0  0  1  0  0  0  0  0  0  0  0  0
   -1.0128    7.0979    1.4809 O   0  0  0  0  0  0  0  0  0  0  0  0
   -1.9964    4.9872    2.8912 C   0  0  1  0  0  0  0  0  0  0  0  0
   -3.2036    4.1078    3.2241 C   0  0  2  0  0  0  0  0  0  0  0  0
   -4.3653    4.9132    3.2909 O   0  0  0  0  0  0  0  0  0  0  0  0
   -2.8128    3.5104    4.5826 C   0  0  2  0  0  0  0  0  0  0  0  0
   -3.9390    3.0460    5.3275 O   0  0  0  0  0  0  0  0  0  0  0  0
   -2.0821    4.7093    5.1998 C   0  0  2  0  0  0  0  0  0  0  0  0
   -1.3459    5.2723    4.1231 O   0  0  0  0  0  0  0  0  0  0  0  0
   -1.1121    4.3459    6.3301 C   0  0  0  0  0  0  0  0  0  0  0  0
   -0.0922    3.4788    5.8815 O   0  0  0  0  0  0  0  0  0  0  0  0
   -4.4898    1.8141    4.8659 C   0  0  2  0  0  0  0  0  0  0  0  0
   -5.9241    1.6040    5.3748 C   0  0  2  0  0  0  0  0  0  0  0  0
   -6.7833    2.7434    5.0121 N   0  0  0  0  0  0  0  0  0  0  0  0
   -5.9428    1.3452    6.8889 C   0  0  1  0  0  0  0  0  0  0  0  0
   -7.2736    1.0745    7.2843 O   0  0  0  0  0  0  0  0  0  0  0  0
   -5.0440    0.1329    7.1861 C   0  0  2  0  0  0  0  0  0  0  0  0
   -4.9917   -0.1232    8.5776 O   0  0  0  0  0  0  0  0  0  0  0  0
   -3.6236    0.3467    6.6236 C   0  0  1  0  0  0  0  0  0  0  0  0
   -3.6578    0.7197    5.2441 O   0  0  0  0  0  0  0  0  0  0  0  0
   -2.7776    1.3182    7.4598 C   0  0  0  0  0  0  0  0  0  0  0  0
   -2.7017    0.8896    8.8658 N   0  0  0  0  0  0  0  0  0  0  0  0
  1  3  1  0  0  0  0
  1  2  1  6  0  0  0
  3  4  1  1  0  0  0
  5  6  1  1  0  0  0
  5  3  1  0  0  0  0
  7  9  1  0  0  0  0
  7  5  1  0  0  0  0
  7  8  1  6  0  0  0
  9 10  1  0  0  0  0
  9 11  1  6  0  0  0
 10  1  1  0  0  0  0
 11 12  1  0  0  0  0
 13 14  1  6  0  0  0
 13 21  1  0  0  0  0
 15 13  1  0  0  0  0
 16 15  1  0  0  0  0
 16 18  1  0  0  0  0
 16 17  1  6  0  0  0
 18  2  1  1  0  0  0
 18 19  1  0  0  0  0
 19 21  1  0  0  0  0
 19 20  1  6  0  0  0
 21 22  1  1  0  0  0
 23 20  1  6  0  0  0
 23 29  1  0  0  0  0
 23 24  1  0  0  0  0
 24 26  1  0  0  0  0
 24 25  1  1  0  0  0
 26 27  1  1  0  0  0
 28 26  1  0  0  0  0
 28 30  1  1  0  0  0
 29 28  1  0  0  0  0
 30 31  1  0  0  0  0
 32 27  1  1  0  0  0
 32 40  1  0  0  0  0
 32 33  1  0  0  0  0
 33 35  1  0  0  0  0
 33 34  1  1  0  0  0
 35 37  1  0  0  0  0
 35 36  1  6  0  0  0
 37 38  1  1  0  0  0
 39 37  1  0  0  0  0
 39 41  1  1  0  0  0
 40 39  1  0  0  0  0
 42 41  1  0  0  0  0
M  END
>  <CHROM.1>
-168.66206127,154.60316960,74.76565626,-71.59950123,62.14372193,57.07519335
74.51639176,32.14872544,-54.62144055,-178.47636054,174.49406345,74.84104441
159.44270393,75.48321346,-161.17099262,60.58532369,169.84773417,53.93025502
-65.11498082,-179.17644179,55.39173506,53.81679470,-1.65565234,2.67736362
2.96312740,-0.25837623,-0.89470082,3.10129540

>  <Name>
lig.pdb

>  <RI>
0

>  <Rbt.Current_Directory>
/home/itssahil/PROJECTS/Mol_Feturizer/New_Systems/rnas/2mxs

>  <Rbt.Executable>
rbdock ($Id: //depot/dev/client3/rdock/2013.1/src/exe/rbdock.cxx#4 $)

>  <Rbt.Library>
libRbt.so (2013.1, Build901 2013/11/27)

>  <Rbt.Parameter_File>
/export/apps/rDock/src/rDock_2013.1_src/data/scripts/dock_solv.prm

>  <Rbt.Receptor>
prm/pocket_docking_7.prm

>  <SCORE>
-54.5158

>  <SCORE.INTER>
-52.267

>  <SCORE.INTER.CONST>
1

>  <SCORE.INTER.POLAR>
-7.42334

>  <SCORE.INTER.ROT>
9

>  <SCORE.INTER.SOLV>
17.3697

>  <SCORE.INTER.VDW>
-25.4901

>  <SCORE.INTER.norm>
-1.24445

>  <SCORE.INTRA>
-2.24875

>  <SCORE.INTRA.DIHEDRAL>
-15.7828

>  <SCORE.INTRA.DIHEDRAL.0>
30.1357

>  <SCORE.INTRA.POLAR>
0.360942

>  <SCORE.INTRA.POLAR.0>
-0.631696

>  <SCORE.INTRA.REPUL>
0

>  <SCORE.INTRA.REPUL.0>
0

>  <SCORE.INTRA.SOLV>
0.0338157

>  <SCORE.INTRA.SOLV.lig_0>
-55.904

>  <SCORE.INTRA.VDW>
4.39856

>  <SCORE.INTRA.VDW.0>
-8.21197

>  <SCORE.INTRA.norm>
-0.0535416

>  <SCORE.RESTR>
0

>  <SCORE.RESTR.CAVITY>
0

>  <SCORE.RESTR.norm>
0

>  <SCORE.SYSTEM>
0

>  <SCORE.SYSTEM.CONST>
0

>  <SCORE.SYSTEM.DIHEDRAL>
0

>  <SCORE.SYSTEM.SOLV>
0

>  <SCORE.SYSTEM.norm>
0

>  <SCORE.heavy>
42

>  <SCORE.norm>
-1.29799

>  <RMSD>
5.740

$$$$
lig.pdb
 OpenBabel11021811453D
libRbt.so/2013.1/901 2013/11/27
 42 45  0  0  0  0  0  0  0  0999 V2000
   -1.6567    4.0607    1.8286 C   0  0  2  0  0  0  0  0  0  0  0  0
   -1.2691    4.3953    0.4947 O   0  0  0  0  0  0  0  0  0  0  0  0
   -3.1337    4.4058    2.0720 C   0  0  2  0  0  0  0  0  0  0  0  0
   -3.9997    3.7644    1.0656 N   0  0  0  0  0  0  0  0  0  0  0  0
   -3.3469    5.9249    2.0944 C   0  0  1  0  0  0  0  0  0  0  0  0
   -4.6814    6.2063    2.4709 O   0  0  0  0  0  0  0  0  0  0  0  0
   -2.3860    6.5824    3.0964 C   0  0  2  0  0  0  0  0  0  0  0  0
   -2.4866    7.9894    2.9879 O   0  0  0  0  0  0  0  0  0  0  0  0
   -0.9279    6.1430    2.8534 C   0  0  2  0  0  0  0  0  0  0  0  0
   -0.8231    4.7216    2.7773 O   0  0  0  0  0  0  0  0  0  0  0  0
   -0.0691    6.6663    4.0204 C   0  0  0  0  0  0  0  0  0  0  0  0
   -0.2309    8.0959    4.2215 O   0  0  0  0  0  0  0  0  0  0  0  0
    2.4992    3.8049   -1.5010 C   0  0  2  0  0  0  0  0  0  0  0  0
    3.9740    3.8488   -1.5569 N   0  0  0  0  0  0  0  0  0  0  0  0
    1.9340    5.2074   -1.2625 C   0  0  0  0  0  0  0  0  0  0  0  0
    0.4240    5.1509   -1.0631 C   0  0  2  0  0  0  0  0  0  0  0  0
   -0.1212    6.5080   -0.9333 N   0  0  0  0  0  0  0  0  0  0  0  0
    0.1275    4.2853    0.1836 C   0  0  2  0  0  0  0  0  0  0  0  0
    0.5342    2.8769   -0.1104 C   0  0  2  0  0  0  0  0  0  0  0  0
    0.2163    2.0949    1.0262 O   0  0  0  0  0  0  0  0  0  0  0  0
    2.0202    2.8272   -0.4115 C   0  0  1  0  0  0  0  0  0  0  0  0
    2.4448    1.5283   -0.7797 O   0  0  0  0  0  0  0  0  0  0  0  0
    1.0051    2.2760    2.1974 C   0  0  1  0  0  0  0  0  0  0  0  0
    0.2035    1.7450    3.3878 C   0  0  2  0  0  0  0  0  0  0  0  0
    0.4572    2.5538    4.5211 O   0  0  0  0  0  0  0  0  0  0  0  0
    0.7449    0.3172    3.5404 C   0  0  2  0  0  0  0  0  0  0  0  0
    0.5226   -0.2224    4.8436 O   0  0  0  0  0  0  0  0  0  0  0  0
    2.2177    0.5517    3.1828 C   0  0  2  0  0  0  0  0  0  0  0  0
    2.1813    1.4817    2.1094 O   0  0  0  0  0  0  0  0  0  0  0  0
    2.9664   -0.7060    2.7268 C   0  0  0  0  0  0  0  0  0  0  0  0
    3.5399   -0.5350    1.4482 O   0  0  0  0  0  0  0  0  0  0  0  0
    0.5230   -1.6473    4.9049 C   0  0  2  0  0  0  0  0  0  0  0  0
   -0.6206   -2.2544    4.0780 C   0  0  2  0  0  0  0  0  0  0  0  0
   -0.5731   -1.7788    2.6853 N   0  0  0  0  0  0  0  0  0  0  0  0
   -1.9845   -1.9676    4.7240 C   0  0  1  0  0  0  0  0  0  0  0  0
   -2.9874   -2.6208    3.9700 O   0  0  0  0  0  0  0  0  0  0  0  0
   -1.9647   -2.5102    6.1631 C   0  0  2  0  0  0  0  0  0  0  0  0
   -3.1877   -2.2328    6.8203 O   0  0  0  0  0  0  0  0  0  0  0  0
   -0.7803   -1.9239    6.9586 C   0  0  1  0  0  0  0  0  0  0  0  0
    0.4545   -2.0912    6.2581 O   0  0  0  0  0  0  0  0  0  0  0  0
   -1.0004   -0.4675    7.3934 C   0  0  0  0  0  0  0  0  0  0  0  0
   -1.5657    0.3390    6.2996 N   0  0  0  0  0  0  0  0  0  0  0  0
  1  3  1  0  0  0  0
  1  2  1  6  0  0  0
  3  4  1  6  0  0  0
  5  6  1  1  0  0  0
  5  3  1  0  0  0  0
  7  9  1  0  0  0  0
  7  5  1  0  0  0  0
  7  8  1  6  0  0  0
  9 10  1  0  0  0  0
  9 11  1  1  0  0  0
 10  1  1  0  0  0  0
 11 12  1  0  0  0  0
 13 14  1  1  0  0  0
 13 21  1  0  0  0  0
 15 13  1  0  0  0  0
 16 15  1  0  0  0  0
 16 18  1  0  0  0  0
 16 17  1  1  0  0  0
 18  2  1  6  0  0  0
 18 19  1  0  0  0  0
 19 21  1  0  0  0  0
 19 20  1  1  0  0  0
 21 22  1  6  0  0  0
 23 20  1  6  0  0  0
 23 29  1  0  0  0  0
 23 24  1  0  0  0  0
 24 26  1  0  0  0  0
 24 25  1  1  0  0  0
 26 27  1  1  0  0  0
 28 26  1  0  0  0  0
 28 30  1  6  0  0  0
 29 28  1  0  0  0  0
 30 31  1  0  0  0  0
 32 27  1  1  0  0  0
 32 40  1  0  0  0  0
 32 33  1  0  0  0  0
 33 35  1  0  0  0  0
 33 34  1  6  0  0  0
 35 37  1  0  0  0  0
 35 36  1  6  0  0  0
 37 38  1  1  0  0  0
 39 37  1  0  0  0  0
 39 41  1  6  0  0  0
 40 39  1  0  0  0  0
 42 41  1  0  0  0  0
M  END
>  <CHROM.1>
-159.36542878,172.24699270,52.39940321,-59.86941184,-175.74095201,-144.15608754
-53.41107349,57.79705652,63.02367313,-71.24945685,159.94547014,74.10563023
-179.02811849,157.18489200,-63.18191154,123.53131073,13.84263495,158.56265523
-56.25745679,-167.42851655,-44.06910169,-176.93019893,-0.27304268,2.28918773
2.66124076,1.51945756,0.69474323,-0.50999214

>  <Name>
lig.pdb

>  <RI>
0

>  <Rbt.Current_Directory>
/home/itssahil/PROJECTS/Mol_Feturizer/New_Systems/rnas/2mxs

>  <Rbt.Executable>
rbdock ($Id: //depot/dev/client3/rdock/2013.1/src/exe/rbdock.cxx#4 $)

>  <Rbt.Library>
libRbt.so (2013.1, Build901 2013/11/27)

>  <Rbt.Parameter_File>
/export/apps/rDock/src/rDock_2013.1_src/data/scripts/dock_solv.prm

>  <Rbt.Receptor>
prm/blind_docking_80.prm

>  <SCORE>
-20.4464

>  <SCORE.INTER>
-34.0354

>  <SCORE.INTER.CONST>
1

>  <SCORE.INTER.POLAR>
-5.63271

>  <SCORE.INTER.ROT>
9

>  <SCORE.INTER.SOLV>
32.886

>  <SCORE.INTER.VDW>
-24.4765

>  <SCORE.INTER.norm>
-0.810366

>  <SCORE.INTRA>
2.13374

>  <SCORE.INTRA.DIHEDRAL>
-2.29812

>  <SCORE.INTRA.DIHEDRAL.0>
30.1357

>  <SCORE.INTRA.POLAR>
-1.50496

>  <SCORE.INTRA.POLAR.0>
-0.631696

>  <SCORE.INTRA.REPUL>
0

>  <SCORE.INTRA.REPUL.0>
0

>  <SCORE.INTRA.SOLV>
2.36767

>  <SCORE.INTRA.SOLV.lig_0>
-55.904

>  <SCORE.INTRA.VDW>
7.21582

>  <SCORE.INTRA.VDW.0>
-8.21197

>  <SCORE.INTRA.norm>
0.0508034

>  <SCORE.RESTR>
11.4552

>  <SCORE.RESTR.CAVITY>
11.4552

>  <SCORE.RESTR.norm>
0.272744

>  <SCORE.SYSTEM>
0

>  <SCORE.SYSTEM.CONST>
0

>  <SCORE.SYSTEM.DIHEDRAL>
0

>  <SCORE.SYSTEM.SOLV>
0

>  <SCORE.SYSTEM.norm>
0

>  <SCORE.heavy>
42

>  <SCORE.norm>
-0.486819

>  <RMSD>
5.762

$$$$
lig.pdb
 OpenBabel11021811453D
libRbt.so/2013.1/901 2013/11/27
 42 45  0  0  0  0  0  0  0  0999 V2000
   -1.1345    4.5040    1.4999 C   0  0  2  0  0  0  0  0  0  0  0  0
   -0.6720    5.0814    0.2776 O   0  0  0  0  0  0  0  0  0  0  0  0
   -2.6468    4.7156    1.6672 C   0  0  2  0  0  0  0  0  0  0  0  0
   -3.3852    4.2037    0.4980 N   0  0  0  0  0  0  0  0  0  0  0  0
   -2.9706    6.1939    1.9192 C   0  0  1  0  0  0  0  0  0  0  0  0
   -4.3466    6.3287    2.2192 O   0  0  0  0  0  0  0  0  0  0  0  0
   -2.1386    6.7280    3.0949 C   0  0  2  0  0  0  0  0  0  0  0  0
   -2.3324    8.1247    3.2096 O   0  0  0  0  0  0  0  0  0  0  0  0
   -0.6383    6.4224    2.9109 C   0  0  2  0  0  0  0  0  0  0  0  0
   -0.4254    5.0430    2.6128 O   0  0  0  0  0  0  0  0  0  0  0  0
    0.0893    6.7906    4.2180 C   0  0  0  0  0  0  0  0  0  0  0  0
    0.3410    5.6274    5.0511 O   0  0  0  0  0  0  0  0  0  0  0  0
    3.0672    4.4326   -1.7543 C   0  0  2  0  0  0  0  0  0  0  0  0
    4.5416    4.3627   -1.7962 N   0  0  0  0  0  0  0  0  0  0  0  0
    2.6126    5.8371   -1.3494 C   0  0  0  0  0  0  0  0  0  0  0  0
    1.1001    5.8800   -1.1668 C   0  0  2  0  0  0  0  0  0  0  0  0
    0.6634    7.2512   -0.8753 N   0  0  0  0  0  0  0  0  0  0  0  0
    0.7159    4.8966   -0.0369 C   0  0  2  0  0  0  0  0  0  0  0  0
    1.0130    3.5058   -0.4984 C   0  0  2  0  0  0  0  0  0  0  0  0
    0.6159    2.6202    0.5324 O   0  0  0  0  0  0  0  0  0  0  0  0
    2.4947    3.3722   -0.7951 C   0  0  1  0  0  0  0  0  0  0  0  0
    2.8194    2.0973   -1.3168 O   0  0  0  0  0  0  0  0  0  0  0  0
    1.5042    2.4397    1.6302 C   0  0  1  0  0  0  0  0  0  0  0  0
    0.6748    1.9841    2.8326 C   0  0  2  0  0  0  0  0  0  0  0  0
    1.2142    2.5472    4.0136 O   0  0  0  0  0  0  0  0  0  0  0  0
    0.8235    0.4576    2.7776 C   0  0  2  0  0  0  0  0  0  0  0  0
    0.5564   -0.1699    4.0320 O   0  0  0  0  0  0  0  0  0  0  0  0
    2.2766    0.3492    2.2994 C   0  0  2  0  0  0  0  0  0  0  0  0
    2.4157    1.3875    1.3397 O   0  0  0  0  0  0  0  0  0  0  0  0
    2.6276   -0.9892    1.6392 C   0  0  0  0  0  0  0  0  0  0  0  0
    3.7750   -0.8818    0.8237 O   0  0  0  0  0  0  0  0  0  0  0  0
   -0.4304    0.4853    4.8263 C   0  0  2  0  0  0  0  0  0  0  0  0
   -0.0498    0.4966    6.3146 C   0  0  2  0  0  0  0  0  0  0  0  0
    1.2807    1.0954    6.5130 N   0  0  0  0  0  0  0  0  0  0  0  0
   -0.1270   -0.9142    6.9173 C   0  0  1  0  0  0  0  0  0  0  0  0
    0.1482   -0.8293    8.3021 O   0  0  0  0  0  0  0  0  0  0  0  0
   -1.5461   -1.4627    6.6910 C   0  0  2  0  0  0  0  0  0  0  0  0
   -1.6593   -2.7822    7.1914 O   0  0  0  0  0  0  0  0  0  0  0  0
   -1.9237   -1.4190    5.1960 C   0  0  1  0  0  0  0  0  0  0  0  0
   -1.7078   -0.1201    4.6395 O   0  0  0  0  0  0  0  0  0  0  0  0
   -1.2471   -2.5190    4.3648 C   0  0  0  0  0  0  0  0  0  0  0  0
    0.1035   -2.8170    4.8680 N   0  0  0  0  0  0  0  0  0  0  0  0
  1  3  1  0  0  0  0
  1  2  1  6  0  0  0
  3  4  1  6  0  0  0
  5  6  1  1  0  0  0
  5  3  1  0  0  0  0
  7  9  1  0  0  0  0
  7  5  1  0  0  0  0
  7  8  1  6  0  0  0
  9 10  1  0  0  0  0
  9 11  1  1  0  0  0
 10  1  1  0  0  0  0
 11 12  1  0  0  0  0
 13 14  1  1  0  0  0
 13 21  1  0  0  0  0
 15 13  1  0  0  0  0
 16 15  1  0  0  0  0
 16 18  1  0  0  0  0
 16 17  1  1  0  0  0
 18  2  1  6  0  0  0
 18 19  1  0  0  0  0
 19 21  1  0  0  0  0
 19 20  1  1  0  0  0
 21 22  1  6  0  0  0
 23 20  1  6  0  0  0
 23 29  1  0  0  0  0
 23 24  1  0  0  0  0
 24 26  1  0  0  0  0
 24 25  1  1  0  0  0
 26 27  1  1  0  0  0
 28 26  1  0  0  0  0
 28 30  1  6  0  0  0
 29 28  1  0  0  0  0
 30 31  1  0  0  0  0
 32 27  1  6  0  0  0
 32 40  1  0  0  0  0
 32 33  1  0  0  0  0
 33 35  1  0  0  0  0
 33 34  1  6  0  0  0
 35 37  1  0  0  0  0
 35 36  1  1  0  0  0
 37 38  1  6  0  0  0
 39 37  1  0  0  0  0
 39 41  1  6  0  0  0
 40 39  1  0  0  0  0
 42 41  1  0  0  0  0
M  END
>  <CHROM.1>
-165.34257837,-176.95666340,70.87042777,-179.16766459,178.12238694,-55.35521176
99.25516535,-59.31052656,-125.44877962,-80.69466953,155.72720477,68.50857294
138.84361078,32.65717353,-140.02225832,159.42585904,-153.75834666,33.21482988
-172.53466594,170.87122913,-34.31897753,-58.56708090,0.20208287,2.61678720
2.58144277,1.47485809,0.76979113,-0.60755778

>  <Name>
lig.pdb

>  <RI>
0

>  <Rbt.Current_Directory>
/home/itssahil/PROJECTS/Mol_Feturizer/New_Systems/rnas/2mxs

>  <Rbt.Executable>
rbdock ($Id: //depot/dev/client3/rdock/2013.1/src/exe/rbdock.cxx#4 $)

>  <Rbt.Library>
libRbt.so (2013.1, Build901 2013/11/27)

>  <Rbt.Parameter_File>
/export/apps/rDock/src/rDock_2013.1_src/data/scripts/dock_solv.prm

>  <Rbt.Receptor>
prm/blind_docking_80.prm

>  <SCORE>
-14.9452

>  <SCORE.INTER>
-30.2854

>  <SCORE.INTER.CONST>
1

>  <SCORE.INTER.POLAR>
-7.37708

>  <SCORE.INTER.ROT>
9

>  <SCORE.INTER.SOLV>
34.2663

>  <SCORE.INTER.VDW>
-16.6221

>  <SCORE.INTER.norm>
-0.721081

>  <SCORE.INTRA>
6.43423

>  <SCORE.INTRA.DIHEDRAL>
6.38148

>  <SCORE.INTRA.DIHEDRAL.0>
30.1357

>  <SCORE.INTRA.POLAR>
-1.3613

>  <SCORE.INTRA.POLAR.0>
-0.631696

>  <SCORE.INTRA.REPUL>
0

>  <SCORE.INTRA.REPUL.0>
0

>  <SCORE.INTRA.SOLV>
2.05558

>  <SCORE.INTRA.SOLV.lig_0>
-55.904

>  <SCORE.INTRA.VDW>
6.84412

>  <SCORE.INTRA.VDW.0>
-8.21197

>  <SCORE.INTRA.norm>
0.153196

>  <SCORE.RESTR>
8.90595

>  <SCORE.RESTR.CAVITY>
8.90595

>  <SCORE.RESTR.norm>
0.212046

>  <SCORE.SYSTEM>
0

>  <SCORE.SYSTEM.CONST>
0

>  <SCORE.SYSTEM.DIHEDRAL>
0

>  <SCORE.SYSTEM.SOLV>
0

>  <SCORE.SYSTEM.norm>
0

>  <SCORE.heavy>
42

>  <SCORE.norm>
-0.355839

>  <RMSD>
5.765

$$$$
lig.pdb
 OpenBabel11021811453D
libRbt.so/2013.1/901 2013/11/27
 42 45  0  0  0  0  0  0  0  0999 V2000
   -0.0941    4.6352    1.4642 C   0  0  2  0  0  0  0  0  0  0  0  0
    0.3471    5.2474    0.2510 O   0  0  0  0  0  0  0  0  0  0  0  0
   -1.5629    4.1992    1.3544 C   0  0  2  0  0  0  0  0  0  0  0  0
   -1.7692    3.3246    0.1853 N   0  0  0  0  0  0  0  0  0  0  0  0
   -2.4955    5.4163    1.3033 C   0  0  1  0  0  0  0  0  0  0  0  0
   -3.8402    4.9801    1.3569 O   0  0  0  0  0  0  0  0  0  0  0  0
   -2.2159    6.3511    2.4897 C   0  0  2  0  0  0  0  0  0  0  0  0
   -2.9708    7.5381    2.3389 O   0  0  0  0  0  0  0  0  0  0  0  0
   -0.7166    6.6960    2.5970 C   0  0  2  0  0  0  0  0  0  0  0  0
    0.0873    5.5170    2.5694 O   0  0  0  0  0  0  0  0  0  0  0  0
   -0.4918    7.4481    3.9225 C   0  0  0  0  0  0  0  0  0  0  0  0
   -1.3416    8.6206    4.0379 O   0  0  0  0  0  0  0  0  0  0  0  0
    3.6340    3.7527   -2.0928 C   0  0  2  0  0  0  0  0  0  0  0  0
    5.0736    3.5599   -2.3589 N   0  0  0  0  0  0  0  0  0  0  0  0
    3.2953    5.2450   -2.0544 C   0  0  0  0  0  0  0  0  0  0  0  0
    1.8433    5.4556   -1.6417 C   0  0  2  0  0  0  0  0  0  0  0  0
    1.5007    6.8820   -1.7029 N   0  0  0  0  0  0  0  0  0  0  0  0
    1.6490    4.8730   -0.2225 C   0  0  2  0  0  0  0  0  0  0  0  0
    1.8229    3.3896   -0.2917 C   0  0  2  0  0  0  0  0  0  0  0  0
    1.6000    2.8727    1.0074 O   0  0  0  0  0  0  0  0  0  0  0  0
    3.2215    3.0619   -0.7794 C   0  0  1  0  0  0  0  0  0  0  0  0
    3.4143    1.6696   -0.9445 O   0  0  0  0  0  0  0  0  0  0  0  0
    2.0260    1.5405    1.2730 C   0  0  1  0  0  0  0  0  0  0  0  0
    1.7044    1.2299    2.7364 C   0  0  2  0  0  0  0  0  0  0  0  0
    2.7214    0.4058    3.2744 O   0  0  0  0  0  0  0  0  0  0  0  0
    0.3501    0.5155    2.6329 C   0  0  2  0  0  0  0  0  0  0  0  0
    0.0605   -0.2898    3.7758 O   0  0  0  0  0  0  0  0  0  0  0  0
    0.5610   -0.2664    1.3304 C   0  0  2  0  0  0  0  0  0  0  0  0
    1.2686    0.6303    0.4857 O   0  0  0  0  0  0  0  0  0  0  0  0
   -0.7351   -0.6917    0.6306 C   0  0  0  0  0  0  0  0  0  0  0  0
   -1.5786    0.4127    0.3823 O   0  0  0  0  0  0  0  0  0  0  0  0
   -0.6798    0.3738    4.7984 C   0  0  2  0  0  0  0  0  0  0  0  0
   -0.0421    0.1789    6.1824 C   0  0  2  0  0  0  0  0  0  0  0  0
    1.3665    0.6075    6.1779 N   0  0  0  0  0  0  0  0  0  0  0  0
   -0.1862   -1.2741    6.6595 C   0  0  1  0  0  0  0  0  0  0  0  0
    0.3392   -1.3736    7.9690 O   0  0  0  0  0  0  0  0  0  0  0  0
   -1.6801   -1.6405    6.6581 C   0  0  2  0  0  0  0  0  0  0  0  0
   -1.8661   -2.9881    7.0503 O   0  0  0  0  0  0  0  0  0  0  0  0
   -2.3092   -1.3909    5.2719 C   0  0  1  0  0  0  0  0  0  0  0  0
   -2.0353   -0.0684    4.8036 O   0  0  0  0  0  0  0  0  0  0  0  0
   -1.9337   -2.4569    4.2321 C   0  0  0  0  0  0  0  0  0  0  0  0
   -0.5026   -2.7938    4.3023 N   0  0  0  0  0  0  0  0  0  0  0  0
  1  3  1  0  0  0  0
  1  2  1  6  0  0  0
  3  4  1  6  0  0  0
  5  6  1  1  0  0  0
  5  3  1  0  0  0  0
  7  9  1  0  0  0  0
  7  5  1  0  0  0  0
  7  8  1  6  0  0  0
  9 10  1  0  0  0  0
  9 11  1  1  0  0  0
 10  1  1  0  0  0  0
 11 12  1  0  0  0  0
 13 14  1  1  0  0  0
 13 21  1  0  0  0  0
 15 13  1  0  0  0  0
 16 15  1  0  0  0  0
 16 18  1  0  0  0  0
 16 17  1  1  0  0  0
 18  2  1  6  0  0  0
 18 19  1  0  0  0  0
 19 21  1  0  0  0  0
 19 20  1  1  0  0  0
 21 22  1  6  0  0  0
 23 20  1  6  0  0  0
 23 29  1  0  0  0  0
 23 24  1  0  0  0  0
 24 26  1  0  0  0  0
 24 25  1  6  0  0  0
 26 27  1  1  0  0  0
 28 26  1  0  0  0  0
 28 30  1  6  0  0  0
 29 28  1  0  0  0  0
 30 31  1  0  0  0  0
 32 27  1  6  0  0  0
 32 40  1  0  0  0  0
 32 33  1  0  0  0  0
 33 35  1  0  0  0  0
 33 34  1  6  0  0  0
 35 37  1  0  0  0  0
 35 36  1  1  0  0  0
 37 38  1  6  0  0  0
 39 37  1  0  0  0  0
 39 41  1  6  0  0  0
 40 39  1  0  0  0  0
 42 41  1  0  0  0  0
M  END
>  <CHROM.1>
170.95127707,-136.93257338,127.29907043,-60.98808762,67.94206944,67.10931925
-55.39730418,-61.72769236,29.49252683,-164.77931385,178.81389021,72.43712718
61.27227758,92.16100990,-130.99944882,55.16449556,-66.42289838,-143.27439405
67.74726632,31.91621147,-43.44186641,64.73766207,0.15712172,2.40832301,2.23938189
1.29034039,0.80241105,-0.48730102

>  <Name>
lig.pdb

>  <RI>
0

>  <Rbt.Current_Directory>
/home/itssahil/PROJECTS/Mol_Feturizer/New_Systems/rnas/2mxs

>  <Rbt.Executable>
rbdock ($Id: //depot/dev/client3/rdock/2013.1/src/exe/rbdock.cxx#4 $)

>  <Rbt.Library>
libRbt.so (2013.1, Build901 2013/11/27)

>  <Rbt.Parameter_File>
/export/apps/rDock/src/rDock_2013.1_src/data/scripts/dock_solv.prm

>  <Rbt.Receptor>
prm/blind_docking_80.prm

>  <SCORE>
-29.8815

>  <SCORE.INTER>
-49.1156

>  <SCORE.INTER.CONST>
1

>  <SCORE.INTER.POLAR>
-5.96217

>  <SCORE.INTER.ROT>
9

>  <SCORE.INTER.SOLV>
31.9829

>  <SCORE.INTER.VDW>
-33.1308

>  <SCORE.INTER.norm>
-1.16942

>  <SCORE.INTRA>
5.58637

>  <SCORE.INTRA.DIHEDRAL>
2.18169

>  <SCORE.INTRA.DIHEDRAL.0>
30.1357

>  <SCORE.INTRA.POLAR>
-1.49128

>  <SCORE.INTRA.POLAR.0>
-0.631696

>  <SCORE.INTRA.REPUL>
0

>  <SCORE.INTRA.REPUL.0>
0

>  <SCORE.INTRA.SOLV>
2.68305

>  <SCORE.INTRA.SOLV.lig_0>
-55.904

>  <SCORE.INTRA.VDW>
8.22433

>  <SCORE.INTRA.VDW.0>
-8.21197

>  <SCORE.INTRA.norm>
0.133009

>  <SCORE.RESTR>
13.6477

>  <SCORE.RESTR.CAVITY>
13.6477

>  <SCORE.RESTR.norm>
0.324946

>  <SCORE.SYSTEM>
0

>  <SCORE.SYSTEM.CONST>
0

>  <SCORE.SYSTEM.DIHEDRAL>
0

>  <SCORE.SYSTEM.SOLV>
0

>  <SCORE.SYSTEM.norm>
0

>  <SCORE.heavy>
42

>  <SCORE.norm>
-0.711465

>  <RMSD>
5.774

$$$$
lig.pdb
 OpenBabel11021811453D
libRbt.so/2013.1/901 2013/11/27
 42 45  0  0  0  0  0  0  0  0999 V2000
    0.8271    1.5575    1.7015 C   0  0  2  0  0  0  0  0  0  0  0  0
    1.6737    2.3763    0.8925 O   0  0  0  0  0  0  0  0  0  0  0  0
    1.3689    0.1224    1.7823 C   0  0  2  0  0  0  0  0  0  0  0  0
    2.7662    0.1101    2.2531 N   0  0  0  0  0  0  0  0  0  0  0  0
    1.2365   -0.5923    0.4313 C   0  0  1  0  0  0  0  0  0  0  0  0
    1.6008   -1.9511    0.5811 O   0  0  0  0  0  0  0  0  0  0  0  0
   -0.2107   -0.5063   -0.0766 C   0  0  2  0  0  0  0  0  0  0  0  0
   -0.2783   -1.0293   -1.3894 O   0  0  0  0  0  0  0  0  0  0  0  0
   -0.7285    0.9463   -0.0660 C   0  0  2  0  0  0  0  0  0  0  0  0
   -0.5079    1.5635    1.2018 O   0  0  0  0  0  0  0  0  0  0  0  0
   -2.2372    0.9192   -0.3761 C   0  0  0  0  0  0  0  0  0  0  0  0
   -2.5082    0.5096   -1.7432 O   0  0  0  0  0  0  0  0  0  0  0  0
    0.9136    6.5318    0.0651 C   0  0  2  0  0  0  0  0  0  0  0  0
    0.1848    7.6211   -0.6151 N   0  0  0  0  0  0  0  0  0  0  0  0
    1.5962    5.6258   -0.9626 C   0  0  0  0  0  0  0  0  0  0  0  0
    2.2317    4.4213   -0.2783 C   0  0  2  0  0  0  0  0  0  0  0  0
    2.9667    3.6111   -1.2577 N   0  0  0  0  0  0  0  0  0  0  0  0
    1.1158    3.6122    0.4227 C   0  0  2  0  0  0  0  0  0  0  0  0
    0.5567    4.4413    1.5343 C   0  0  2  0  0  0  0  0  0  0  0  0
   -0.4324    3.6675    2.1880 O   0  0  0  0  0  0  0  0  0  0  0  0
   -0.0324    5.7204    0.9702 C   0  0  1  0  0  0  0  0  0  0  0  0
   -0.5019    6.5837    1.9887 O   0  0  0  0  0  0  0  0  0  0  0  0
   -0.8251    4.0631    3.4981 C   0  0  1  0  0  0  0  0  0  0  0  0
   -2.0032    3.1821    3.9190 C   0  0  2  0  0  0  0  0  0  0  0  0
   -2.9060    3.9473    4.6951 O   0  0  0  0  0  0  0  0  0  0  0  0
   -1.3149    2.0727    4.7254 C   0  0  2  0  0  0  0  0  0  0  0  0
   -2.2062    1.4025    5.6172 O   0  0  0  0  0  0  0  0  0  0  0  0
   -0.2107    2.8877    5.4099 C   0  0  2  0  0  0  0  0  0  0  0  0
    0.2305    3.7995    4.4138 O   0  0  0  0  0  0  0  0  0  0  0  0
    0.9853    2.0564    5.8887 C   0  0  0  0  0  0  0  0  0  0  0  0
    0.6214    1.1718    6.9271 O   0  0  0  0  0  0  0  0  0  0  0  0
   -3.2175    0.6279    4.9760 C   0  0  2  0  0  0  0  0  0  0  0  0
   -4.2263    0.0587    5.9853 C   0  0  2  0  0  0  0  0  0  0  0  0
   -4.8134    1.1319    6.8047 N   0  0  0  0  0  0  0  0  0  0  0  0
   -3.5826   -1.0281    6.8595 C   0  0  1  0  0  0  0  0  0  0  0  0
   -4.5759   -1.5734    7.7061 O   0  0  0  0  0  0  0  0  0  0  0  0
   -3.0135   -2.1199    5.9376 C   0  0  2  0  0  0  0  0  0  0  0  0
   -2.3688   -3.1285    6.6936 O   0  0  0  0  0  0  0  0  0  0  0  0
   -2.0411   -1.5177    4.9025 C   0  0  1  0  0  0  0  0  0  0  0  0
   -2.6336   -0.4197    4.2049 O   0  0  0  0  0  0  0  0  0  0  0  0
   -0.6727   -1.1499    5.4948 C   0  0  0  0  0  0  0  0  0  0  0  0
    0.2152   -2.3218    5.5616 N   0  0  0  0  0  0  0  0  0  0  0  0
  1  3  1  0  0  0  0
  1  2  1  6  0  0  0
  3  4  1  6  0  0  0
  5  6  1  1  0  0  0
  5  3  1  0  0  0  0
  7  9  1  0  0  0  0
  7  5  1  0  0  0  0
  7  8  1  6  0  0  0
  9 10  1  0  0  0  0
  9 11  1  1  0  0  0
 10  1  1  0  0  0  0
 11 12  1  0  0  0  0
 13 14  1  6  0  0  0
 13 21  1  0  0  0  0
 15 13  1  0  0  0  0
 16 15  1  0  0  0  0
 16 18  1  0  0  0  0
 16 17  1  6  0  0  0
 18  2  1  1  0  0  0
 18 19  1  0  0  0  0
 19 21  1  0  0  0  0
 19 20  1  6  0  0  0
 21 22  1  1  0  0  0
 23 20  1  6  0  0  0
 23 29  1  0  0  0  0
 23 24  1  0  0  0  0
 24 26  1  0  0  0  0
 24 25  1  1  0  0  0
 26 27  1  1  0  0  0
 28 26  1  0  0  0  0
 28 30  1  6  0  0  0
 29 28  1  0  0  0  0
 30 31  1  0  0  0  0
 32 27  1  1  0  0  0
 32 40  1  0  0  0  0
 32 33  1  0  0  0  0
 33 35  1  0  0  0  0
 33 34  1  1  0  0  0
 35 37  1  0  0  0  0
 35 36  1  1  0  0  0
 37 38  1  1  0  0  0
 39 37  1  0  0  0  0
 39 41  1  1  0  0  0
 40 39  1  0  0  0  0
 42 41  1  0  0  0  0
M  END
>  <CHROM.1>
173.16397786,163.12270361,-88.52170398,-58.90580028,20.41524042,57.08433501
-68.22018079,10.42602296,-164.45377635,161.66233476,173.56942180,-51.08865554
68.57789235,67.31739345,-173.93825471,-66.15396385,-58.08746007,-174.17578413
-68.10741825,-30.80212377,82.91544682,-48.90041028,-0.64096085,1.61583379
2.85975582,-0.57784613,-1.06500913,-3.10939617

>  <Name>
lig.pdb

>  <RI>
4.11275e+07

>  <Rbt.Current_Directory>
/home/itssahil/PROJECTS/Mol_Feturizer/New_Systems/rnas/2mxs

>  <Rbt.Executable>
rbdock ($Id: //depot/dev/client3/rdock/2013.1/src/exe/rbdock.cxx#4 $)

>  <Rbt.Library>
libRbt.so (2013.1, Build901 2013/11/27)

>  <Rbt.Parameter_File>
/export/apps/rDock/src/rDock_2013.1_src/data/scripts/dock_solv.prm

>  <Rbt.Receptor>
prm/pocket_docking_8.prm

>  <SCORE>
-47.0606

>  <SCORE.INTER>
-51.5154

>  <SCORE.INTER.CONST>
1

>  <SCORE.INTER.POLAR>
-6.41625

>  <SCORE.INTER.ROT>
9

>  <SCORE.INTER.SOLV>
22.4535

>  <SCORE.INTER.VDW>
-30.0406

>  <SCORE.INTER.norm>
-1.22656

>  <SCORE.INTRA>
4.4548

>  <SCORE.INTRA.DIHEDRAL>
-7.90841

>  <SCORE.INTRA.DIHEDRAL.0>
30.1357

>  <SCORE.INTRA.POLAR>
-0.0515805

>  <SCORE.INTRA.POLAR.0>
-0.631696

>  <SCORE.INTRA.REPUL>
0.182299

>  <SCORE.INTRA.REPUL.0>
0

>  <SCORE.INTRA.SOLV>
0.103721

>  <SCORE.INTRA.SOLV.lig_0>
-55.904

>  <SCORE.INTRA.VDW>
7.62102

>  <SCORE.INTRA.VDW.0>
-8.21197

>  <SCORE.INTRA.norm>
0.106067

>  <SCORE.RESTR>
0

>  <SCORE.RESTR.CAVITY>
0

>  <SCORE.RESTR.norm>
0

>  <SCORE.SYSTEM>
0

>  <SCORE.SYSTEM.CONST>
0

>  <SCORE.SYSTEM.DIHEDRAL>
0

>  <SCORE.SYSTEM.SOLV>
0

>  <SCORE.SYSTEM.norm>
0

>  <SCORE.heavy>
42

>  <SCORE.norm>
-1.12049

>  <RMSD>
5.790

$$$$
lig.pdb
 OpenBabel11021811453D
libRbt.so/2013.1/901 2013/11/27
 42 45  0  0  0  0  0  0  0  0999 V2000
    2.3174    1.6396    0.2032 C   0  0  2  0  0  0  0  0  0  0  0  0
    1.8934    1.8694   -1.1418 O   0  0  0  0  0  0  0  0  0  0  0  0
    3.2925    0.4547    0.2746 C   0  0  2  0  0  0  0  0  0  0  0  0
    4.4323    0.6516   -0.6399 N   0  0  0  0  0  0  0  0  0  0  0  0
    2.5729   -0.8681   -0.0188 C   0  0  1  0  0  0  0  0  0  0  0  0
    3.4616   -1.9459    0.2049 O   0  0  0  0  0  0  0  0  0  0  0  0
    1.3473   -1.0211    0.8946 C   0  0  2  0  0  0  0  0  0  0  0  0
    0.6108   -2.1637    0.5028 O   0  0  0  0  0  0  0  0  0  0  0  0
    0.4427    0.2268    0.8409 C   0  0  2  0  0  0  0  0  0  0  0  0
    1.1961    1.4199    1.0553 O   0  0  0  0  0  0  0  0  0  0  0  0
   -0.6323    0.0865    1.9355 C   0  0  0  0  0  0  0  0  0  0  0  0
   -0.0508   -0.0665    3.2579 O   0  0  0  0  0  0  0  0  0  0  0  0
    2.0168    6.1681   -1.3341 C   0  0  2  0  0  0  0  0  0  0  0  0
    1.8305    7.4549   -2.0338 N   0  0  0  0  0  0  0  0  0  0  0  0
    3.0466    5.3068   -2.0696 C   0  0  0  0  0  0  0  0  0  0  0  0
    3.1409    3.9240   -1.4357 C   0  0  2  0  0  0  0  0  0  0  0  0
    4.1992    3.1400   -2.0846 N   0  0  0  0  0  0  0  0  0  0  0  0
    1.7593    3.2388   -1.5492 C   0  0  2  0  0  0  0  0  0  0  0  0
    0.7864    3.9912   -0.6990 C   0  0  2  0  0  0  0  0  0  0  0  0
   -0.4596    3.3242   -0.7841 O   0  0  0  0  0  0  0  0  0  0  0  0
    0.6770    5.4215   -1.1926 C   0  0  1  0  0  0  0  0  0  0  0  0
   -0.1690    6.2040   -0.3711 O   0  0  0  0  0  0  0  0  0  0  0  0
   -0.9417    2.6685    0.3840 C   0  0  1  0  0  0  0  0  0  0  0  0
   -0.5652    3.5288    1.5921 C   0  0  2  0  0  0  0  0  0  0  0  0
   -0.2463    2.6875    2.6846 O   0  0  0  0  0  0  0  0  0  0  0  0
   -1.8407    4.3499    1.8238 C   0  0  2  0  0  0  0  0  0  0  0  0
   -1.9311    4.8693    3.1508 O   0  0  0  0  0  0  0  0  0  0  0  0
   -2.9008    3.2999    1.4692 C   0  0  2  0  0  0  0  0  0  0  0  0
   -2.3622    2.6122    0.3489 O   0  0  0  0  0  0  0  0  0  0  0  0
   -4.2661    3.8830    1.0863 C   0  0  0  0  0  0  0  0  0  0  0  0
   -4.1442    5.1831    0.5496 O   0  0  0  0  0  0  0  0  0  0  0  0
   -0.6778    5.0345    3.8111 C   0  0  2  0  0  0  0  0  0  0  0  0
   -0.8532    5.2570    5.3210 C   0  0  2  0  0  0  0  0  0  0  0  0
   -1.6371    4.1672    5.9260 N   0  0  0  0  0  0  0  0  0  0  0  0
   -1.4811    6.6288    5.6099 C   0  0  1  0  0  0  0  0  0  0  0  0
   -1.5383    6.8131    7.0111 O   0  0  0  0  0  0  0  0  0  0  0  0
   -0.5985    7.7126    4.9678 C   0  0  2  0  0  0  0  0  0  0  0  0
   -1.1572    8.9979    5.1684 O   0  0  0  0  0  0  0  0  0  0  0  0
   -0.3970    7.4413    3.4627 C   0  0  1  0  0  0  0  0  0  0  0  0
    0.0589    6.1070    3.2279 O   0  0  0  0  0  0  0  0  0  0  0  0
   -1.6288    7.7847    2.6120 C   0  0  0  0  0  0  0  0  0  0  0  0
   -1.2430    8.4225    1.3429 N   0  0  0  0  0  0  0  0  0  0  0  0
  1  3  1  0  0  0  0
  1  2  1  6  0  0  0
  3  4  1  6  0  0  0
  5  6  1  1  0  0  0
  5  3  1  0  0  0  0
  7  9  1  0  0  0  0
  7  5  1  0  0  0  0
  7  8  1  6  0  0  0
  9 10  1  0  0  0  0
  9 11  1  1  0  0  0
 10  1  1  0  0  0  0
 11 12  1  0  0  0  0
 13 14  1  6  0  0  0
 13 21  1  0  0  0  0
 15 13  1  0  0  0  0
 16 15  1  0  0  0  0
 16 18  1  0  0  0  0
 16 17  1  6  0  0  0
 18  2  1  1  0  0  0
 18 19  1  0  0  0  0
 19 21  1  0  0  0  0
 19 20  1  6  0  0  0
 21 22  1  1  0  0  0
 23 20  1  6  0  0  0
 23 29  1  0  0  0  0
 23 24  1  0  0  0  0
 24 26  1  0  0  0  0
 24 25  1  1  0  0  0
 26 27  1  1  0  0  0
 28 26  1  0  0  0  0
 28 30  1  6  0  0  0
 29 28  1  0  0  0  0
 30 31  1  0  0  0  0
 32 27  1  6  0  0  0
 32 40  1  0  0  0  0
 32 33  1  0  0  0  0
 33 35  1  0  0  0  0
 33 34  1  6  0  0  0
 35 37  1  0  0  0  0
 35 36  1  1  0  0  0
 37 38  1  6  0  0  0
 39 37  1  0  0  0  0
 39 41  1  6  0  0  0
 40 39  1  0  0  0  0
 42 41  1  0  0  0  0
M  END
>  <CHROM.1>
61.38125084,-140.98021092,41.80864967,-169.54549206,-45.73643449,-174.18434797
57.81691991,131.33336476,-24.31748133,111.90757538,37.19782824,-41.32951945
146.86506848,24.90291725,-165.89136131,27.01874974,65.86613042,-69.88471447
84.77971846,-158.31770263,139.99902490,-16.68399465,0.17398135,3.71554663
1.32958476,-0.67039393,0.95814987,-0.20515393

>  <Name>
lig.pdb

>  <RI>
0

>  <Rbt.Current_Directory>
/home/itssahil/PROJECTS/Mol_Feturizer/New_Systems/rnas/2mxs

>  <Rbt.Executable>
rbdock ($Id: //depot/dev/client3/rdock/2013.1/src/exe/rbdock.cxx#4 $)

>  <Rbt.Library>
libRbt.so (2013.1, Build901 2013/11/27)

>  <Rbt.Parameter_File>
/export/apps/rDock/src/rDock_2013.1_src/data/scripts/dock_solv.prm

>  <Rbt.Receptor>
prm/blind_docking_20.prm

>  <SCORE>
-6.50449

>  <SCORE.INTER>
-47.5537

>  <SCORE.INTER.CONST>
1

>  <SCORE.INTER.POLAR>
-5.47036

>  <SCORE.INTER.ROT>
9

>  <SCORE.INTER.SOLV>
28.5143

>  <SCORE.INTER.VDW>
-32.5727

>  <SCORE.INTER.norm>
-1.13223

>  <SCORE.INTRA>
24.9745

>  <SCORE.INTRA.DIHEDRAL>
18.7958

>  <SCORE.INTRA.DIHEDRAL.0>
30.1357

>  <SCORE.INTRA.POLAR>
-0.2046

>  <SCORE.INTRA.POLAR.0>
-0.631696

>  <SCORE.INTRA.REPUL>
0

>  <SCORE.INTRA.REPUL.0>
0

>  <SCORE.INTRA.SOLV>
3.92712

>  <SCORE.INTRA.SOLV.lig_0>
-55.904

>  <SCORE.INTRA.VDW>
14.3087

>  <SCORE.INTRA.VDW.0>
-8.21197

>  <SCORE.INTRA.norm>
0.59463

>  <SCORE.RESTR>
16.0747

>  <SCORE.RESTR.CAVITY>
16.0747

>  <SCORE.RESTR.norm>
0.382731

>  <SCORE.SYSTEM>
0

>  <SCORE.SYSTEM.CONST>
0

>  <SCORE.SYSTEM.DIHEDRAL>
0

>  <SCORE.SYSTEM.SOLV>
0

>  <SCORE.SYSTEM.norm>
0

>  <SCORE.heavy>
42

>  <SCORE.norm>
-0.154869

>  <RMSD>
5.801

$$$$
lig.pdb
 OpenBabel11021811453D
libRbt.so/2013.1/901 2013/11/27
 42 45  0  0  0  0  0  0  0  0999 V2000
   -0.7521    4.9935    1.8028 C   0  0  2  0  0  0  0  0  0  0  0  0
   -0.0597    5.6491    0.7388 O   0  0  0  0  0  0  0  0  0  0  0  0
   -2.2463    5.3495    1.7846 C   0  0  2  0  0  0  0  0  0  0  0  0
   -2.8444    5.0547    0.4694 N   0  0  0  0  0  0  0  0  0  0  0  0
   -2.4666    6.8171    2.1734 C   0  0  1  0  0  0  0  0  0  0  0  0
   -3.8538    7.0676    2.2948 O   0  0  0  0  0  0  0  0  0  0  0  0
   -1.7754    7.1228    3.5108 C   0  0  2  0  0  0  0  0  0  0  0  0
   -1.8546    8.5108    3.7726 O   0  0  0  0  0  0  0  0  0  0  0  0
   -0.2991    6.6771    3.4991 C   0  0  2  0  0  0  0  0  0  0  0  0
   -0.1718    5.3244    3.0620 O   0  0  0  0  0  0  0  0  0  0  0  0
    0.2543    6.8157    4.9302 C   0  0  0  0  0  0  0  0  0  0  0  0
    0.0065    8.1339    5.4880 O   0  0  0  0  0  0  0  0  0  0  0  0
    2.6849    3.6905   -1.9375 C   0  0  2  0  0  0  0  0  0  0  0  0
    3.9793    3.0538   -2.2528 N   0  0  0  0  0  0  0  0  0  0  0  0
    2.8988    5.1406   -1.4963 C   0  0  0  0  0  0  0  0  0  0  0  0
    1.5852    5.7607   -1.0350 C   0  0  2  0  0  0  0  0  0  0  0  0
    1.7814    7.1785   -0.7075 N   0  0  0  0  0  0  0  0  0  0  0  0
    1.0618    4.9531    0.1755 C   0  0  2  0  0  0  0  0  0  0  0  0
    0.7007    3.5796   -0.2922 C   0  0  2  0  0  0  0  0  0  0  0  0
    0.1857    2.8717    0.8205 O   0  0  0  0  0  0  0  0  0  0  0  0
    1.9301    2.8934   -0.8571 C   0  0  1  0  0  0  0  0  0  0  0  0
    1.6283    1.6185   -1.3925 O   0  0  0  0  0  0  0  0  0  0  0  0
    1.0004    2.7826    1.9846 C   0  0  1  0  0  0  0  0  0  0  0  0
    0.1455    2.1953    3.1097 C   0  0  2  0  0  0  0  0  0  0  0  0
    0.5111    2.7962    4.3377 O   0  0  0  0  0  0  0  0  0  0  0  0
    0.4973    0.7028    3.0475 C   0  0  2  0  0  0  0  0  0  0  0  0
    0.2166    0.0169    4.2680 O   0  0  0  0  0  0  0  0  0  0  0  0
    1.9854    0.7953    2.6880 C   0  0  2  0  0  0  0  0  0  0  0  0
    2.0623    1.8648    1.7561 O   0  0  0  0  0  0  0  0  0  0  0  0
    2.5602   -0.4706    2.0417 C   0  0  0  0  0  0  0  0  0  0  0  0
    3.8346   -0.2357    1.4814 O   0  0  0  0  0  0  0  0  0  0  0  0
    0.2896   -1.4048    4.1812 C   0  0  2  0  0  0  0  0  0  0  0  0
   -1.0171   -2.0118    3.6480 C   0  0  2  0  0  0  0  0  0  0  0  0
   -1.3847   -1.4149    2.3531 N   0  0  0  0  0  0  0  0  0  0  0  0
   -2.1520   -1.8727    4.6737 C   0  0  1  0  0  0  0  0  0  0  0  0
   -3.3014   -2.5226    4.1663 O   0  0  0  0  0  0  0  0  0  0  0  0
   -1.7042   -2.5358    5.9874 C   0  0  2  0  0  0  0  0  0  0  0  0
   -2.7005   -2.3977    6.9837 O   0  0  0  0  0  0  0  0  0  0  0  0
   -0.3665   -1.9441    6.4772 C   0  0  1  0  0  0  0  0  0  0  0  0
    0.6246   -1.9681    5.4474 O   0  0  0  0  0  0  0  0  0  0  0  0
   -0.5106   -0.5486    7.1022 C   0  0  0  0  0  0  0  0  0  0  0  0
    0.6784    0.2797    6.8445 N   0  0  0  0  0  0  0  0  0  0  0  0
  1  3  1  0  0  0  0
  1  2  1  6  0  0  0
  3  4  1  6  0  0  0
  5  6  1  1  0  0  0
  5  3  1  0  0  0  0
  7  9  1  0  0  0  0
  7  5  1  0  0  0  0
  7  8  1  6  0  0  0
  9 10  1  0  0  0  0
  9 11  1  1  0  0  0
 10  1  1  0  0  0  0
 11 12  1  0  0  0  0
 13 14  1  1  0  0  0
 13 21  1  0  0  0  0
 15 13  1  0  0  0  0
 16 15  1  0  0  0  0
 16 18  1  0  0  0  0
 16 17  1  1  0  0  0
 18  2  1  6  0  0  0
 18 19  1  0  0  0  0
 19 21  1  0  0  0  0
 19 20  1  1  0  0  0
 21 22  1  6  0  0  0
 23 20  1  6  0  0  0
 23 29  1  0  0  0  0
 23 24  1  0  0  0  0
 24 26  1  0  0  0  0
 24 25  1  1  0  0  0
 26 27  1  1  0  0  0
 28 26  1  0  0  0  0
 28 30  1  6  0  0  0
 29 28  1  0  0  0  0
 30 31  1  0  0  0  0
 32 27  1  1  0  0  0
 32 40  1  0  0  0  0
 32 33  1  0  0  0  0
 33 35  1  0  0  0  0
 33 34  1  6  0  0  0
 35 37  1  0  0  0  0
 35 36  1  6  0  0  0
 37 38  1  1  0  0  0
 39 37  1  0  0  0  0
 39 41  1  6  0  0  0
 40 39  1  0  0  0  0
 42 41  1  0  0  0  0
M  END
>  <CHROM.1>
174.79562540,-147.98464471,53.24494842,59.56797743,-53.49882218,172.37302985
-51.69036738,-64.98703411,148.08057366,-55.59019925,170.34608859,-45.15951977
-178.09980175,168.84019833,-83.57529860,167.54106106,-74.64945540,170.49360239
59.76053402,63.71887592,-146.92471704,-52.20567487,0.07576301,2.63815361
2.55845884,1.39593089,0.91603061,-0.35181140

>  <Name>
lig.pdb

>  <RI>
0

>  <Rbt.Current_Directory>
/home/itssahil/PROJECTS/Mol_Feturizer/New_Systems/rnas/2mxs

>  <Rbt.Executable>
rbdock ($Id: //depot/dev/client3/rdock/2013.1/src/exe/rbdock.cxx#4 $)

>  <Rbt.Library>
libRbt.so (2013.1, Build901 2013/11/27)

>  <Rbt.Parameter_File>
/export/apps/rDock/src/rDock_2013.1_src/data/scripts/dock_solv.prm

>  <Rbt.Receptor>
prm/blind_docking_20.prm

>  <SCORE>
-19.1179

>  <SCORE.INTER>
-33.5624

>  <SCORE.INTER.CONST>
1

>  <SCORE.INTER.POLAR>
-3.67933

>  <SCORE.INTER.ROT>
9

>  <SCORE.INTER.SOLV>
32.3799

>  <SCORE.INTER.VDW>
-30.5038

>  <SCORE.INTER.norm>
-0.799104

>  <SCORE.INTRA>
0.0632265

>  <SCORE.INTRA.DIHEDRAL>
-12.893

>  <SCORE.INTRA.DIHEDRAL.0>
30.1357

>  <SCORE.INTRA.POLAR>
-0.267612

>  <SCORE.INTRA.POLAR.0>
-0.631696

>  <SCORE.INTRA.REPUL>
0

>  <SCORE.INTRA.REPUL.0>
0

>  <SCORE.INTRA.SOLV>
0.830891

>  <SCORE.INTRA.SOLV.lig_0>
-55.904

>  <SCORE.INTRA.VDW>
7.00416

>  <SCORE.INTRA.VDW.0>
-8.21197

>  <SCORE.INTRA.norm>
0.00150539

>  <SCORE.RESTR>
14.3813

>  <SCORE.RESTR.CAVITY>
14.3813

>  <SCORE.RESTR.norm>
0.342412

>  <SCORE.SYSTEM>
0

>  <SCORE.SYSTEM.CONST>
0

>  <SCORE.SYSTEM.DIHEDRAL>
0

>  <SCORE.SYSTEM.SOLV>
0

>  <SCORE.SYSTEM.norm>
0

>  <SCORE.heavy>
42

>  <SCORE.norm>
-0.455187

>  <RMSD>
5.804

$$$$
lig.pdb
 OpenBabel11021811453D
libRbt.so/2013.1/901 2013/11/27
 42 45  0  0  0  0  0  0  0  0999 V2000
    2.5034    1.6294    0.7707 C   0  0  2  0  0  0  0  0  0  0  0  0
    1.4091    1.7264   -0.1429 O   0  0  0  0  0  0  0  0  0  0  0  0
    3.2621    0.3077    0.5773 C   0  0  2  0  0  0  0  0  0  0  0  0
    3.6933    0.1453   -0.8235 N   0  0  0  0  0  0  0  0  0  0  0  0
    2.4131   -0.8856    1.0342 C   0  0  1  0  0  0  0  0  0  0  0  0
    3.1947   -2.0639    0.9858 O   0  0  0  0  0  0  0  0  0  0  0  0
    1.9138   -0.6647    2.4700 C   0  0  2  0  0  0  0  0  0  0  0  0
    1.0078   -1.6952    2.8146 O   0  0  0  0  0  0  0  0  0  0  0  0
    1.2274    0.7075    2.6253 C   0  0  2  0  0  0  0  0  0  0  0  0
    2.0503    1.7566    2.1161 O   0  0  0  0  0  0  0  0  0  0  0  0
    0.9554    0.9401    4.1236 C   0  0  0  0  0  0  0  0  0  0  0  0
   -0.0024   -0.0110    4.6606 O   0  0  0  0  0  0  0  0  0  0  0  0
    0.9491    5.9036   -1.0756 C   0  0  2  0  0  0  0  0  0  0  0  0
    0.1336    7.1078   -1.3311 N   0  0  0  0  0  0  0  0  0  0  0  0
    0.6297    4.8166   -2.1049 C   0  0  0  0  0  0  0  0  0  0  0  0
    1.3617    3.5237   -1.7651 C   0  0  2  0  0  0  0  0  0  0  0  0
    1.1275    2.5190   -2.8099 N   0  0  0  0  0  0  0  0  0  0  0  0
    0.8809    3.0399   -0.3773 C   0  0  2  0  0  0  0  0  0  0  0  0
    1.3345    4.0259    0.6511 C   0  0  2  0  0  0  0  0  0  0  0  0
    0.9210    3.5435    1.9164 O   0  0  0  0  0  0  0  0  0  0  0  0
    0.7277    5.3849    0.3577 C   0  0  1  0  0  0  0  0  0  0  0  0
    1.1907    6.3783    1.2531 O   0  0  0  0  0  0  0  0  0  0  0  0
   -0.3856    2.9875    2.0193 C   0  0  1  0  0  0  0  0  0  0  0  0
   -1.0175    3.5140    3.3096 C   0  0  2  0  0  0  0  0  0  0  0  0
   -1.8225    2.5015    3.8836 O   0  0  0  0  0  0  0  0  0  0  0  0
   -1.8334    4.7148    2.8121 C   0  0  2  0  0  0  0  0  0  0  0  0
   -2.8789    5.0842    3.7116 O   0  0  0  0  0  0  0  0  0  0  0  0
   -2.3095    4.1705    1.4596 C   0  0  2  0  0  0  0  0  0  0  0  0
   -1.1918    3.4590    0.9470 O   0  0  0  0  0  0  0  0  0  0  0  0
   -2.7175    5.2505    0.4508 C   0  0  0  0  0  0  0  0  0  0  0  0
   -4.1210    5.3696    0.3556 O   0  0  0  0  0  0  0  0  0  0  0  0
   -3.0099    6.4881    3.9263 C   0  0  2  0  0  0  0  0  0  0  0  0
   -1.6626    7.2140    3.7925 C   0  0  2  0  0  0  0  0  0  0  0  0
   -1.0378    6.9279    2.4902 N   0  0  0  0  0  0  0  0  0  0  0  0
   -0.7243    6.8603    4.9561 C   0  0  1  0  0  0  0  0  0  0  0  0
    0.4616    7.6204    4.8270 O   0  0  0  0  0  0  0  0  0  0  0  0
   -1.4347    7.2057    6.2759 C   0  0  2  0  0  0  0  0  0  0  0  0
   -0.6274    6.8580    7.3857 O   0  0  0  0  0  0  0  0  0  0  0  0
   -2.8056    6.5041    6.3658 C   0  0  1  0  0  0  0  0  0  0  0  0
   -3.5958    6.7482    5.2000 O   0  0  0  0  0  0  0  0  0  0  0  0
   -2.7026    5.0054    6.6855 C   0  0  0  0  0  0  0  0  0  0  0  0
   -3.7742    4.2417    6.0263 N   0  0  0  0  0  0  0  0  0  0  0  0
  1  3  1  0  0  0  0
  1  2  1  6  0  0  0
  3  4  1  6  0  0  0
  5  6  1  1  0  0  0
  5  3  1  0  0  0  0
  7  9  1  0  0  0  0
  7  5  1  0  0  0  0
  7  8  1  6  0  0  0
  9 10  1  0  0  0  0
  9 11  1  1  0  0  0
 10  1  1  0  0  0  0
 11 12  1  0  0  0  0
 13 14  1  6  0  0  0
 13 21  1  0  0  0  0
 15 13  1  0  0  0  0
 16 15  1  0  0  0  0
 16 18  1  0  0  0  0
 16 17  1  6  0  0  0
 18  2  1  1  0  0  0
 18 19  1  0  0  0  0
 19 21  1  0  0  0  0
 19 20  1  1  0  0  0
 21 22  1  1  0  0  0
 23 20  1  6  0  0  0
 23 29  1  0  0  0  0
 23 24  1  0  0  0  0
 24 26  1  0  0  0  0
 24 25  1  6  0  0  0
 26 27  1  1  0  0  0
 28 26  1  0  0  0  0
 28 30  1  6  0  0  0
 29 28  1  0  0  0  0
 30 31  1  0  0  0  0
 32 27  1  1  0  0  0
 32 40  1  0  0  0  0
 32 33  1  0  0  0  0
 33 35  1  0  0  0  0
 33 34  1  6  0  0  0
 35 37  1  0  0  0  0
 35 36  1  6  0  0  0
 37 38  1  1  0  0  0
 39 37  1  0  0  0  0
 39 41  1  6  0  0  0
 40 39  1  0  0  0  0
 42 41  1  0  0  0  0
M  END
>  <CHROM.1>
104.63996822,-160.86283128,-137.59125622,-62.57802321,-49.69602725,56.23192296
-65.20807442,-165.55283638,-29.18473189,-42.04211472,-136.84066972,-27.05570147
66.60606530,136.58209948,-30.17531139,-102.69598205,58.54803996,-179.92565035
-176.51465040,58.39082458,-146.44865362,-60.92077586,-0.15574336,3.71639746
2.21287258,0.01296263,-1.03392642,2.24336034

>  <Name>
lig.pdb

>  <RI>
0

>  <Rbt.Current_Directory>
/home/itssahil/PROJECTS/Mol_Feturizer/New_Systems/rnas/2mxs

>  <Rbt.Executable>
rbdock ($Id: //depot/dev/client3/rdock/2013.1/src/exe/rbdock.cxx#4 $)

>  <Rbt.Library>
libRbt.so (2013.1, Build901 2013/11/27)

>  <Rbt.Parameter_File>
/export/apps/rDock/src/rDock_2013.1_src/data/scripts/dock_solv.prm

>  <Rbt.Receptor>
prm/blind_docking_20.prm

>  <SCORE>
101.798

>  <SCORE.INTER>
47.4487

>  <SCORE.INTER.CONST>
1

>  <SCORE.INTER.POLAR>
-4.81667

>  <SCORE.INTER.ROT>
9

>  <SCORE.INTER.SOLV>
29.3107

>  <SCORE.INTER.VDW>
28.3178

>  <SCORE.INTER.norm>
1.12973

>  <SCORE.INTRA>
37.2199

>  <SCORE.INTRA.DIHEDRAL>
12.3043

>  <SCORE.INTRA.DIHEDRAL.0>
30.1357

>  <SCORE.INTRA.POLAR>
-1.68468

>  <SCORE.INTRA.POLAR.0>
-0.631696

>  <SCORE.INTRA.REPUL>
0.00171983

>  <SCORE.INTRA.REPUL.0>
0

>  <SCORE.INTRA.SOLV>
4.70857

>  <SCORE.INTRA.SOLV.lig_0>
-55.904

>  <SCORE.INTRA.VDW>
34.4328

>  <SCORE.INTRA.VDW.0>
-8.21197

>  <SCORE.INTRA.norm>
0.886189

>  <SCORE.RESTR>
17.1291

>  <SCORE.RESTR.CAVITY>
17.1291

>  <SCORE.RESTR.norm>
0.407835

>  <SCORE.SYSTEM>
0

>  <SCORE.SYSTEM.CONST>
0

>  <SCORE.SYSTEM.DIHEDRAL>
0

>  <SCORE.SYSTEM.SOLV>
0

>  <SCORE.SYSTEM.norm>
0

>  <SCORE.heavy>
42

>  <SCORE.norm>
2.42376

>  <RMSD>
5.805

$$$$
lig.pdb
 OpenBabel11021811453D
libRbt.so/2013.1/901 2013/11/27
 42 45  0  0  0  0  0  0  0  0999 V2000
   -0.9966    5.7502    0.6808 C   0  0  2  0  0  0  0  0  0  0  0  0
    0.3335    5.5377    1.1574 O   0  0  0  0  0  0  0  0  0  0  0  0
   -1.5621    7.0767    1.2101 C   0  0  2  0  0  0  0  0  0  0  0  0
   -0.6685    8.2022    0.8797 N   0  0  0  0  0  0  0  0  0  0  0  0
   -1.8179    7.0016    2.7209 C   0  0  1  0  0  0  0  0  0  0  0  0
   -2.4773    8.1794    3.1447 O   0  0  0  0  0  0  0  0  0  0  0  0
   -2.6909    5.7820    3.0529 C   0  0  2  0  0  0  0  0  0  0  0  0
   -2.7833    5.6404    4.4574 O   0  0  0  0  0  0  0  0  0  0  0  0
   -2.1174    4.4909    2.4345 C   0  0  2  0  0  0  0  0  0  0  0  0
   -1.8427    4.6622    1.0445 O   0  0  0  0  0  0  0  0  0  0  0  0
   -3.1537    3.3671    2.6255 C   0  0  0  0  0  0  0  0  0  0  0  0
   -4.3963    3.6432    1.9255 O   0  0  0  0  0  0  0  0  0  0  0  0
    2.2034    3.6198   -2.2125 C   0  0  2  0  0  0  0  0  0  0  0  0
    3.2989    2.8593   -2.8465 N   0  0  0  0  0  0  0  0  0  0  0  0
    2.7285    4.9459   -1.6569 C   0  0  0  0  0  0  0  0  0  0  0  0
    1.6374    5.6718   -0.8789 C   0  0  2  0  0  0  0  0  0  0  0  0
    2.1200    6.9852   -0.4342 N   0  0  0  0  0  0  0  0  0  0  0  0
    1.2078    4.7795    0.3089 C   0  0  2  0  0  0  0  0  0  0  0  0
    0.5480    3.5529   -0.2348 C   0  0  2  0  0  0  0  0  0  0  0  0
    0.1259    2.7711    0.8676 O   0  0  0  0  0  0  0  0  0  0  0  0
    1.5283    2.7892   -1.1049 C   0  0  1  0  0  0  0  0  0  0  0  0
    0.9304    1.6607   -1.7148 O   0  0  0  0  0  0  0  0  0  0  0  0
    0.9899    2.6959    1.9966 C   0  0  1  0  0  0  0  0  0  0  0  0
    0.1813    2.1335    3.1675 C   0  0  2  0  0  0  0  0  0  0  0  0
    0.6037    2.7523    4.3681 O   0  0  0  0  0  0  0  0  0  0  0  0
    0.5208    0.6378    3.1156 C   0  0  2  0  0  0  0  0  0  0  0  0
    0.2892   -0.0256    4.3586 O   0  0  0  0  0  0  0  0  0  0  0  0
    1.9923    0.7139    2.6902 C   0  0  2  0  0  0  0  0  0  0  0  0
    2.0352    1.7671    1.7378 O   0  0  0  0  0  0  0  0  0  0  0  0
    2.5305   -0.5666    2.0412 C   0  0  0  0  0  0  0  0  0  0  0  0
    3.8446   -0.8540    2.4697 O   0  0  0  0  0  0  0  0  0  0  0  0
    0.3431   -1.4492    4.2916 C   0  0  2  0  0  0  0  0  0  0  0  0
   -0.9426   -2.0415    3.6946 C   0  0  2  0  0  0  0  0  0  0  0  0
   -1.2292   -1.4543    2.3751 N   0  0  0  0  0  0  0  0  0  0  0  0
   -2.1292   -1.8720    4.6552 C   0  0  1  0  0  0  0  0  0  0  0  0
   -3.2599   -2.5093    4.0929 O   0  0  0  0  0  0  0  0  0  0  0  0
   -1.7647   -2.5264    5.9986 C   0  0  2  0  0  0  0  0  0  0  0  0
   -2.8113   -2.3605    6.9374 O   0  0  0  0  0  0  0  0  0  0  0  0
   -0.4459   -1.9505    6.5542 C   0  0  1  0  0  0  0  0  0  0  0  0
    0.5992   -2.0027    5.5804 O   0  0  0  0  0  0  0  0  0  0  0  0
   -0.6006   -0.5455    7.1549 C   0  0  0  0  0  0  0  0  0  0  0  0
    0.5263   -0.2147    8.0421 N   0  0  0  0  0  0  0  0  0  0  0  0
  1  3  1  0  0  0  0
  1  2  1  1  0  0  0
  3  4  1  1  0  0  0
  5  6  1  6  0  0  0
  5  3  1  0  0  0  0
  7  9  1  0  0  0  0
  7  5  1  0  0  0  0
  7  8  1  1  0  0  0
  9 10  1  0  0  0  0
  9 11  1  6  0  0  0
 10  1  1  0  0  0  0
 11 12  1  0  0  0  0
 13 14  1  1  0  0  0
 13 21  1  0  0  0  0
 15 13  1  0  0  0  0
 16 15  1  0  0  0  0
 16 18  1  0  0  0  0
 16 17  1  1  0  0  0
 18  2  1  1  0  0  0
 18 19  1  0  0  0  0
 19 21  1  0  0  0  0
 19 20  1  1  0  0  0
 21 22  1  6  0  0  0
 23 20  1  6  0  0  0
 23 29  1  0  0  0  0
 23 24  1  0  0  0  0
 24 26  1  0  0  0  0
 24 25  1  1  0  0  0
 26 27  1  1  0  0  0
 28 26  1  0  0  0  0
 28 30  1  6  0  0  0
 29 28  1  0  0  0  0
 30 31  1  0  0  0  0
 32 27  1  1  0  0  0
 32 40  1  0  0  0  0
 32 33  1  0  0  0  0
 33 35  1  0  0  0  0
 33 34  1  6  0  0  0
 35 37  1  0  0  0  0
 35 36  1  6  0  0  0
 37 38  1  1  0  0  0
 39 37  1  0  0  0  0
 39 41  1  6  0  0  0
 40 39  1  0  0  0  0
 42 41  1  0  0  0  0
M  END
>  <CHROM.1>
74.51115264,-150.17889362,68.42820791,60.92437361,-165.89961481,70.11485721
62.88448042,-130.16779657,-4.41569514,-39.26904045,165.03562990,69.56225729
65.12736231,168.54943536,-77.80474972,-139.79849577,-27.43242058,169.43668822
69.25398639,-47.10140468,161.56943644,51.51999647,-0.16538889,2.36856485
2.41410751,1.42367744,0.75396067,-0.51542748

>  <Name>
lig.pdb

>  <RI>
0

>  <Rbt.Current_Directory>
/home/itssahil/PROJECTS/Mol_Feturizer/New_Systems/rnas/2mxs

>  <Rbt.Executable>
rbdock ($Id: //depot/dev/client3/rdock/2013.1/src/exe/rbdock.cxx#4 $)

>  <Rbt.Library>
libRbt.so (2013.1, Build901 2013/11/27)

>  <Rbt.Parameter_File>
/export/apps/rDock/src/rDock_2013.1_src/data/scripts/dock_solv.prm

>  <Rbt.Receptor>
prm/blind_docking_20.prm

>  <SCORE>
1.2682

>  <SCORE.INTER>
-21.2922

>  <SCORE.INTER.CONST>
1

>  <SCORE.INTER.POLAR>
-4.36247

>  <SCORE.INTER.ROT>
9

>  <SCORE.INTER.SOLV>
31.2024

>  <SCORE.INTER.VDW>
-19.654

>  <SCORE.INTER.norm>
-0.506958

>  <SCORE.INTRA>
8.81026

>  <SCORE.INTRA.DIHEDRAL>
0.0761501

>  <SCORE.INTRA.DIHEDRAL.0>
30.1357

>  <SCORE.INTRA.POLAR>
0.591885

>  <SCORE.INTRA.POLAR.0>
-0.631696

>  <SCORE.INTRA.REPUL>
0

>  <SCORE.INTRA.REPUL.0>
0

>  <SCORE.INTRA.SOLV>
-0.891231

>  <SCORE.INTRA.SOLV.lig_0>
-55.904

>  <SCORE.INTRA.VDW>
7.20539

>  <SCORE.INTRA.VDW.0>
-8.21197

>  <SCORE.INTRA.norm>
0.209768

>  <SCORE.RESTR>
13.7502

>  <SCORE.RESTR.CAVITY>
13.7502

>  <SCORE.RESTR.norm>
0.327385

>  <SCORE.SYSTEM>
0

>  <SCORE.SYSTEM.CONST>
0

>  <SCORE.SYSTEM.DIHEDRAL>
0

>  <SCORE.SYSTEM.SOLV>
0

>  <SCORE.SYSTEM.norm>
0

>  <SCORE.heavy>
42

>  <SCORE.norm>
0.0301952

>  <RMSD>
5.806

$$$$
lig.pdb
 OpenBabel11021811453D
libRbt.so/2013.1/901 2013/11/27
 42 45  0  0  0  0  0  0  0  0999 V2000
   -0.8942    6.3105    2.4613 C   0  0  2  0  0  0  0  0  0  0  0  0
   -0.0872    5.2953    1.8615 O   0  0  0  0  0  0  0  0  0  0  0  0
   -0.9036    6.1692    3.9909 C   0  0  2  0  0  0  0  0  0  0  0  0
    0.4688    6.1616    4.5300 N   0  0  0  0  0  0  0  0  0  0  0  0
   -1.6720    4.9135    4.4225 C   0  0  1  0  0  0  0  0  0  0  0  0
   -1.7914    4.8973    5.8321 O   0  0  0  0  0  0  0  0  0  0  0  0
   -3.0732    4.9045    3.7929 C   0  0  2  0  0  0  0  0  0  0  0  0
   -3.7044    3.6696    4.0724 O   0  0  0  0  0  0  0  0  0  0  0  0
   -3.0095    5.1249    2.2679 C   0  0  2  0  0  0  0  0  0  0  0  0
   -2.2221    6.2705    1.9446 O   0  0  0  0  0  0  0  0  0  0  0  0
   -4.4478    5.3195    1.7516 C   0  0  0  0  0  0  0  0  0  0  0  0
   -4.5353    5.1803    0.3083 O   0  0  0  0  0  0  0  0  0  0  0  0
    1.9205    6.2846   -1.8157 C   0  0  2  0  0  0  0  0  0  0  0  0
    3.0397    6.8672   -2.5826 N   0  0  0  0  0  0  0  0  0  0  0  0
    1.2437    7.3600   -0.9621 C   0  0  0  0  0  0  0  0  0  0  0  0
    0.1802    6.7411   -0.0628 C   0  0  2  0  0  0  0  0  0  0  0  0
   -0.5298    7.7906    0.6791 N   0  0  0  0  0  0  0  0  0  0  0  0
    0.8678    5.7277    0.8816 C   0  0  2  0  0  0  0  0  0  0  0  0
    1.3903    4.5935    0.0592 C   0  0  2  0  0  0  0  0  0  0  0  0
    1.9779    3.6590    0.9458 O   0  0  0  0  0  0  0  0  0  0  0  0
    2.4058    5.1136   -0.9406 C   0  0  1  0  0  0  0  0  0  0  0  0
    2.8724    4.0936   -1.8037 O   0  0  0  0  0  0  0  0  0  0  0  0
    1.7831    2.2750    0.6748 C   0  0  1  0  0  0  0  0  0  0  0  0
    1.7152    1.5410    2.0157 C   0  0  2  0  0  0  0  0  0  0  0  0
    2.3259    0.2710    1.8856 O   0  0  0  0  0  0  0  0  0  0  0  0
    0.2041    1.4533    2.2685 C   0  0  2  0  0  0  0  0  0  0  0  0
   -0.1441    0.4170    3.1870 O   0  0  0  0  0  0  0  0  0  0  0  0
   -0.2933    1.2367    0.8340 C   0  0  2  0  0  0  0  0  0  0  0  0
    0.5249    2.0844    0.0401 O   0  0  0  0  0  0  0  0  0  0  0  0
   -1.7630    1.6112    0.6103 C   0  0  0  0  0  0  0  0  0  0  0  0
   -1.9129    2.9879    0.3359 O   0  0  0  0  0  0  0  0  0  0  0  0
    0.9521   -0.1101    3.9318 C   0  0  2  0  0  0  0  0  0  0  0  0
    0.5120   -1.2447    4.8693 C   0  0  2  0  0  0  0  0  0  0  0  0
   -0.1857   -2.3042    4.1218 N   0  0  0  0  0  0  0  0  0  0  0  0
   -0.3504   -0.7085    6.0219 C   0  0  1  0  0  0  0  0  0  0  0  0
   -0.6524   -1.7790    6.8957 O   0  0  0  0  0  0  0  0  0  0  0  0
    0.4504    0.3738    6.7657 C   0  0  2  0  0  0  0  0  0  0  0  0
   -0.3178    0.9335    7.8150 O   0  0  0  0  0  0  0  0  0  0  0  0
    0.9225    1.4766    5.7959 C   0  0  1  0  0  0  0  0  0  0  0  0
    1.6028    0.9242    4.6666 O   0  0  0  0  0  0  0  0  0  0  0  0
   -0.1986    2.4387    5.3759 C   0  0  0  0  0  0  0  0  0  0  0  0
   -1.4666    1.7231    5.1604 N   0  0  0  0  0  0  0  0  0  0  0  0
  1  3  1  0  0  0  0
  1  2  1  6  0  0  0
  3  4  1  6  0  0  0
  5  6  1  1  0  0  0
  5  3  1  0  0  0  0
  7  9  1  0  0  0  0
  7  5  1  0  0  0  0
  7  8  1  6  0  0  0
  9 10  1  0  0  0  0
  9 11  1  1  0  0  0
 10  1  1  0  0  0  0
 11 12  1  0  0  0  0
 13 14  1  1  0  0  0
 13 21  1  0  0  0  0
 15 13  1  0  0  0  0
 16 15  1  0  0  0  0
 16 18  1  0  0  0  0
 16 17  1  1  0  0  0
 18  2  1  1  0  0  0
 18 19  1  0  0  0  0
 19 21  1  0  0  0  0
 19 20  1  1  0  0  0
 21 22  1  6  0  0  0
 23 20  1  1  0  0  0
 23 29  1  0  0  0  0
 23 24  1  0  0  0  0
 24 26  1  0  0  0  0
 24 25  1  6  0  0  0
 26 27  1  1  0  0  0
 28 26  1  0  0  0  0
 28 30  1  1  0  0  0
 29 28  1  0  0  0  0
 30 31  1  0  0  0  0
 32 27  1  1  0  0  0
 32 40  1  0  0  0  0
 32 33  1  0  0  0  0
 33 35  1  0  0  0  0
 33 34  1  6  0  0  0
 35 37  1  0  0  0  0
 35 36  1  1  0  0  0
 37 38  1  1  0  0  0
 39 37  1  0  0  0  0
 39 41  1  6  0  0  0
 40 39  1  0  0  0  0
 42 41  1  0  0  0  0
M  END
>  <CHROM.1>
-44.60668435,-131.37002985,-31.57832302,-59.97254323,-178.55201342,-6.13703540
-164.70309794,-166.77287912,68.22098477,140.80299520,-146.74606949,58.97995879
-59.71947590,14.53580708,-178.41664181,85.01533349,150.25873131,-177.77149325
59.23771736,164.84949410,-39.09756340,64.79028266,-0.18140463,3.27311928
2.50913306,1.46570338,0.73996508,-0.69548198

>  <Name>
lig.pdb

>  <RI>
0

>  <Rbt.Current_Directory>
/home/itssahil/PROJECTS/Mol_Feturizer/New_Systems/rnas/2mxs

>  <Rbt.Executable>
rbdock ($Id: //depot/dev/client3/rdock/2013.1/src/exe/rbdock.cxx#4 $)

>  <Rbt.Library>
libRbt.so (2013.1, Build901 2013/11/27)

>  <Rbt.Parameter_File>
/export/apps/rDock/src/rDock_2013.1_src/data/scripts/dock_solv.prm

>  <Rbt.Receptor>
prm/blind_docking_80.prm

>  <SCORE>
1.79864

>  <SCORE.INTER>
-41.3237

>  <SCORE.INTER.CONST>
1

>  <SCORE.INTER.POLAR>
-4.33253

>  <SCORE.INTER.ROT>
9

>  <SCORE.INTER.SOLV>
22.5666

>  <SCORE.INTER.VDW>
-30.2296

>  <SCORE.INTER.norm>
-0.983899

>  <SCORE.INTRA>
26.3248

>  <SCORE.INTRA.DIHEDRAL>
11.7457

>  <SCORE.INTRA.DIHEDRAL.0>
30.1357

>  <SCORE.INTRA.POLAR>
-2.28859

>  <SCORE.INTRA.POLAR.0>
-0.631696

>  <SCORE.INTRA.REPUL>
0.266581

>  <SCORE.INTRA.REPUL.0>
0

>  <SCORE.INTRA.SOLV>
4.26181

>  <SCORE.INTRA.SOLV.lig_0>
-55.904

>  <SCORE.INTRA.VDW>
24.7694

>  <SCORE.INTRA.VDW.0>
-8.21197

>  <SCORE.INTRA.norm>
0.626781

>  <SCORE.RESTR>
16.7976

>  <SCORE.RESTR.CAVITY>
16.7976

>  <SCORE.RESTR.norm>
0.399942

>  <SCORE.SYSTEM>
0

>  <SCORE.SYSTEM.CONST>
0

>  <SCORE.SYSTEM.DIHEDRAL>
0

>  <SCORE.SYSTEM.SOLV>
0

>  <SCORE.SYSTEM.norm>
0

>  <SCORE.heavy>
42

>  <SCORE.norm>
0.0428248

>  <RMSD>
5.811

$$$$
lig.pdb
 OpenBabel11021811453D
libRbt.so/2013.1/901 2013/11/27
 42 45  0  0  0  0  0  0  0  0999 V2000
   -2.1547    1.2701    1.8105 C   0  0  2  0  0  0  0  0  0  0  0  0
   -1.0734    1.7428    1.0049 O   0  0  0  0  0  0  0  0  0  0  0  0
   -1.9211   -0.1863    2.2398 C   0  0  2  0  0  0  0  0  0  0  0  0
   -0.6193   -0.3362    2.9159 N   0  0  0  0  0  0  0  0  0  0  0  0
   -2.0322   -1.1374    1.0412 C   0  0  1  0  0  0  0  0  0  0  0  0
   -1.9644   -2.4755    1.4957 O   0  0  0  0  0  0  0  0  0  0  0  0
   -3.3636   -0.9159    0.3077 C   0  0  2  0  0  0  0  0  0  0  0  0
   -3.3782   -1.6855   -0.8793 O   0  0  0  0  0  0  0  0  0  0  0  0
   -3.5811    0.5725   -0.0324 C   0  0  2  0  0  0  0  0  0  0  0  0
   -3.3937    1.3972    1.1173 O   0  0  0  0  0  0  0  0  0  0  0  0
   -5.0181    0.7376   -0.5625 C   0  0  0  0  0  0  0  0  0  0  0  0
   -6.0131    0.5003    0.4690 O   0  0  0  0  0  0  0  0  0  0  0  0
    0.3148    5.7709    0.3896 C   0  0  2  0  0  0  0  0  0  0  0  0
    0.0972    7.2036    0.1065 N   0  0  0  0  0  0  0  0  0  0  0  0
   -0.1928    4.9156   -0.7740 C   0  0  0  0  0  0  0  0  0  0  0  0
   -0.1014    3.4335   -0.4307 C   0  0  2  0  0  0  0  0  0  0  0  0
   -0.4973    2.6199   -1.5871 N   0  0  0  0  0  0  0  0  0  0  0  0
   -0.9940    3.1612    0.8024 C   0  0  2  0  0  0  0  0  0  0  0  0
   -0.4045    3.8704    1.9793 C   0  0  2  0  0  0  0  0  0  0  0  0
   -1.2119    3.5746    3.1041 O   0  0  0  0  0  0  0  0  0  0  0  0
   -0.3666    5.3628    1.7093 C   0  0  1  0  0  0  0  0  0  0  0  0
    0.2602    6.0769    2.7582 O   0  0  0  0  0  0  0  0  0  0  0  0
   -0.5635    3.0999    4.2793 C   0  0  1  0  0  0  0  0  0  0  0  0
   -0.6246    4.2119    5.3285 C   0  0  2  0  0  0  0  0  0  0  0  0
    0.5675    4.2019    6.0911 O   0  0  0  0  0  0  0  0  0  0  0  0
   -1.8616    3.8241    6.1498 C   0  0  2  0  0  0  0  0  0  0  0  0
   -1.8652    4.4066    7.4534 O   0  0  0  0  0  0  0  0  0  0  0  0
   -1.7274    2.2965    6.1271 C   0  0  2  0  0  0  0  0  0  0  0  0
   -1.2852    1.9959    4.8109 O   0  0  0  0  0  0  0  0  0  0  0  0
   -3.0344    1.5422    6.3978 C   0  0  0  0  0  0  0  0  0  0  0  0
   -3.9818    1.7593    5.3739 O   0  0  0  0  0  0  0  0  0  0  0  0
   -3.1612    4.7117    7.9646 C   0  0  2  0  0  0  0  0  0  0  0  0
   -3.0946    5.7122    9.1285 C   0  0  2  0  0  0  0  0  0  0  0  0
   -2.3747    6.9339    8.7317 N   0  0  0  0  0  0  0  0  0  0  0  0
   -2.4685    5.0707   10.3759 C   0  0  1  0  0  0  0  0  0  0  0  0
   -2.5124    6.0068   11.4354 O   0  0  0  0  0  0  0  0  0  0  0  0
   -3.2843    3.8186   10.7401 C   0  0  2  0  0  0  0  0  0  0  0  0
   -2.7220    3.1627   11.8618 O   0  0  0  0  0  0  0  0  0  0  0  0
   -3.3779    2.8519    9.5416 C   0  0  1  0  0  0  0  0  0  0  0  0
   -3.8359    3.5209    8.3643 O   0  0  0  0  0  0  0  0  0  0  0  0
   -2.0814    2.0685    9.2886 C   0  0  0  0  0  0  0  0  0  0  0  0
   -1.9628    0.9192   10.2003 N   0  0  0  0  0  0  0  0  0  0  0  0
  1  3  1  0  0  0  0
  1  2  1  6  0  0  0
  3  4  1  6  0  0  0
  5  6  1  1  0  0  0
  5  3  1  0  0  0  0
  7  9  1  0  0  0  0
  7  5  1  0  0  0  0
  7  8  1  6  0  0  0
  9 10  1  0  0  0  0
  9 11  1  1  0  0  0
 10  1  1  0  0  0  0
 11 12  1  0  0  0  0
 13 14  1  6  0  0  0
 13 21  1  0  0  0  0
 15 13  1  0  0  0  0
 16 15  1  0  0  0  0
 16 18  1  0  0  0  0
 16 17  1  6  0  0  0
 18  2  1  1  0  0  0
 18 19  1  0  0  0  0
 19 21  1  0  0  0  0
 19 20  1  1  0  0  0
 21 22  1  1  0  0  0
 23 20  1  6  0  0  0
 23 29  1  0  0  0  0
 23 24  1  0  0  0  0
 24 26  1  0  0  0  0
 24 25  1  1  0  0  0
 26 27  1  1  0  0  0
 28 26  1  0  0  0  0
 28 30  1  6  0  0  0
 29 28  1  0  0  0  0
 30 31  1  0  0  0  0
 32 27  1  1  0  0  0
 32 40  1  0  0  0  0
 32 33  1  0  0  0  0
 33 35  1  0  0  0  0
 33 34  1  6  0  0  0
 35 37  1  0  0  0  0
 35 36  1  1  0  0  0
 37 38  1  1  0  0  0
 39 37  1  0  0  0  0
 39 41  1  6  0  0  0
 40 39  1  0  0  0  0
 42 41  1  0  0  0  0
M  END
>  <CHROM.1>
-161.14382007,-165.44275711,178.36321129,-173.16736640,67.09452015,-60.98179393
67.64280843,62.86224879,52.76097263,128.98192216,108.92671250,57.04021690
67.06034975,147.74902014,-161.95779838,65.33940332,-54.15732458,178.88735950
59.83049414,-48.17574292,80.49339807,-35.65460948,-1.97456905,2.78664356
4.27223964,1.45461701,-1.09865717,-1.95291252

>  <Name>
lig.pdb

>  <RI>
0

>  <Rbt.Current_Directory>
/home/itssahil/PROJECTS/Mol_Feturizer/New_Systems/rnas/2mxs

>  <Rbt.Executable>
rbdock ($Id: //depot/dev/client3/rdock/2013.1/src/exe/rbdock.cxx#4 $)

>  <Rbt.Library>
libRbt.so (2013.1, Build901 2013/11/27)

>  <Rbt.Parameter_File>
/export/apps/rDock/src/rDock_2013.1_src/data/scripts/dock_solv.prm

>  <Rbt.Receptor>
prm/pocket_docking_6.prm

>  <SCORE>
-33.5733

>  <SCORE.INTER>
-32.2012

>  <SCORE.INTER.CONST>
1

>  <SCORE.INTER.POLAR>
-5.57371

>  <SCORE.INTER.ROT>
9

>  <SCORE.INTER.SOLV>
12.3739

>  <SCORE.INTER.VDW>
-16.613

>  <SCORE.INTER.norm>
-0.766694

>  <SCORE.INTRA>
-1.37217

>  <SCORE.INTRA.DIHEDRAL>
-3.36713

>  <SCORE.INTRA.DIHEDRAL.0>
30.1357

>  <SCORE.INTRA.POLAR>
-0.483794

>  <SCORE.INTRA.POLAR.0>
-0.631696

>  <SCORE.INTRA.REPUL>
0

>  <SCORE.INTRA.REPUL.0>
0

>  <SCORE.INTRA.SOLV>
0.308909

>  <SCORE.INTRA.SOLV.lig_0>
-55.904

>  <SCORE.INTRA.VDW>
1.80184

>  <SCORE.INTRA.VDW.0>
-8.21197

>  <SCORE.INTRA.norm>
-0.0326707

>  <SCORE.RESTR>
0

>  <SCORE.RESTR.CAVITY>
0

>  <SCORE.RESTR.norm>
0

>  <SCORE.SYSTEM>
0

>  <SCORE.SYSTEM.CONST>
0

>  <SCORE.SYSTEM.DIHEDRAL>
0

>  <SCORE.SYSTEM.SOLV>
0

>  <SCORE.SYSTEM.norm>
0

>  <SCORE.heavy>
42

>  <SCORE.norm>
-0.799365

>  <RMSD>
5.819

$$$$
lig.pdb
 OpenBabel11021811453D
libRbt.so/2013.1/901 2013/11/27
 42 45  0  0  0  0  0  0  0  0999 V2000
    2.2620    2.2340   -1.2573 C   0  0  2  0  0  0  0  0  0  0  0  0
    2.0002    3.4737   -0.5969 O   0  0  0  0  0  0  0  0  0  0  0  0
    0.9520    1.5500   -1.6764 C   0  0  2  0  0  0  0  0  0  0  0  0
    0.1236    2.4517   -2.4982 N   0  0  0  0  0  0  0  0  0  0  0  0
    0.1749    1.0523   -0.4508 C   0  0  1  0  0  0  0  0  0  0  0  0
   -0.9427    0.2974   -0.8781 O   0  0  0  0  0  0  0  0  0  0  0  0
    1.0761    0.1734    0.4297 C   0  0  2  0  0  0  0  0  0  0  0  0
    0.3944   -0.1438    1.6281 O   0  0  0  0  0  0  0  0  0  0  0  0
    2.4077    0.8789    0.7576 C   0  0  2  0  0  0  0  0  0  0  0  0
    3.0351    1.3726   -0.4255 O   0  0  0  0  0  0  0  0  0  0  0  0
    3.3320   -0.1406    1.4500 C   0  0  0  0  0  0  0  0  0  0  0  0
    3.1237   -0.1811    2.8872 O   0  0  0  0  0  0  0  0  0  0  0  0
    2.5529    7.4862   -2.0547 C   0  0  2  0  0  0  0  0  0  0  0  0
    2.5567    8.5032   -3.1252 N   0  0  0  0  0  0  0  0  0  0  0  0
    3.5590    6.3768   -2.3714 C   0  0  0  0  0  0  0  0  0  0  0  0
    3.4610    5.2543   -1.3451 C   0  0  2  0  0  0  0  0  0  0  0  0
    4.4947    4.2431   -1.5996 N   0  0  0  0  0  0  0  0  0  0  0  0
    2.0364    4.6560   -1.4094 C   0  0  2  0  0  0  0  0  0  0  0  0
    1.0656    5.6939   -0.9449 C   0  0  2  0  0  0  0  0  0  0  0  0
   -0.2253    5.1132   -0.9718 O   0  0  0  0  0  0  0  0  0  0  0  0
    1.1404    6.9058   -1.8543 C   0  0  1  0  0  0  0  0  0  0  0  0
    0.3008    7.9555   -1.4111 O   0  0  0  0  0  0  0  0  0  0  0  0
   -0.5803    4.2367    0.0924 C   0  0  1  0  0  0  0  0  0  0  0  0
    0.0197    4.8004    1.3823 C   0  0  2  0  0  0  0  0  0  0  0  0
    0.4328    3.7314    2.2126 O   0  0  0  0  0  0  0  0  0  0  0  0
   -1.1527    5.5956    1.9724 C   0  0  2  0  0  0  0  0  0  0  0  0
   -1.0199    5.8171    3.3766 O   0  0  0  0  0  0  0  0  0  0  0  0
   -2.3199    4.6852    1.5713 C   0  0  2  0  0  0  0  0  0  0  0  0
   -1.9921    4.2389    0.2630 O   0  0  0  0  0  0  0  0  0  0  0  0
   -3.6836    5.3849    1.5316 C   0  0  0  0  0  0  0  0  0  0  0  0
   -4.6732    4.5627    0.9503 O   0  0  0  0  0  0  0  0  0  0  0  0
   -1.9910    6.7008    3.9334 C   0  0  2  0  0  0  0  0  0  0  0  0
   -1.3389    7.9382    4.5688 C   0  0  2  0  0  0  0  0  0  0  0  0
   -0.4755    8.6340    3.6000 N   0  0  0  0  0  0  0  0  0  0  0  0
   -0.5670    7.5652    5.8434 C   0  0  1  0  0  0  0  0  0  0  0  0
   -0.0633    8.7500    6.4293 O   0  0  0  0  0  0  0  0  0  0  0  0
   -1.5359    6.8651    6.8114 C   0  0  2  0  0  0  0  0  0  0  0  0
   -0.8627    6.4605    7.9893 O   0  0  0  0  0  0  0  0  0  0  0  0
   -2.2143    5.6556    6.1359 C   0  0  1  0  0  0  0  0  0  0  0  0
   -2.8039    6.0175    4.8850 O   0  0  0  0  0  0  0  0  0  0  0  0
   -1.2910    4.4354    6.0032 C   0  0  0  0  0  0  0  0  0  0  0  0
   -0.8835    3.9255    7.3223 N   0  0  0  0  0  0  0  0  0  0  0  0
  1  3  1  0  0  0  0
  1  2  1  1  0  0  0
  3  4  1  1  0  0  0
  5  6  1  6  0  0  0
  5  3  1  0  0  0  0
  7  9  1  0  0  0  0
  7  5  1  0  0  0  0
  7  8  1  1  0  0  0
  9 10  1  0  0  0  0
  9 11  1  6  0  0  0
 10  1  1  0  0  0  0
 11 12  1  0  0  0  0
 13 14  1  6  0  0  0
 13 21  1  0  0  0  0
 15 13  1  0  0  0  0
 16 15  1  0  0  0  0
 16 18  1  0  0  0  0
 16 17  1  6  0  0  0
 18  2  1  1  0  0  0
 18 19  1  0  0  0  0
 19 21  1  0  0  0  0
 19 20  1  6  0  0  0
 21 22  1  1  0  0  0
 23 20  1  6  0  0  0
 23 29  1  0  0  0  0
 23 24  1  0  0  0  0
 24 26  1  0  0  0  0
 24 25  1  1  0  0  0
 26 27  1  1  0  0  0
 28 26  1  0  0  0  0
 28 30  1  6  0  0  0
 29 28  1  0  0  0  0
 30 31  1  0  0  0  0
 32 27  1  1  0  0  0
 32 40  1  0  0  0  0
 32 33  1  0  0  0  0
 33 35  1  0  0  0  0
 33 34  1  6  0  0  0
 35 37  1  0  0  0  0
 35 36  1  1  0  0  0
 37 38  1  1  0  0  0
 39 37  1  0  0  0  0
 39 41  1  6  0  0  0
 40 39  1  0  0  0  0
 42 41  1  0  0  0  0
M  END
>  <CHROM.1>
-92.92693457,-95.09695900,-49.91652528,50.90525092,-172.08573969,-66.75905301
-87.17404870,167.70379803,-174.58783175,78.12979907,37.67125479,-179.57604607
-59.85097155,172.03053066,-119.56429765,170.35019202,108.13103922,104.64855338
-173.87009402,161.12929340,63.08781558,70.80504233,0.22823375,4.54124409
1.43696314,0.14639876,-1.13505607,2.83550668

>  <Name>
lig.pdb

>  <RI>
0

>  <Rbt.Current_Directory>
/home/itssahil/PROJECTS/Mol_Feturizer/New_Systems/rnas/2mxs

>  <Rbt.Executable>
rbdock ($Id: //depot/dev/client3/rdock/2013.1/src/exe/rbdock.cxx#4 $)

>  <Rbt.Library>
libRbt.so (2013.1, Build901 2013/11/27)

>  <Rbt.Parameter_File>
/export/apps/rDock/src/rDock_2013.1_src/data/scripts/dock_solv.prm

>  <Rbt.Receptor>
prm/blind_docking_20.prm

>  <SCORE>
-9.57367

>  <SCORE.INTER>
-35.5677

>  <SCORE.INTER.CONST>
1

>  <SCORE.INTER.POLAR>
-4.4025

>  <SCORE.INTER.ROT>
9

>  <SCORE.INTER.SOLV>
28.354

>  <SCORE.INTER.VDW>
-28.0881

>  <SCORE.INTER.norm>
-0.846849

>  <SCORE.INTRA>
6.27254

>  <SCORE.INTRA.DIHEDRAL>
6.27242

>  <SCORE.INTRA.DIHEDRAL.0>
30.1357

>  <SCORE.INTRA.POLAR>
-0.613658

>  <SCORE.INTRA.POLAR.0>
-0.631696

>  <SCORE.INTRA.REPUL>
0

>  <SCORE.INTRA.REPUL.0>
0

>  <SCORE.INTRA.SOLV>
0.275829

>  <SCORE.INTRA.SOLV.lig_0>
-55.904

>  <SCORE.INTRA.VDW>
5.08486

>  <SCORE.INTRA.VDW.0>
-8.21197

>  <SCORE.INTRA.norm>
0.149346

>  <SCORE.RESTR>
19.7214

>  <SCORE.RESTR.CAVITY>
19.7214

>  <SCORE.RESTR.norm>
0.469558

>  <SCORE.SYSTEM>
0

>  <SCORE.SYSTEM.CONST>
0

>  <SCORE.SYSTEM.DIHEDRAL>
0

>  <SCORE.SYSTEM.SOLV>
0

>  <SCORE.SYSTEM.norm>
0

>  <SCORE.heavy>
42

>  <SCORE.norm>
-0.227945

>  <RMSD>
5.824

$$$$
lig.pdb
 OpenBabel11021811453D
libRbt.so/2013.1/901 2013/11/27
 42 45  0  0  0  0  0  0  0  0999 V2000
   -1.5324    0.6142    2.7095 C   0  0  2  0  0  0  0  0  0  0  0  0
   -0.6161    1.4428    1.9918 O   0  0  0  0  0  0  0  0  0  0  0  0
   -1.0400   -0.8404    2.7482 C   0  0  2  0  0  0  0  0  0  0  0  0
    0.3267   -0.9219    3.2957 N   0  0  0  0  0  0  0  0  0  0  0  0
   -1.1157   -1.4837    1.3575 C   0  0  1  0  0  0  0  0  0  0  0  0
   -0.8021   -2.8595    1.4588 O   0  0  0  0  0  0  0  0  0  0  0  0
   -2.5278   -1.3252    0.7740 C   0  0  2  0  0  0  0  0  0  0  0  0
   -2.5352   -1.7812   -0.5652 O   0  0  0  0  0  0  0  0  0  0  0  0
   -3.0010    0.1416    0.8287 C   0  0  2  0  0  0  0  0  0  0  0  0
   -2.8355    0.6887    2.1365 O   0  0  0  0  0  0  0  0  0  0  0  0
   -4.4895    0.1797    0.4334 C   0  0  0  0  0  0  0  0  0  0  0  0
   -4.6720    0.2732   -1.0048 O   0  0  0  0  0  0  0  0  0  0  0  0
   -0.3632    5.7199    1.5752 C   0  0  2  0  0  0  0  0  0  0  0  0
   -0.9570    7.0714    1.5447 N   0  0  0  0  0  0  0  0  0  0  0  0
   -0.9728    4.8460    0.4762 C   0  0  0  0  0  0  0  0  0  0  0  0
   -0.4698    3.4118    0.5897 C   0  0  2  0  0  0  0  0  0  0  0  0
   -0.9820    2.6052   -0.5251 N   0  0  0  0  0  0  0  0  0  0  0  0
   -0.9064    2.8478    1.9619 C   0  0  2  0  0  0  0  0  0  0  0  0
   -0.1846    3.5995    3.0340 C   0  0  2  0  0  0  0  0  0  0  0  0
   -0.5662    3.0406    4.2777 O   0  0  0  0  0  0  0  0  0  0  0  0
   -0.5486    5.0703    2.9594 C   0  0  1  0  0  0  0  0  0  0  0  0
    0.1718    5.8445    3.9000 O   0  0  0  0  0  0  0  0  0  0  0  0
    0.4374    2.3850    5.0457 C   0  0  1  0  0  0  0  0  0  0  0  0
    0.3930    2.9615    6.4624 C   0  0  2  0  0  0  0  0  0  0  0  0
    1.7078    3.0290    6.9817 O   0  0  0  0  0  0  0  0  0  0  0  0
   -0.4901    1.9490    7.2040 C   0  0  2  0  0  0  0  0  0  0  0  0
   -0.3022    1.9828    8.6190 O   0  0  0  0  0  0  0  0  0  0  0  0
   -0.0350    0.6516    6.5245 C   0  0  2  0  0  0  0  0  0  0  0  0
    0.1267    1.0018    5.1572 O   0  0  0  0  0  0  0  0  0  0  0  0
   -1.0387   -0.5027    6.6275 C   0  0  0  0  0  0  0  0  0  0  0  0
   -0.6182   -1.6256    5.8823 O   0  0  0  0  0  0  0  0  0  0  0  0
   -1.1888    1.1438    9.3566 C   0  0  2  0  0  0  0  0  0  0  0  0
   -2.5084    1.8580    9.6863 C   0  0  2  0  0  0  0  0  0  0  0  0
   -3.1495    2.3699    8.4635 N   0  0  0  0  0  0  0  0  0  0  0  0
   -2.2914    2.9756   10.7175 C   0  0  1  0  0  0  0  0  0  0  0  0
   -3.5473    3.5374   11.0455 O   0  0  0  0  0  0  0  0  0  0  0  0
   -1.6412    2.3625   11.9694 C   0  0  2  0  0  0  0  0  0  0  0  0
   -1.3792    3.3611   12.9383 O   0  0  0  0  0  0  0  0  0  0  0  0
   -0.3443    1.6101   11.6066 C   0  0  1  0  0  0  0  0  0  0  0  0
   -0.5609    0.6746   10.5477 O   0  0  0  0  0  0  0  0  0  0  0  0
    0.8396    2.5437   11.3140 C   0  0  0  0  0  0  0  0  0  0  0  0
    1.2858    3.2411   12.5309 N   0  0  0  0  0  0  0  0  0  0  0  0
  1  3  1  0  0  0  0
  1  2  1  6  0  0  0
  3  4  1  6  0  0  0
  5  6  1  1  0  0  0
  5  3  1  0  0  0  0
  7  9  1  0  0  0  0
  7  5  1  0  0  0  0
  7  8  1  6  0  0  0
  9 10  1  0  0  0  0
  9 11  1  1  0  0  0
 10  1  1  0  0  0  0
 11 12  1  0  0  0  0
 13 14  1  1  0  0  0
 13 21  1  0  0  0  0
 15 13  1  0  0  0  0
 16 15  1  0  0  0  0
 16 18  1  0  0  0  0
 16 17  1  6  0  0  0
 18  2  1  6  0  0  0
 18 19  1  0  0  0  0
 19 21  1  0  0  0  0
 19 20  1  1  0  0  0
 21 22  1  1  0  0  0
 23 20  1  6  0  0  0
 23 29  1  0  0  0  0
 23 24  1  0  0  0  0
 24 26  1  0  0  0  0
 24 25  1  1  0  0  0
 26 27  1  1  0  0  0
 28 26  1  0  0  0  0
 28 30  1  6  0  0  0
 29 28  1  0  0  0  0
 30 31  1  0  0  0  0
 32 27  1  1  0  0  0
 32 40  1  0  0  0  0
 32 33  1  0  0  0  0
 33 35  1  0  0  0  0
 33 34  1  6  0  0  0
 35 37  1  0  0  0  0
 35 36  1  1  0  0  0
 37 38  1  1  0  0  0
 39 37  1  0  0  0  0
 39 41  1  6  0  0  0
 40 39  1  0  0  0  0
 42 41  1  0  0  0  0
M  END
>  <CHROM.1>
-145.16826086,-175.63043635,64.20004918,-58.60191787,-64.92837271,-50.05330284
-86.57540750,-25.31613081,85.03856626,114.89802646,128.97991689,-72.71715555
176.87700958,174.62338556,-87.00151921,174.63806083,-176.96303223,-68.82333334
64.91295504,65.09205910,68.37821085,-159.22116857,-1.07045604,1.79989742
5.11536185,2.03377994,-1.35509670,-1.25295859

>  <Name>
lig.pdb

>  <RI>
0

>  <Rbt.Current_Directory>
/home/itssahil/PROJECTS/Mol_Feturizer/New_Systems/rnas/2mxs

>  <Rbt.Executable>
rbdock ($Id: //depot/dev/client3/rdock/2013.1/src/exe/rbdock.cxx#4 $)

>  <Rbt.Library>
libRbt.so (2013.1, Build901 2013/11/27)

>  <Rbt.Parameter_File>
/export/apps/rDock/src/rDock_2013.1_src/data/scripts/dock_solv.prm

>  <Rbt.Receptor>
prm/pocket_docking_4.prm

>  <SCORE>
-36.23

>  <SCORE.INTER>
-33.7673

>  <SCORE.INTER.CONST>
1

>  <SCORE.INTER.POLAR>
-6.07611

>  <SCORE.INTER.ROT>
9

>  <SCORE.INTER.SOLV>
13.6671

>  <SCORE.INTER.VDW>
-16.4135

>  <SCORE.INTER.norm>
-0.803982

>  <SCORE.INTRA>
-2.46273

>  <SCORE.INTRA.DIHEDRAL>
1.13671

>  <SCORE.INTRA.DIHEDRAL.0>
30.1357

>  <SCORE.INTRA.POLAR>
-1.42843

>  <SCORE.INTRA.POLAR.0>
-0.631696

>  <SCORE.INTRA.REPUL>
0

>  <SCORE.INTRA.REPUL.0>
0

>  <SCORE.INTRA.SOLV>
0.714308

>  <SCORE.INTRA.SOLV.lig_0>
-55.904

>  <SCORE.INTRA.VDW>
1.46842

>  <SCORE.INTRA.VDW.0>
-8.21197

>  <SCORE.INTRA.norm>
-0.0586363

>  <SCORE.RESTR>
0

>  <SCORE.RESTR.CAVITY>
0

>  <SCORE.RESTR.norm>
0

>  <SCORE.SYSTEM>
0

>  <SCORE.SYSTEM.CONST>
0

>  <SCORE.SYSTEM.DIHEDRAL>
0

>  <SCORE.SYSTEM.SOLV>
0

>  <SCORE.SYSTEM.norm>
0

>  <SCORE.heavy>
42

>  <SCORE.norm>
-0.862619

>  <RMSD>
5.824

$$$$
lig.pdb
 OpenBabel11021811453D
libRbt.so/2013.1/901 2013/11/27
 42 45  0  0  0  0  0  0  0  0999 V2000
    0.6801    6.6716   -0.2972 C   0  0  2  0  0  0  0  0  0  0  0  0
    0.9663    6.3333    1.0612 O   0  0  0  0  0  0  0  0  0  0  0  0
    0.1190    5.4598   -1.0563 C   0  0  2  0  0  0  0  0  0  0  0  0
   -1.0572    4.9005   -0.3647 N   0  0  0  0  0  0  0  0  0  0  0  0
    1.1993    4.3896   -1.2591 C   0  0  1  0  0  0  0  0  0  0  0  0
    0.6926    3.3623   -2.0895 O   0  0  0  0  0  0  0  0  0  0  0  0
    2.4435    5.0071   -1.9152 C   0  0  2  0  0  0  0  0  0  0  0  0
    3.4811    4.0460   -1.9487 O   0  0  0  0  0  0  0  0  0  0  0  0
    2.9189    6.2625   -1.1561 C   0  0  2  0  0  0  0  0  0  0  0  0
    1.8435    7.1773   -0.9472 O   0  0  0  0  0  0  0  0  0  0  0  0
    4.0222    6.9385   -1.9921 C   0  0  0  0  0  0  0  0  0  0  0  0
    4.3958    8.2369   -1.4585 O   0  0  0  0  0  0  0  0  0  0  0  0
   -1.8361    5.9146    4.3019 C   0  0  2  0  0  0  0  0  0  0  0  0
   -3.1146    5.4523    4.8780 N   0  0  0  0  0  0  0  0  0  0  0  0
   -2.0933    6.8835    3.1451 C   0  0  0  0  0  0  0  0  0  0  0  0
   -0.7861    7.2552    2.4553 C   0  0  2  0  0  0  0  0  0  0  0  0
   -1.0309    8.2590    1.4121 N   0  0  0  0  0  0  0  0  0  0  0  0
   -0.1519    5.9664    1.8824 C   0  0  2  0  0  0  0  0  0  0  0  0
    0.2467    5.0870    3.0240 C   0  0  2  0  0  0  0  0  0  0  0  0
    0.8618    3.9338    2.4797 O   0  0  0  0  0  0  0  0  0  0  0  0
   -0.9796    4.7212    3.8386 C   0  0  1  0  0  0  0  0  0  0  0  0
   -0.6489    3.9567    4.9829 O   0  0  0  0  0  0  0  0  0  0  0  0
    0.3453    3.4220    1.2557 C   0  0  1  0  0  0  0  0  0  0  0  0
    0.9134    2.0146    1.0607 C   0  0  2  0  0  0  0  0  0  0  0  0
    1.1543    1.7938   -0.3163 O   0  0  0  0  0  0  0  0  0  0  0  0
   -0.2055    1.1260    1.6207 C   0  0  2  0  0  0  0  0  0  0  0  0
   -0.1448   -0.2142    1.1316 O   0  0  0  0  0  0  0  0  0  0  0  0
   -1.4327    1.9238    1.1632 C   0  0  2  0  0  0  0  0  0  0  0  0
   -1.0666    3.2833    1.3533 O   0  0  0  0  0  0  0  0  0  0  0  0
   -2.7090    1.6355    1.9623 C   0  0  0  0  0  0  0  0  0  0  0  0
   -2.8560    0.2568    2.2279 O   0  0  0  0  0  0  0  0  0  0  0  0
    0.3337   -1.1703    2.0755 C   0  0  2  0  0  0  0  0  0  0  0  0
    0.7674   -0.5058    3.3910 C   0  0  2  0  0  0  0  0  0  0  0  0
   -0.3246    0.3040    3.9565 N   0  0  0  0  0  0  0  0  0  0  0  0
    2.0431    0.3276    3.1969 C   0  0  1  0  0  0  0  0  0  0  0  0
    2.4416    0.8422    4.4527 O   0  0  0  0  0  0  0  0  0  0  0  0
    3.1397   -0.5877    2.6264 C   0  0  2  0  0  0  0  0  0  0  0  0
    4.3285    0.1432    2.3874 O   0  0  0  0  0  0  0  0  0  0  0  0
    2.6638   -1.2805    1.3329 C   0  0  1  0  0  0  0  0  0  0  0  0
    1.4046   -1.9306    1.5204 O   0  0  0  0  0  0  0  0  0  0  0  0
    2.6523   -0.3488    0.1120 C   0  0  0  0  0  0  0  0  0  0  0  0
    1.5186   -0.6458   -0.7784 N   0  0  0  0  0  0  0  0  0  0  0  0
  1  3  1  0  0  0  0
  1  2  1  1  0  0  0
  3  4  1  1  0  0  0
  5  6  1  6  0  0  0
  5  3  1  0  0  0  0
  7  9  1  0  0  0  0
  7  5  1  0  0  0  0
  7  8  1  1  0  0  0
  9 10  1  0  0  0  0
  9 11  1  6  0  0  0
 10  1  1  0  0  0  0
 11 12  1  0  0  0  0
 13 14  1  6  0  0  0
 13 21  1  0  0  0  0
 15 13  1  0  0  0  0
 16 15  1  0  0  0  0
 16 18  1  0  0  0  0
 16 17  1  6  0  0  0
 18  2  1  1  0  0  0
 18 19  1  0  0  0  0
 19 21  1  0  0  0  0
 19 20  1  6  0  0  0
 21 22  1  1  0  0  0
 23 20  1  1  0  0  0
 23 29  1  0  0  0  0
 23 24  1  0  0  0  0
 24 26  1  0  0  0  0
 24 25  1  6  0  0  0
 26 27  1  6  0  0  0
 28 26  1  0  0  0  0
 28 30  1  1  0  0  0
 29 28  1  0  0  0  0
 30 31  1  0  0  0  0
 32 27  1  6  0  0  0
 32 40  1  0  0  0  0
 32 33  1  0  0  0  0
 33 35  1  0  0  0  0
 33 34  1  6  0  0  0
 35 37  1  0  0  0  0
 35 36  1  1  0  0  0
 37 38  1  6  0  0  0
 39 37  1  0  0  0  0
 39 41  1  6  0  0  0
 40 39  1  0  0  0  0
 42 41  1  0  0  0  0
M  END
>  <CHROM.1>
-85.25392113,-64.21587055,99.06640438,50.08399960,-170.23510783,-178.02997322
171.44524401,-47.67814103,173.13309579,-36.06535472,-165.87898645,-156.40957886
76.93768460,105.47706647,-3.85746734,-41.62272462,-64.95839322,132.87324628
58.94522832,59.58582825,-143.93624684,-46.63793297,0.64786942,3.24407117
1.29389923,-1.57636310,-0.78190959,2.86183157

>  <Name>
lig.pdb

>  <RI>
0

>  <Rbt.Current_Directory>
/home/itssahil/PROJECTS/Mol_Feturizer/New_Systems/rnas/2mxs

>  <Rbt.Executable>
rbdock ($Id: //depot/dev/client3/rdock/2013.1/src/exe/rbdock.cxx#4 $)

>  <Rbt.Library>
libRbt.so (2013.1, Build901 2013/11/27)

>  <Rbt.Parameter_File>
/export/apps/rDock/src/rDock_2013.1_src/data/scripts/dock_solv.prm

>  <Rbt.Receptor>
prm/blind_docking_20.prm

>  <SCORE>
15.6928

>  <SCORE.INTER>
-39.4739

>  <SCORE.INTER.CONST>
1

>  <SCORE.INTER.POLAR>
-5.43992

>  <SCORE.INTER.ROT>
9

>  <SCORE.INTER.SOLV>
23.9613

>  <SCORE.INTER.VDW>
-25.77

>  <SCORE.INTER.norm>
-0.939855

>  <SCORE.INTRA>
33.9994

>  <SCORE.INTRA.DIHEDRAL>
5.86443

>  <SCORE.INTRA.DIHEDRAL.0>
30.1357

>  <SCORE.INTRA.POLAR>
-1.26627

>  <SCORE.INTRA.POLAR.0>
-0.631696

>  <SCORE.INTRA.REPUL>
0

>  <SCORE.INTRA.REPUL.0>
0

>  <SCORE.INTRA.SOLV>
6.7109

>  <SCORE.INTRA.SOLV.lig_0>
-55.904

>  <SCORE.INTRA.VDW>
32.017

>  <SCORE.INTRA.VDW.0>
-8.21197

>  <SCORE.INTRA.norm>
0.809508

>  <SCORE.RESTR>
21.1674

>  <SCORE.RESTR.CAVITY>
21.1674

>  <SCORE.RESTR.norm>
0.503985

>  <SCORE.SYSTEM>
0

>  <SCORE.SYSTEM.CONST>
0

>  <SCORE.SYSTEM.DIHEDRAL>
0

>  <SCORE.SYSTEM.SOLV>
0

>  <SCORE.SYSTEM.norm>
0

>  <SCORE.heavy>
42

>  <SCORE.norm>
0.373639

>  <RMSD>
5.847

$$$$
lig.pdb
 OpenBabel11021811453D
libRbt.so/2013.1/901 2013/11/27
 42 45  0  0  0  0  0  0  0  0999 V2000
   -1.4557    4.4911    1.2692 C   0  0  2  0  0  0  0  0  0  0  0  0
   -1.0092    5.1859    0.1033 O   0  0  0  0  0  0  0  0  0  0  0  0
   -2.8764    4.9287    1.6564 C   0  0  2  0  0  0  0  0  0  0  0  0
   -3.8070    4.7667    0.5241 N   0  0  0  0  0  0  0  0  0  0  0  0
   -2.8850    6.3728    2.1742 C   0  0  1  0  0  0  0  0  0  0  0  0
   -4.1747    6.6890    2.6624 O   0  0  0  0  0  0  0  0  0  0  0  0
   -1.8581    6.5389    3.3046 C   0  0  2  0  0  0  0  0  0  0  0  0
   -1.7684    7.9056    3.6589 O   0  0  0  0  0  0  0  0  0  0  0  0
   -0.4687    6.0152    2.8879 C   0  0  2  0  0  0  0  0  0  0  0  0
   -0.5539    4.6942    2.3542 O   0  0  0  0  0  0  0  0  0  0  0  0
    0.4367    6.0154    4.1343 C   0  0  0  0  0  0  0  0  0  0  0  0
    0.1047    4.9400    5.0527 O   0  0  0  0  0  0  0  0  0  0  0  0
    2.7987    5.1114   -1.9031 C   0  0  2  0  0  0  0  0  0  0  0  0
    4.2744    5.0618   -1.9133 N   0  0  0  0  0  0  0  0  0  0  0  0
    2.3135    6.3579   -1.1588 C   0  0  0  0  0  0  0  0  0  0  0  0
    0.7956    6.3443   -1.0214 C   0  0  2  0  0  0  0  0  0  0  0  0
    0.3322    7.5885   -0.3946 N   0  0  0  0  0  0  0  0  0  0  0  0
    0.3900    5.0966   -0.2027 C   0  0  2  0  0  0  0  0  0  0  0  0
    0.7193    3.8775   -1.0032 C   0  0  2  0  0  0  0  0  0  0  0  0
    0.3025    2.7502   -0.2548 O   0  0  0  0  0  0  0  0  0  0  0  0
    2.2110    3.8334   -1.2754 C   0  0  1  0  0  0  0  0  0  0  0  0
    2.5683    2.7421   -2.1027 O   0  0  0  0  0  0  0  0  0  0  0  0
    0.9032    2.5409    1.0189 C   0  0  1  0  0  0  0  0  0  0  0  0
   -0.1876    2.0561    1.9762 C   0  0  2  0  0  0  0  0  0  0  0  0
    0.0508    2.5886    3.2656 O   0  0  0  0  0  0  0  0  0  0  0  0
   -0.0226    0.5314    1.9205 C   0  0  2  0  0  0  0  0  0  0  0  0
   -0.5791   -0.1273    3.0586 O   0  0  0  0  0  0  0  0  0  0  0  0
    1.5032    0.4333    1.8014 C   0  0  2  0  0  0  0  0  0  0  0  0
    1.8628    1.4953    0.9290 O   0  0  0  0  0  0  0  0  0  0  0  0
    2.0084   -0.8885    1.2114 C   0  0  0  0  0  0  0  0  0  0  0  0
    3.4059   -1.0236    1.3592 O   0  0  0  0  0  0  0  0  0  0  0  0
   -0.2598    0.4771    4.3103 C   0  0  2  0  0  0  0  0  0  0  0  0
    0.4917   -0.4912    5.2364 C   0  0  2  0  0  0  0  0  0  0  0  0
    1.6958   -1.0228    4.5764 N   0  0  0  0  0  0  0  0  0  0  0  0
   -0.4288   -1.6211    5.7216 C   0  0  1  0  0  0  0  0  0  0  0  0
    0.2896   -2.4282    6.6344 O   0  0  0  0  0  0  0  0  0  0  0  0
   -1.6478   -0.9907    6.4163 C   0  0  2  0  0  0  0  0  0  0  0  0
   -2.5527   -1.9911    6.8462 O   0  0  0  0  0  0  0  0  0  0  0  0
   -2.3572    0.0132    5.4844 C   0  0  1  0  0  0  0  0  0  0  0  0
   -1.4384    0.9668    4.9461 O   0  0  0  0  0  0  0  0  0  0  0  0
   -3.1931   -0.6611    4.3865 C   0  0  0  0  0  0  0  0  0  0  0  0
   -2.5324   -1.8744    3.8787 N   0  0  0  0  0  0  0  0  0  0  0  0
  1  3  1  0  0  0  0
  1  2  1  6  0  0  0
  3  4  1  6  0  0  0
  5  6  1  1  0  0  0
  5  3  1  0  0  0  0
  7  9  1  0  0  0  0
  7  5  1  0  0  0  0
  7  8  1  6  0  0  0
  9 10  1  0  0  0  0
  9 11  1  1  0  0  0
 10  1  1  0  0  0  0
 11 12  1  0  0  0  0
 13 14  1  1  0  0  0
 13 21  1  0  0  0  0
 15 13  1  0  0  0  0
 16 15  1  0  0  0  0
 16 18  1  0  0  0  0
 16 17  1  1  0  0  0
 18  2  1  6  0  0  0
 18 19  1  0  0  0  0
 19 21  1  0  0  0  0
 19 20  1  1  0  0  0
 21 22  1  6  0  0  0
 23 20  1  6  0  0  0
 23 29  1  0  0  0  0
 23 24  1  0  0  0  0
 24 26  1  0  0  0  0
 24 25  1  1  0  0  0
 26 27  1  1  0  0  0
 28 26  1  0  0  0  0
 28 30  1  6  0  0  0
 29 28  1  0  0  0  0
 30 31  1  0  0  0  0
 32 27  1  6  0  0  0
 32 40  1  0  0  0  0
 32 33  1  0  0  0  0
 33 35  1  0  0  0  0
 33 34  1  6  0  0  0
 35 37  1  0  0  0  0
 35 36  1  1  0  0  0
 37 38  1  6  0  0  0
 39 37  1  0  0  0  0
 39 41  1  6  0  0  0
 40 39  1  0  0  0  0
 42 41  1  0  0  0  0
M  END
>  <CHROM.1>
-154.30694384,166.90064760,-29.63566508,87.10780420,80.87084202,62.67759507
74.00471593,-53.58044076,-60.03041161,-61.19914666,140.53895023,-164.78772313
-50.00484580,-45.20634963,-120.30257635,-168.85202328,69.73197497,-65.35926880
153.33957565,164.87056059,-37.43946887,59.12657348,-0.15626739,2.72216586
2.25267408,1.38094688,0.73572641,-0.50758941

>  <Name>
lig.pdb

>  <RI>
0

>  <Rbt.Current_Directory>
/home/itssahil/PROJECTS/Mol_Feturizer/New_Systems/rnas/2mxs

>  <Rbt.Executable>
rbdock ($Id: //depot/dev/client3/rdock/2013.1/src/exe/rbdock.cxx#4 $)

>  <Rbt.Library>
libRbt.so (2013.1, Build901 2013/11/27)

>  <Rbt.Parameter_File>
/export/apps/rDock/src/rDock_2013.1_src/data/scripts/dock_solv.prm

>  <Rbt.Receptor>
prm/blind_docking_80.prm

>  <SCORE>
-20.158

>  <SCORE.INTER>
-44.7588

>  <SCORE.INTER.CONST>
1

>  <SCORE.INTER.POLAR>
-6.98864

>  <SCORE.INTER.ROT>
9

>  <SCORE.INTER.SOLV>
30.0607

>  <SCORE.INTER.VDW>
-26.164

>  <SCORE.INTER.norm>
-1.06569

>  <SCORE.INTRA>
9.30683

>  <SCORE.INTRA.DIHEDRAL>
3.29104

>  <SCORE.INTRA.DIHEDRAL.0>
30.1357

>  <SCORE.INTRA.POLAR>
-1.52215

>  <SCORE.INTRA.POLAR.0>
-0.631696

>  <SCORE.INTRA.REPUL>
0

>  <SCORE.INTRA.REPUL.0>
0

>  <SCORE.INTRA.SOLV>
3.14507

>  <SCORE.INTRA.SOLV.lig_0>
-55.904

>  <SCORE.INTRA.VDW>
11.2641

>  <SCORE.INTRA.VDW.0>
-8.21197

>  <SCORE.INTRA.norm>
0.221591

>  <SCORE.RESTR>
15.2939

>  <SCORE.RESTR.CAVITY>
15.2939

>  <SCORE.RESTR.norm>
0.364141

>  <SCORE.SYSTEM>
0

>  <SCORE.SYSTEM.CONST>
0

>  <SCORE.SYSTEM.DIHEDRAL>
0

>  <SCORE.SYSTEM.SOLV>
0

>  <SCORE.SYSTEM.norm>
0

>  <SCORE.heavy>
42

>  <SCORE.norm>
-0.479954

>  <RMSD>
5.852

$$$$
lig.pdb
 OpenBabel11021811453D
libRbt.so/2013.1/901 2013/11/27
 42 45  0  0  0  0  0  0  0  0999 V2000
   -1.7475    6.3951    4.9093 C   0  0  2  0  0  0  0  0  0  0  0  0
   -1.3526    6.3817    3.5362 O   0  0  0  0  0  0  0  0  0  0  0  0
   -1.0355    7.5223    5.6724 C   0  0  2  0  0  0  0  0  0  0  0  0
   -1.2571    8.8256    5.0191 N   0  0  0  0  0  0  0  0  0  0  0  0
    0.4628    7.2267    5.8179 C   0  0  1  0  0  0  0  0  0  0  0  0
    1.0552    8.2034    6.6527 O   0  0  0  0  0  0  0  0  0  0  0  0
    0.6734    5.8353    6.4339 C   0  0  2  0  0  0  0  0  0  0  0  0
    2.0518    5.5177    6.4135 O   0  0  0  0  0  0  0  0  0  0  0  0
   -0.1228    4.7545    5.6747 C   0  0  2  0  0  0  0  0  0  0  0  0
   -1.4901    5.1335    5.5207 O   0  0  0  0  0  0  0  0  0  0  0  0
   -0.0338    3.4422    6.4769 C   0  0  0  0  0  0  0  0  0  0  0  0
    1.3409    3.0312    6.7039 O   0  0  0  0  0  0  0  0  0  0  0  0
   -2.2112    3.5309    0.4271 C   0  0  2  0  0  0  0  0  0  0  0  0
   -2.3830    2.1541   -0.0781 N   0  0  0  0  0  0  0  0  0  0  0  0
   -0.7888    3.7297    0.9564 C   0  0  0  0  0  0  0  0  0  0  0  0
   -0.6447    5.1003    1.6072 C   0  0  2  0  0  0  0  0  0  0  0  0
    0.7461    5.3203    2.0232 N   0  0  0  0  0  0  0  0  0  0  0  0
   -1.6262    5.1810    2.7995 C   0  0  2  0  0  0  0  0  0  0  0  0
   -3.0227    5.1481    2.2662 C   0  0  2  0  0  0  0  0  0  0  0  0
   -3.9033    5.2650    3.3686 O   0  0  0  0  0  0  0  0  0  0  0  0
   -3.2522    3.8492    1.5168 C   0  0  1  0  0  0  0  0  0  0  0  0
   -4.5335    3.8005    0.9178 O   0  0  0  0  0  0  0  0  0  0  0  0
   -4.4886    4.0719    3.8791 C   0  0  1  0  0  0  0  0  0  0  0  0
   -3.5260    3.4841    4.9131 C   0  0  2  0  0  0  0  0  0  0  0  0
   -3.5681    2.0713    4.8419 O   0  0  0  0  0  0  0  0  0  0  0  0
   -4.0843    4.0319    6.2335 C   0  0  2  0  0  0  0  0  0  0  0  0
   -3.6755    3.2661    7.3671 O   0  0  0  0  0  0  0  0  0  0  0  0
   -5.5864    3.9802    5.9287 C   0  0  2  0  0  0  0  0  0  0  0  0
   -5.6901    4.3870    4.5714 O   0  0  0  0  0  0  0  0  0  0  0  0
   -6.4405    4.9134    6.7948 C   0  0  0  0  0  0  0  0  0  0  0  0
   -7.8003    4.8736    6.4174 O   0  0  0  0  0  0  0  0  0  0  0  0
   -4.1984    3.7229    8.6129 C   0  0  2  0  0  0  0  0  0  0  0  0
   -3.1588    3.6220    9.7395 C   0  0  2  0  0  0  0  0  0  0  0  0
   -1.9240    4.3400    9.3820 N   0  0  0  0  0  0  0  0  0  0  0  0
   -2.8727    2.1566   10.1003 C   0  0  1  0  0  0  0  0  0  0  0  0
   -1.9785    2.1276   11.1959 O   0  0  0  0  0  0  0  0  0  0  0  0
   -4.2011    1.4815   10.4818 C   0  0  2  0  0  0  0  0  0  0  0  0
   -3.9996    0.1129   10.7829 O   0  0  0  0  0  0  0  0  0  0  0  0
   -5.2439    1.6377    9.3558 C   0  0  1  0  0  0  0  0  0  0  0  0
   -5.3806    3.0030    8.9551 O   0  0  0  0  0  0  0  0  0  0  0  0
   -4.9898    0.7109    8.1578 C   0  0  0  0  0  0  0  0  0  0  0  0
   -5.1592   -0.7034    8.5287 N   0  0  0  0  0  0  0  0  0  0  0  0
  1  3  1  0  0  0  0
  1  2  1  6  0  0  0
  3  4  1  6  0  0  0
  5  6  1  1  0  0  0
  5  3  1  0  0  0  0
  7  9  1  0  0  0  0
  7  5  1  0  0  0  0
  7  8  1  6  0  0  0
  9 10  1  0  0  0  0
  9 11  1  1  0  0  0
 10  1  1  0  0  0  0
 11 12  1  0  0  0  0
 13 14  1  1  0  0  0
 13 21  1  0  0  0  0
 15 13  1  0  0  0  0
 16 15  1  0  0  0  0
 16 18  1  0  0  0  0
 16 17  1  1  0  0  0
 18  2  1  6  0  0  0
 18 19  1  0  0  0  0
 19 21  1  0  0  0  0
 19 20  1  1  0  0  0
 21 22  1  6  0  0  0
 23 20  1  1  0  0  0
 23 29  1  0  0  0  0
 23 24  1  0  0  0  0
 24 26  1  0  0  0  0
 24 25  1  1  0  0  0
 26 27  1  1  0  0  0
 28 26  1  0  0  0  0
 28 30  1  1  0  0  0
 29 28  1  0  0  0  0
 30 31  1  0  0  0  0
 32 27  1  6  0  0  0
 32 40  1  0  0  0  0
 32 33  1  0  0  0  0
 33 35  1  0  0  0  0
 33 34  1  6  0  0  0
 35 37  1  0  0  0  0
 35 36  1  1  0  0  0
 37 38  1  6  0  0  0
 39 37  1  0  0  0  0
 39 41  1  6  0  0  0
 40 39  1  0  0  0  0
 42 41  1  0  0  0  0
M  END
>  <CHROM.1>
-156.00213851,162.75120576,-71.91105990,-72.87455603,-179.23041300,-78.51349183
-56.61579095,-54.92222223,35.56789913,-99.15456296,87.33914290,175.61510668
-57.48070141,-178.60096880,-141.05071440,176.78242759,-58.73157285,-178.64606213
61.71611711,-178.29274400,65.99826962,170.58116161,-2.63003988,4.09246542
5.75533295,-1.09970683,0.55306407,1.77477313

>  <Name>
lig.pdb

>  <RI>
0

>  <Rbt.Current_Directory>
/home/itssahil/PROJECTS/Mol_Feturizer/New_Systems/rnas/2mxs

>  <Rbt.Executable>
rbdock ($Id: //depot/dev/client3/rdock/2013.1/src/exe/rbdock.cxx#4 $)

>  <Rbt.Library>
libRbt.so (2013.1, Build901 2013/11/27)

>  <Rbt.Parameter_File>
/export/apps/rDock/src/rDock_2013.1_src/data/scripts/dock_solv.prm

>  <Rbt.Receptor>
prm/pocket_docking_7.prm

>  <SCORE>
-26.0136

>  <SCORE.INTER>
-27.0704

>  <SCORE.INTER.CONST>
1

>  <SCORE.INTER.POLAR>
-3.96976

>  <SCORE.INTER.ROT>
9

>  <SCORE.INTER.SOLV>
20.724

>  <SCORE.INTER.VDW>
-21.3224

>  <SCORE.INTER.norm>
-0.644534

>  <SCORE.INTRA>
1.05682

>  <SCORE.INTRA.DIHEDRAL>
-7.28609

>  <SCORE.INTRA.DIHEDRAL.0>
30.1357

>  <SCORE.INTRA.POLAR>
-0.150981

>  <SCORE.INTRA.POLAR.0>
-0.631696

>  <SCORE.INTRA.REPUL>
0

>  <SCORE.INTRA.REPUL.0>
0

>  <SCORE.INTRA.SOLV>
0.528772

>  <SCORE.INTRA.SOLV.lig_0>
-55.904

>  <SCORE.INTRA.VDW>
4.94881

>  <SCORE.INTRA.VDW.0>
-8.21197

>  <SCORE.INTRA.norm>
0.0251624

>  <SCORE.RESTR>
0

>  <SCORE.RESTR.CAVITY>
0

>  <SCORE.RESTR.norm>
0

>  <SCORE.SYSTEM>
0

>  <SCORE.SYSTEM.CONST>
0

>  <SCORE.SYSTEM.DIHEDRAL>
0

>  <SCORE.SYSTEM.SOLV>
0

>  <SCORE.SYSTEM.norm>
0

>  <SCORE.heavy>
42

>  <SCORE.norm>
-0.619372

>  <RMSD>
5.854

$$$$
lig.pdb
 OpenBabel11021811453D
libRbt.so/2013.1/901 2013/11/27
 42 45  0  0  0  0  0  0  0  0999 V2000
   -0.0948    1.7493    2.7205 C   0  0  2  0  0  0  0  0  0  0  0  0
    0.0993    2.6039    1.5920 O   0  0  0  0  0  0  0  0  0  0  0  0
    0.5354    0.3697    2.4768 C   0  0  2  0  0  0  0  0  0  0  0  0
    1.9593    0.4949    2.1148 N   0  0  0  0  0  0  0  0  0  0  0  0
   -0.2394   -0.4071    1.4045 C   0  0  1  0  0  0  0  0  0  0  0  0
    0.2726   -1.7230    1.3160 O   0  0  0  0  0  0  0  0  0  0  0  0
   -1.7319   -0.4648    1.7633 C   0  0  2  0  0  0  0  0  0  0  0  0
   -2.4497   -1.0437    0.6904 O   0  0  0  0  0  0  0  0  0  0  0  0
   -2.2942    0.9379    2.0710 C   0  0  2  0  0  0  0  0  0  0  0  0
   -1.4816    1.6218    3.0244 O   0  0  0  0  0  0  0  0  0  0  0  0
   -3.7207    0.7704    2.6280 C   0  0  0  0  0  0  0  0  0  0  0  0
   -3.7453   -0.0322    3.8386 O   0  0  0  0  0  0  0  0  0  0  0  0
   -0.5927    6.8521    1.5220 C   0  0  2  0  0  0  0  0  0  0  0  0
   -1.4698    8.0386    1.5785 N   0  0  0  0  0  0  0  0  0  0  0  0
   -0.9779    5.9616    0.3381 C   0  0  0  0  0  0  0  0  0  0  0  0
   -0.1723    4.6679    0.3549 C   0  0  2  0  0  0  0  0  0  0  0  0
   -0.4771    3.8654   -0.8363 N   0  0  0  0  0  0  0  0  0  0  0  0
   -0.4937    3.9087    1.6633 C   0  0  2  0  0  0  0  0  0  0  0  0
    0.0283    4.7073    2.8145 C   0  0  2  0  0  0  0  0  0  0  0  0
   -0.2387    3.9760    3.9970 O   0  0  0  0  0  0  0  0  0  0  0  0
   -0.6504    6.0637    2.8440 C   0  0  1  0  0  0  0  0  0  0  0  0
   -0.1328    6.8949    3.8658 O   0  0  0  0  0  0  0  0  0  0  0  0
    0.0489    4.6020    5.2429 C   0  0  1  0  0  0  0  0  0  0  0  0
   -1.1847    4.4545    6.1361 C   0  0  2  0  0  0  0  0  0  0  0  0
   -1.3304    5.6177    6.9288 O   0  0  0  0  0  0  0  0  0  0  0  0
   -0.8466    3.2070    6.9635 C   0  0  2  0  0  0  0  0  0  0  0  0
   -1.5912    3.1310    8.1794 O   0  0  0  0  0  0  0  0  0  0  0  0
    0.6630    3.4089    7.1440 C   0  0  2  0  0  0  0  0  0  0  0  0
    1.1088    3.9108    5.8919 O   0  0  0  0  0  0  0  0  0  0  0  0
    1.4383    2.1274    7.4713 C   0  0  0  0  0  0  0  0  0  0  0  0
    1.1386    1.0913    6.5605 O   0  0  0  0  0  0  0  0  0  0  0  0
   -1.4095    1.9215    8.9131 C   0  0  2  0  0  0  0  0  0  0  0  0
   -2.2271    0.7649    8.3182 C   0  0  2  0  0  0  0  0  0  0  0  0
   -1.9133    0.5777    6.8919 N   0  0  0  0  0  0  0  0  0  0  0  0
   -3.7320    0.9786    8.5396 C   0  0  1  0  0  0  0  0  0  0  0  0
   -4.4255   -0.1532    8.0507 O   0  0  0  0  0  0  0  0  0  0  0  0
   -3.9831    1.1437   10.0481 C   0  0  2  0  0  0  0  0  0  0  0  0
   -5.3540    1.3872   10.3044 O   0  0  0  0  0  0  0  0  0  0  0  0
   -3.1159    2.2782   10.6318 C   0  0  1  0  0  0  0  0  0  0  0  0
   -1.7384    2.1140   10.2871 O   0  0  0  0  0  0  0  0  0  0  0  0
   -3.6320    3.6813   10.2803 C   0  0  0  0  0  0  0  0  0  0  0  0
   -2.5771    4.6956   10.4380 N   0  0  0  0  0  0  0  0  0  0  0  0
  1  3  1  0  0  0  0
  1  2  1  6  0  0  0
  3  4  1  6  0  0  0
  5  6  1  1  0  0  0
  5  3  1  0  0  0  0
  7  9  1  0  0  0  0
  7  5  1  0  0  0  0
  7  8  1  6  0  0  0
  9 10  1  0  0  0  0
  9 11  1  1  0  0  0
 10  1  1  0  0  0  0
 11 12  1  0  0  0  0
 13 14  1  1  0  0  0
 13 21  1  0  0  0  0
 15 13  1  0  0  0  0
 16 15  1  0  0  0  0
 16 18  1  0  0  0  0
 16 17  1  6  0  0  0
 18  2  1  6  0  0  0
 18 19  1  0  0  0  0
 19 21  1  0  0  0  0
 19 20  1  1  0  0  0
 21 22  1  1  0  0  0
 23 20  1  6  0  0  0
 23 29  1  0  0  0  0
 23 24  1  0  0  0  0
 24 26  1  0  0  0  0
 24 25  1  1  0  0  0
 26 27  1  1  0  0  0
 28 26  1  0  0  0  0
 28 30  1  6  0  0  0
 29 28  1  0  0  0  0
 30 31  1  0  0  0  0
 32 27  1  6  0  0  0
 32 40  1  0  0  0  0
 32 33  1  0  0  0  0
 33 35  1  0  0  0  0
 33 34  1  6  0  0  0
 35 37  1  0  0  0  0
 35 36  1  1  0  0  0
 37 38  1  6  0  0  0
 39 37  1  0  0  0  0
 39 41  1  6  0  0  0
 40 39  1  0  0  0  0
 42 41  1  0  0  0  0
M  END
>  <CHROM.1>
-179.91181643,177.31698421,-69.38858061,-63.70764159,178.72638382,64.46208380
59.46121986,90.25794772,71.37930739,-173.79200867,130.48551909,64.78315789
-174.30454604,173.91091124,-78.59380874,50.93601938,-178.84830666,46.42200414
-179.42422418,67.87821373,-160.46925771,-51.22137516,-1.26875091,2.61907556
4.93111668,0.53859171,-1.24570439,-2.46797381

>  <Name>
lig.pdb

>  <RI>
0

>  <Rbt.Current_Directory>
/home/itssahil/PROJECTS/Mol_Feturizer/New_Systems/rnas/2mxs

>  <Rbt.Executable>
rbdock ($Id: //depot/dev/client3/rdock/2013.1/src/exe/rbdock.cxx#4 $)

>  <Rbt.Library>
libRbt.so (2013.1, Build901 2013/11/27)

>  <Rbt.Parameter_File>
/export/apps/rDock/src/rDock_2013.1_src/data/scripts/dock_solv.prm

>  <Rbt.Receptor>
prm/pocket_docking_6.prm

>  <SCORE>
-36.5821

>  <SCORE.INTER>
-30.2202

>  <SCORE.INTER.CONST>
1

>  <SCORE.INTER.POLAR>
-4.45326

>  <SCORE.INTER.ROT>
9

>  <SCORE.INTER.SOLV>
12.6768

>  <SCORE.INTER.VDW>
-19.1282

>  <SCORE.INTER.norm>
-0.719528

>  <SCORE.INTRA>
-6.5921

>  <SCORE.INTRA.DIHEDRAL>
-15.5836

>  <SCORE.INTRA.DIHEDRAL.0>
30.1357

>  <SCORE.INTRA.POLAR>
-1.08771

>  <SCORE.INTRA.POLAR.0>
-0.631696

>  <SCORE.INTRA.REPUL>
0.00661637

>  <SCORE.INTRA.REPUL.0>
0

>  <SCORE.INTRA.SOLV>
1.39566

>  <SCORE.INTRA.SOLV.lig_0>
-55.904

>  <SCORE.INTRA.VDW>
4.16701

>  <SCORE.INTRA.VDW.0>
-8.21197

>  <SCORE.INTRA.norm>
-0.156955

>  <SCORE.RESTR>
0.230136

>  <SCORE.RESTR.CAVITY>
0.230136

>  <SCORE.RESTR.norm>
0.00547944

>  <SCORE.SYSTEM>
0

>  <SCORE.SYSTEM.CONST>
0

>  <SCORE.SYSTEM.DIHEDRAL>
0

>  <SCORE.SYSTEM.SOLV>
0

>  <SCORE.SYSTEM.norm>
0

>  <SCORE.heavy>
42

>  <SCORE.norm>
-0.871003

>  <RMSD>
5.857

$$$$
lig.pdb
 OpenBabel11021811453D
libRbt.so/2013.1/901 2013/11/27
 42 45  0  0  0  0  0  0  0  0999 V2000
   -1.8397   -0.3800    1.8291 C   0  0  2  0  0  0  0  0  0  0  0  0
   -0.8408   -0.2997    0.8107 O   0  0  0  0  0  0  0  0  0  0  0  0
   -1.9077   -1.7971    2.4181 C   0  0  2  0  0  0  0  0  0  0  0  0
   -0.5851   -2.2324    2.9034 N   0  0  0  0  0  0  0  0  0  0  0  0
   -2.4739   -2.7910    1.3958 C   0  0  1  0  0  0  0  0  0  0  0  0
   -2.6648   -4.0472    2.0180 O   0  0  0  0  0  0  0  0  0  0  0  0
   -3.8170   -2.2846    0.8488 C   0  0  2  0  0  0  0  0  0  0  0  0
   -4.2435   -3.1300   -0.2024 O   0  0  0  0  0  0  0  0  0  0  0  0
   -3.7093   -0.8327    0.3401 C   0  0  2  0  0  0  0  0  0  0  0  0
   -3.1115    0.0146    1.3208 O   0  0  0  0  0  0  0  0  0  0  0  0
   -5.1297   -0.3321    0.0160 C   0  0  0  0  0  0  0  0  0  0  0  0
   -5.1141    0.9049   -0.7454 O   0  0  0  0  0  0  0  0  0  0  0  0
    1.0580    3.3543   -0.4441 C   0  0  2  0  0  0  0  0  0  0  0  0
    1.0624    4.6591   -1.1352 N   0  0  0  0  0  0  0  0  0  0  0  0
    0.7618    2.2275   -1.4370 C   0  0  0  0  0  0  0  0  0  0  0  0
    0.6161    0.8959   -0.7100 C   0  0  2  0  0  0  0  0  0  0  0  0
    0.4303   -0.1925   -1.6779 N   0  0  0  0  0  0  0  0  0  0  0  0
   -0.5706    1.0042    0.2755 C   0  0  2  0  0  0  0  0  0  0  0  0
   -0.2136    1.9917    1.3399 C   0  0  2  0  0  0  0  0  0  0  0  0
   -1.2944    2.0445    2.2529 O   0  0  0  0  0  0  0  0  0  0  0  0
    0.0402    3.3491    0.7120 C   0  0  1  0  0  0  0  0  0  0  0  0
    0.4648    4.3048    1.6656 O   0  0  0  0  0  0  0  0  0  0  0  0
   -1.0212    1.7604    3.6209 C   0  0  1  0  0  0  0  0  0  0  0  0
   -0.3016    2.9728    4.2155 C   0  0  2  0  0  0  0  0  0  0  0  0
    0.6600    2.5318    5.1555 O   0  0  0  0  0  0  0  0  0  0  0  0
   -1.4523    3.7561    4.8617 C   0  0  2  0  0  0  0  0  0  0  0  0
   -1.0072    4.6572    5.8760 O   0  0  0  0  0  0  0  0  0  0  0  0
   -2.3150    2.5930    5.3666 C   0  0  2  0  0  0  0  0  0  0  0  0
   -2.2438    1.6203    4.3336 O   0  0  0  0  0  0  0  0  0  0  0  0
   -3.7849    2.9543    5.6099 C   0  0  0  0  0  0  0  0  0  0  0  0
   -4.4494    1.9560    6.3549 O   0  0  0  0  0  0  0  0  0  0  0  0
   -0.2733    5.7806    5.3927 C   0  0  2  0  0  0  0  0  0  0  0  0
    0.8918    6.1451    6.3253 C   0  0  2  0  0  0  0  0  0  0  0  0
    1.7722    4.9856    6.5455 N   0  0  0  0  0  0  0  0  0  0  0  0
    0.3793    6.7223    7.6534 C   0  0  1  0  0  0  0  0  0  0  0  0
    1.4913    7.1181    8.4328 O   0  0  0  0  0  0  0  0  0  0  0  0
   -0.5113    7.9376    7.3440 C   0  0  2  0  0  0  0  0  0  0  0  0
   -1.0464    8.4834    8.5357 O   0  0  0  0  0  0  0  0  0  0  0  0
   -1.6445    7.5585    6.3685 C   0  0  1  0  0  0  0  0  0  0  0  0
   -1.1359    6.9005    5.2059 O   0  0  0  0  0  0  0  0  0  0  0  0
   -2.7761    6.7590    7.0312 C   0  0  0  0  0  0  0  0  0  0  0  0
   -3.4887    7.5682    8.0331 N   0  0  0  0  0  0  0  0  0  0  0  0
  1  3  1  0  0  0  0
  1  2  1  6  0  0  0
  3  4  1  6  0  0  0
  5  6  1  1  0  0  0
  5  3  1  0  0  0  0
  7  9  1  0  0  0  0
  7  5  1  0  0  0  0
  7  8  1  6  0  0  0
  9 10  1  0  0  0  0
  9 11  1  1  0  0  0
 10  1  1  0  0  0  0
 11 12  1  0  0  0  0
 13 14  1  6  0  0  0
 13 21  1  0  0  0  0
 15 13  1  0  0  0  0
 16 15  1  0  0  0  0
 16 18  1  0  0  0  0
 16 17  1  6  0  0  0
 18  2  1  1  0  0  0
 18 19  1  0  0  0  0
 19 21  1  0  0  0  0
 19 20  1  1  0  0  0
 21 22  1  1  0  0  0
 23 20  1  6  0  0  0
 23 29  1  0  0  0  0
 23 24  1  0  0  0  0
 24 26  1  0  0  0  0
 24 25  1  1  0  0  0
 26 27  1  1  0  0  0
 28 26  1  0  0  0  0
 28 30  1  6  0  0  0
 29 28  1  0  0  0  0
 30 31  1  0  0  0  0
 32 27  1  1  0  0  0
 32 40  1  0  0  0  0
 32 33  1  0  0  0  0
 33 35  1  0  0  0  0
 33 34  1  1  0  0  0
 35 37  1  0  0  0  0
 35 36  1  1  0  0  0
 37 38  1  1  0  0  0
 39 37  1  0  0  0  0
 39 41  1  1  0  0  0
 40 39  1  0  0  0  0
 42 41  1  0  0  0  0
M  END
>  <CHROM.1>
174.99061226,-173.46621665,-43.80276152,-86.66133822,-57.29746498,66.61767222
-167.11345408,43.88428194,167.95184076,122.84915103,74.78306606,-61.02520821
49.23955886,69.90319927,-141.72204773,-166.30743148,179.07948500,-27.01320519
-72.67483461,56.16034018,65.51968580,72.96328318,-1.31862610,2.54754633,3.26149493
1.77505314,-0.75545333,-2.28769980

>  <Name>
lig.pdb

>  <RI>
0

>  <Rbt.Current_Directory>
/home/itssahil/PROJECTS/Mol_Feturizer/New_Systems/rnas/2mxs

>  <Rbt.Executable>
rbdock ($Id: //depot/dev/client3/rdock/2013.1/src/exe/rbdock.cxx#4 $)

>  <Rbt.Library>
libRbt.so (2013.1, Build901 2013/11/27)

>  <Rbt.Parameter_File>
/export/apps/rDock/src/rDock_2013.1_src/data/scripts/dock_solv.prm

>  <Rbt.Receptor>
prm/pocket_docking_6.prm

>  <SCORE>
-26.6098

>  <SCORE.INTER>
-25.5294

>  <SCORE.INTER.CONST>
1

>  <SCORE.INTER.POLAR>
-3.79999

>  <SCORE.INTER.ROT>
9

>  <SCORE.INTER.SOLV>
14.159

>  <SCORE.INTER.VDW>
-18.6726

>  <SCORE.INTER.norm>
-0.607842

>  <SCORE.INTRA>
-1.08047

>  <SCORE.INTRA.DIHEDRAL>
-5.32881

>  <SCORE.INTRA.DIHEDRAL.0>
30.1357

>  <SCORE.INTRA.POLAR>
-1.11801

>  <SCORE.INTRA.POLAR.0>
-0.631696

>  <SCORE.INTRA.REPUL>
0.0316291

>  <SCORE.INTRA.REPUL.0>
0

>  <SCORE.INTRA.SOLV>
-0.612624

>  <SCORE.INTRA.SOLV.lig_0>
-55.904

>  <SCORE.INTRA.VDW>
5.53333

>  <SCORE.INTRA.VDW.0>
-8.21197

>  <SCORE.INTRA.norm>
-0.0257255

>  <SCORE.RESTR>
0

>  <SCORE.RESTR.CAVITY>
0

>  <SCORE.RESTR.norm>
0

>  <SCORE.SYSTEM>
0

>  <SCORE.SYSTEM.CONST>
0

>  <SCORE.SYSTEM.DIHEDRAL>
0

>  <SCORE.SYSTEM.SOLV>
0

>  <SCORE.SYSTEM.norm>
0

>  <SCORE.heavy>
42

>  <SCORE.norm>
-0.633568

>  <RMSD>
5.863

$$$$
lig.pdb
 OpenBabel11021811453D
libRbt.so/2013.1/901 2013/11/27
 42 45  0  0  0  0  0  0  0  0999 V2000
   -2.8131   -0.7363    0.2843 C   0  0  2  0  0  0  0  0  0  0  0  0
   -2.3868    0.5443    0.7531 O   0  0  0  0  0  0  0  0  0  0  0  0
   -4.3323   -0.7583    0.0582 C   0  0  2  0  0  0  0  0  0  0  0  0
   -4.7485    0.3297   -0.8460 N   0  0  0  0  0  0  0  0  0  0  0  0
   -5.0878   -0.6859    1.3914 C   0  0  1  0  0  0  0  0  0  0  0  0
   -6.4719   -0.8620    1.1570 O   0  0  0  0  0  0  0  0  0  0  0  0
   -4.5897   -1.7819    2.3455 C   0  0  2  0  0  0  0  0  0  0  0  0
   -5.1817   -1.6003    3.6175 O   0  0  0  0  0  0  0  0  0  0  0  0
   -3.0533   -1.7618    2.4770 C   0  0  2  0  0  0  0  0  0  0  0  0
   -2.4256   -1.7619    1.1952 O   0  0  0  0  0  0  0  0  0  0  0  0
   -2.6238   -3.0128    3.2668 C   0  0  0  0  0  0  0  0  0  0  0  0
   -1.2839   -3.4496    2.9146 O   0  0  0  0  0  0  0  0  0  0  0  0
    1.7682    0.4937   -0.3714 C   0  0  2  0  0  0  0  0  0  0  0  0
    3.1038    1.1133   -0.4827 N   0  0  0  0  0  0  0  0  0  0  0  0
    0.7379    1.3049   -1.1611 C   0  0  0  0  0  0  0  0  0  0  0  0
   -0.6654    0.7539   -0.9371 C   0  0  2  0  0  0  0  0  0  0  0  0
   -1.6327    1.4750   -1.7738 N   0  0  0  0  0  0  0  0  0  0  0  0
   -1.0013    0.8690    0.5680 C   0  0  2  0  0  0  0  0  0  0  0  0
   -0.0970   -0.0489    1.3265 C   0  0  2  0  0  0  0  0  0  0  0  0
   -0.4487    0.0404    2.6950 O   0  0  0  0  0  0  0  0  0  0  0  0
    1.3471    0.3589    1.1040 C   0  0  1  0  0  0  0  0  0  0  0  0
    2.2529   -0.5286    1.7325 O   0  0  0  0  0  0  0  0  0  0  0  0
    0.4168   -0.5744    3.6435 C   0  0  1  0  0  0  0  0  0  0  0  0
    0.9111    0.5135    4.5994 C   0  0  2  0  0  0  0  0  0  0  0  0
    2.2508    0.2416    4.9654 O   0  0  0  0  0  0  0  0  0  0  0  0
   -0.0660    0.3886    5.7761 C   0  0  2  0  0  0  0  0  0  0  0  0
    0.4507    0.9440    6.9857 O   0  0  0  0  0  0  0  0  0  0  0  0
   -0.2627   -1.1323    5.7979 C   0  0  2  0  0  0  0  0  0  0  0  0
   -0.3178   -1.5054    4.4282 O   0  0  0  0  0  0  0  0  0  0  0  0
   -1.5493   -1.5942    6.4919 C   0  0  0  0  0  0  0  0  0  0  0  0
   -2.6886   -0.9596    5.9511 O   0  0  0  0  0  0  0  0  0  0  0  0
   -0.4754    1.7479    7.7138 C   0  0  2  0  0  0  0  0  0  0  0  0
   -0.1373    3.2430    7.6111 C   0  0  2  0  0  0  0  0  0  0  0  0
   -0.0512    3.6675    6.2038 N   0  0  0  0  0  0  0  0  0  0  0  0
    1.1519    3.5737    8.3780 C   0  0  1  0  0  0  0  0  0  0  0  0
    1.3653    4.9709    8.3210 O   0  0  0  0  0  0  0  0  0  0  0  0
    0.9783    3.1227    9.8383 C   0  0  2  0  0  0  0  0  0  0  0  0
    2.1582    3.3663   10.5818 O   0  0  0  0  0  0  0  0  0  0  0  0
    0.5919    1.6312    9.9139 C   0  0  1  0  0  0  0  0  0  0  0  0
   -0.5305    1.3385    9.0785 O   0  0  0  0  0  0  0  0  0  0  0  0
    1.7698    0.6828    9.6453 C   0  0  0  0  0  0  0  0  0  0  0  0
    1.3029   -0.6345    9.1838 N   0  0  0  0  0  0  0  0  0  0  0  0
  1  3  1  0  0  0  0
  1  2  1  1  0  0  0
  3  4  1  6  0  0  0
  5  6  1  6  0  0  0
  5  3  1  0  0  0  0
  7  9  1  0  0  0  0
  7  5  1  0  0  0  0
  7  8  1  1  0  0  0
  9 10  1  0  0  0  0
  9 11  1  1  0  0  0
 10  1  1  0  0  0  0
 11 12  1  0  0  0  0
 13 14  1  1  0  0  0
 13 21  1  0  0  0  0
 15 13  1  0  0  0  0
 16 15  1  0  0  0  0
 16 18  1  0  0  0  0
 16 17  1  6  0  0  0
 18  2  1  6  0  0  0
 18 19  1  0  0  0  0
 19 21  1  0  0  0  0
 19 20  1  1  0  0  0
 21 22  1  6  0  0  0
 23 20  1  6  0  0  0
 23 29  1  0  0  0  0
 23 24  1  0  0  0  0
 24 26  1  0  0  0  0
 24 25  1  1  0  0  0
 26 27  1  1  0  0  0
 28 26  1  0  0  0  0
 28 30  1  1  0  0  0
 29 28  1  0  0  0  0
 30 31  1  0  0  0  0
 32 27  1  6  0  0  0
 32 40  1  0  0  0  0
 32 33  1  0  0  0  0
 33 35  1  0  0  0  0
 33 34  1  6  0  0  0
 35 37  1  0  0  0  0
 35 36  1  1  0  0  0
 37 38  1  1  0  0  0
 39 37  1  0  0  0  0
 39 41  1  6  0  0  0
 40 39  1  0  0  0  0
 42 41  1  0  0  0  0
M  END
>  <CHROM.1>
56.78444425,-158.93699368,43.73583894,58.89629864,-62.16943409,-62.99385589
151.97807206,176.60105898,9.77800698,-169.79364344,120.37941624,-62.36635111
-64.45203756,135.48174564,-106.99866757,53.82511931,178.27428513,-65.03321018
-64.18435067,-53.99530804,-156.66750836,-150.58596421,-0.77049119,0.31703390
3.96552105,1.99902350,-0.48657958,-1.65026788

>  <Name>
lig.pdb

>  <RI>
0

>  <Rbt.Current_Directory>
/home/itssahil/PROJECTS/Mol_Feturizer/New_Systems/rnas/2mxs

>  <Rbt.Executable>
rbdock ($Id: //depot/dev/client3/rdock/2013.1/src/exe/rbdock.cxx#4 $)

>  <Rbt.Library>
libRbt.so (2013.1, Build901 2013/11/27)

>  <Rbt.Parameter_File>
/export/apps/rDock/src/rDock_2013.1_src/data/scripts/dock_solv.prm

>  <Rbt.Receptor>
prm/pocket_docking_7.prm

>  <SCORE>
-27.9098

>  <SCORE.INTER>
-33.9603

>  <SCORE.INTER.CONST>
1

>  <SCORE.INTER.POLAR>
-3.71131

>  <SCORE.INTER.ROT>
9

>  <SCORE.INTER.SOLV>
17.5734

>  <SCORE.INTER.VDW>
-25.727

>  <SCORE.INTER.norm>
-0.808579

>  <SCORE.INTRA>
5.91862

>  <SCORE.INTRA.DIHEDRAL>
2.93617

>  <SCORE.INTRA.DIHEDRAL.0>
30.1357

>  <SCORE.INTRA.POLAR>
0.106943

>  <SCORE.INTRA.POLAR.0>
-0.631696

>  <SCORE.INTRA.REPUL>
0.0228859

>  <SCORE.INTRA.REPUL.0>
0

>  <SCORE.INTRA.SOLV>
2.43545

>  <SCORE.INTRA.SOLV.lig_0>
-55.904

>  <SCORE.INTRA.VDW>
2.75477

>  <SCORE.INTRA.VDW.0>
-8.21197

>  <SCORE.INTRA.norm>
0.140919

>  <SCORE.RESTR>
0.131922

>  <SCORE.RESTR.CAVITY>
0.131922

>  <SCORE.RESTR.norm>
0.00314101

>  <SCORE.SYSTEM>
0

>  <SCORE.SYSTEM.CONST>
0

>  <SCORE.SYSTEM.DIHEDRAL>
0

>  <SCORE.SYSTEM.SOLV>
0

>  <SCORE.SYSTEM.norm>
0

>  <SCORE.heavy>
42

>  <SCORE.norm>
-0.664519

>  <RMSD>
5.863

$$$$
lig.pdb
 OpenBabel11021811453D
libRbt.so/2013.1/901 2013/11/27
 42 45  0  0  0  0  0  0  0  0999 V2000
   -1.5507    3.7268    1.4090 C   0  0  2  0  0  0  0  0  0  0  0  0
   -1.1926    4.1856    0.1041 O   0  0  0  0  0  0  0  0  0  0  0  0
   -3.0438    3.3714    1.4733 C   0  0  2  0  0  0  0  0  0  0  0  0
   -3.4014    2.3973    0.4256 N   0  0  0  0  0  0  0  0  0  0  0  0
   -3.9137    4.6312    1.3742 C   0  0  1  0  0  0  0  0  0  0  0  0
   -5.2683    4.2847    1.5898 O   0  0  0  0  0  0  0  0  0  0  0  0
   -3.4785    5.6624    2.4264 C   0  0  2  0  0  0  0  0  0  0  0  0
   -4.1824    6.8715    2.2165 O   0  0  0  0  0  0  0  0  0  0  0  0
   -1.9601    5.9252    2.3666 C   0  0  2  0  0  0  0  0  0  0  0  0
   -1.2234    4.7030    2.3947 O   0  0  0  0  0  0  0  0  0  0  0  0
   -1.5759    6.7923    3.5806 C   0  0  0  0  0  0  0  0  0  0  0  0
   -0.5221    7.7409    3.2646 O   0  0  0  0  0  0  0  0  0  0  0  0
    2.6327    4.8680   -1.7487 C   0  0  2  0  0  0  0  0  0  0  0  0
    4.1068    4.7887   -1.7803 N   0  0  0  0  0  0  0  0  0  0  0  0
    2.1701    5.6943   -0.5460 C   0  0  0  0  0  0  0  0  0  0  0  0
    0.6511    5.6636   -0.4258 C   0  0  2  0  0  0  0  0  0  0  0  0
    0.2115    6.5370    0.6695 N   0  0  0  0  0  0  0  0  0  0  0  0
    0.2071    4.1978   -0.2122 C   0  0  2  0  0  0  0  0  0  0  0  0
    0.5150    3.4241   -1.4541 C   0  0  2  0  0  0  0  0  0  0  0  0
    0.0635    2.0974   -1.2533 O   0  0  0  0  0  0  0  0  0  0  0  0
    2.0080    3.4604   -1.7208 C   0  0  1  0  0  0  0  0  0  0  0  0
    2.3473    2.8131   -2.9328 O   0  0  0  0  0  0  0  0  0  0  0  0
    1.0279    1.1176   -0.8833 C   0  0  1  0  0  0  0  0  0  0  0  0
    1.5897    1.5081    0.4854 C   0  0  2  0  0  0  0  0  0  0  0  0
    2.9635    1.1726    0.5405 O   0  0  0  0  0  0  0  0  0  0  0  0
    0.7324    0.6723    1.4454 C   0  0  2  0  0  0  0  0  0  0  0  0
    1.3515    0.4832    2.7181 O   0  0  0  0  0  0  0  0  0  0  0  0
    0.5689   -0.6049    0.6123 C   0  0  2  0  0  0  0  0  0  0  0  0
    0.3903   -0.1429   -0.7193 O   0  0  0  0  0  0  0  0  0  0  0  0
   -0.6360   -1.4674    1.0058 C   0  0  0  0  0  0  0  0  0  0  0  0
   -0.2434   -2.7729    1.3726 O   0  0  0  0  0  0  0  0  0  0  0  0
    0.4781    0.0036    3.7385 C   0  0  2  0  0  0  0  0  0  0  0  0
    0.2473    1.0562    4.8334 C   0  0  2  0  0  0  0  0  0  0  0  0
   -0.2467    2.3171    4.2554 N   0  0  0  0  0  0  0  0  0  0  0  0
    1.5195    1.2793    5.6649 C   0  0  1  0  0  0  0  0  0  0  0  0
    1.2243    2.1896    6.7065 O   0  0  0  0  0  0  0  0  0  0  0  0
    1.9606   -0.0727    6.2511 C   0  0  2  0  0  0  0  0  0  0  0  0
    3.1574    0.0695    6.9939 O   0  0  0  0  0  0  0  0  0  0  0  0
    2.1388   -1.1259    5.1382 C   0  0  1  0  0  0  0  0  0  0  0  0
    0.9818   -1.2052    4.3026 O   0  0  0  0  0  0  0  0  0  0  0  0
    3.4250   -0.9359    4.3205 C   0  0  0  0  0  0  0  0  0  0  0  0
    3.6856    0.4880    4.0543 N   0  0  0  0  0  0  0  0  0  0  0  0
  1  3  1  0  0  0  0
  1  2  1  6  0  0  0
  3  4  1  6  0  0  0
  5  6  1  1  0  0  0
  5  3  1  0  0  0  0
  7  9  1  0  0  0  0
  7  5  1  0  0  0  0
  7  8  1  6  0  0  0
  9 10  1  0  0  0  0
  9 11  1  1  0  0  0
 10  1  1  0  0  0  0
 11 12  1  0  0  0  0
 13 14  1  1  0  0  0
 13 21  1  0  0  0  0
 15 13  1  0  0  0  0
 16 15  1  0  0  0  0
 16 18  1  0  0  0  0
 16 17  1  1  0  0  0
 18  2  1  6  0  0  0
 18 19  1  0  0  0  0
 19 21  1  0  0  0  0
 19 20  1  1  0  0  0
 21 22  1  6  0  0  0
 23 20  1  1  0  0  0
 23 29  1  0  0  0  0
 23 24  1  0  0  0  0
 24 26  1  0  0  0  0
 24 25  1  6  0  0  0
 26 27  1  1  0  0  0
 28 26  1  0  0  0  0
 28 30  1  1  0  0  0
 29 28  1  0  0  0  0
 30 31  1  0  0  0  0
 32 27  1  6  0  0  0
 32 40  1  0  0  0  0
 32 33  1  0  0  0  0
 33 35  1  0  0  0  0
 33 34  1  6  0  0  0
 35 37  1  0  0  0  0
 35 36  1  1  0  0  0
 37 38  1  6  0  0  0
 39 37  1  0  0  0  0
 39 41  1  6  0  0  0
 40 39  1  0  0  0  0
 42 41  1  0  0  0  0
M  END
>  <CHROM.1>
-115.11802295,-163.18733621,-48.41640342,179.50846717,-151.94622230,-178.94199877
-144.51022113,-87.31698493,34.68110947,-99.50950065,63.82706730,-125.51029558
-177.06414426,165.50590142,-112.61819220,-121.88707820,169.00766028,-179.30795963
65.00723291,167.39282090,-40.10763299,-60.56007834,0.23833550,2.58152072
1.78325153,2.26732256,0.82419433,-1.08696702

>  <Name>
lig.pdb

>  <RI>
0

>  <Rbt.Current_Directory>
/home/itssahil/PROJECTS/Mol_Feturizer/New_Systems/rnas/2mxs

>  <Rbt.Executable>
rbdock ($Id: //depot/dev/client3/rdock/2013.1/src/exe/rbdock.cxx#4 $)

>  <Rbt.Library>
libRbt.so (2013.1, Build901 2013/11/27)

>  <Rbt.Parameter_File>
/export/apps/rDock/src/rDock_2013.1_src/data/scripts/dock_solv.prm

>  <Rbt.Receptor>
prm/blind_docking_60.prm

>  <SCORE>
64.7938

>  <SCORE.INTER>
19.7917

>  <SCORE.INTER.CONST>
1

>  <SCORE.INTER.POLAR>
-2.85684

>  <SCORE.INTER.ROT>
9

>  <SCORE.INTER.SOLV>
27.2351

>  <SCORE.INTER.VDW>
4.03892

>  <SCORE.INTER.norm>
0.471232

>  <SCORE.INTRA>
13.4204

>  <SCORE.INTRA.DIHEDRAL>
16.773

>  <SCORE.INTRA.DIHEDRAL.0>
30.1357

>  <SCORE.INTRA.POLAR>
-0.688745

>  <SCORE.INTRA.POLAR.0>
-0.631696

>  <SCORE.INTRA.REPUL>
0

>  <SCORE.INTRA.REPUL.0>
0

>  <SCORE.INTRA.SOLV>
2.16987

>  <SCORE.INTRA.SOLV.lig_0>
-55.904

>  <SCORE.INTRA.VDW>
6.29073

>  <SCORE.INTRA.VDW.0>
-8.21197

>  <SCORE.INTRA.norm>
0.319534

>  <SCORE.RESTR>
31.5817

>  <SCORE.RESTR.CAVITY>
31.5817

>  <SCORE.RESTR.norm>
0.751944

>  <SCORE.SYSTEM>
0

>  <SCORE.SYSTEM.CONST>
0

>  <SCORE.SYSTEM.DIHEDRAL>
0

>  <SCORE.SYSTEM.SOLV>
0

>  <SCORE.SYSTEM.norm>
0

>  <SCORE.heavy>
42

>  <SCORE.norm>
1.54271

>  <RMSD>
5.886

$$$$
lig.pdb
 OpenBabel11021811453D
libRbt.so/2013.1/901 2013/11/27
 42 45  0  0  0  0  0  0  0  0999 V2000
   -1.4154    4.5568    1.2044 C   0  0  2  0  0  0  0  0  0  0  0  0
   -0.9675    5.2778    0.0551 O   0  0  0  0  0  0  0  0  0  0  0  0
   -2.8339    4.9905    1.6039 C   0  0  2  0  0  0  0  0  0  0  0  0
   -3.7665    4.8596    0.4692 N   0  0  0  0  0  0  0  0  0  0  0  0
   -2.8361    6.4216    2.1565 C   0  0  1  0  0  0  0  0  0  0  0  0
   -4.1240    6.7310    2.6539 O   0  0  0  0  0  0  0  0  0  0  0  0
   -1.8073    6.5563    3.2892 C   0  0  2  0  0  0  0  0  0  0  0  0
   -1.7117    7.9137    3.6764 O   0  0  0  0  0  0  0  0  0  0  0  0
   -0.4204    6.0374    2.8582 C   0  0  2  0  0  0  0  0  0  0  0  0
   -0.5115    4.7301    2.2928 O   0  0  0  0  0  0  0  0  0  0  0  0
    0.4865    6.0039    4.1030 C   0  0  0  0  0  0  0  0  0  0  0  0
    0.0528    5.0106    5.0702 O   0  0  0  0  0  0  0  0  0  0  0  0
    2.8577    5.2567   -1.9193 C   0  0  2  0  0  0  0  0  0  0  0  0
    4.3341    5.2375   -1.9169 N   0  0  0  0  0  0  0  0  0  0  0  0
    2.3407    6.5023   -1.1952 C   0  0  0  0  0  0  0  0  0  0  0  0
    0.8223    6.4590   -1.0699 C   0  0  2  0  0  0  0  0  0  0  0  0
    0.3281    7.7012   -0.4629 N   0  0  0  0  0  0  0  0  0  0  0  0
    0.4357    5.2137   -0.2384 C   0  0  2  0  0  0  0  0  0  0  0  0
    0.7968    3.9915   -1.0204 C   0  0  2  0  0  0  0  0  0  0  0  0
    0.3970    2.8655   -0.2609 O   0  0  0  0  0  0  0  0  0  0  0  0
    2.2913    3.9749   -1.2800 C   0  0  1  0  0  0  0  0  0  0  0  0
    2.6779    2.8808   -2.0901 O   0  0  0  0  0  0  0  0  0  0  0  0
    0.9444    2.7184    1.0450 C   0  0  1  0  0  0  0  0  0  0  0  0
   -0.1236    2.0714    1.9295 C   0  0  2  0  0  0  0  0  0  0  0  0
   -0.0379    2.6088    3.2359 O   0  0  0  0  0  0  0  0  0  0  0  0
    0.2536    0.5851    1.8697 C   0  0  2  0  0  0  0  0  0  0  0  0
   -0.2728   -0.1639    2.9655 O   0  0  0  0  0  0  0  0  0  0  0  0
    1.7828    0.6998    1.8432 C   0  0  2  0  0  0  0  0  0  0  0  0
    2.0430    1.8164    1.0042 O   0  0  0  0  0  0  0  0  0  0  0  0
    2.5000   -0.5294    1.2729 C   0  0  0  0  0  0  0  0  0  0  0  0
    3.8892   -0.3104    1.1499 O   0  0  0  0  0  0  0  0  0  0  0  0
   -0.0814    0.4389    4.2439 C   0  0  2  0  0  0  0  0  0  0  0  0
    0.6926   -0.4824    5.1990 C   0  0  2  0  0  0  0  0  0  0  0  0
    1.9748   -0.8976    4.6060 N   0  0  0  0  0  0  0  0  0  0  0  0
   -0.1563   -1.6952    5.6088 C   0  0  1  0  0  0  0  0  0  0  0  0
    0.5719   -2.4584    6.5512 O   0  0  0  0  0  0  0  0  0  0  0  0
   -1.4638   -1.1837    6.2372 C   0  0  2  0  0  0  0  0  0  0  0  0
   -2.3048   -2.2650    6.5948 O   0  0  0  0  0  0  0  0  0  0  0  0
   -2.1986   -0.2233    5.2794 C   0  0  1  0  0  0  0  0  0  0  0  0
   -1.3332    0.8148    4.8137 O   0  0  0  0  0  0  0  0  0  0  0  0
   -2.9070   -0.9421    4.1217 C   0  0  0  0  0  0  0  0  0  0  0  0
   -2.1604   -2.1366    3.6952 N   0  0  0  0  0  0  0  0  0  0  0  0
  1  3  1  0  0  0  0
  1  2  1  6  0  0  0
  3  4  1  6  0  0  0
  5  6  1  1  0  0  0
  5  3  1  0  0  0  0
  7  9  1  0  0  0  0
  7  5  1  0  0  0  0
  7  8  1  6  0  0  0
  9 10  1  0  0  0  0
  9 11  1  1  0  0  0
 10  1  1  0  0  0  0
 11 12  1  0  0  0  0
 13 14  1  1  0  0  0
 13 21  1  0  0  0  0
 15 13  1  0  0  0  0
 16 15  1  0  0  0  0
 16 18  1  0  0  0  0
 16 17  1  1  0  0  0
 18  2  1  6  0  0  0
 18 19  1  0  0  0  0
 19 21  1  0  0  0  0
 19 20  1  1  0  0  0
 21 22  1  6  0  0  0
 23 20  1  6  0  0  0
 23 29  1  0  0  0  0
 23 24  1  0  0  0  0
 24 26  1  0  0  0  0
 24 25  1  1  0  0  0
 26 27  1  1  0  0  0
 28 26  1  0  0  0  0
 28 30  1  6  0  0  0
 29 28  1  0  0  0  0
 30 31  1  0  0  0  0
 32 27  1  6  0  0  0
 32 40  1  0  0  0  0
 32 33  1  0  0  0  0
 33 35  1  0  0  0  0
 33 34  1  6  0  0  0
 35 37  1  0  0  0  0
 35 36  1  1  0  0  0
 37 38  1  6  0  0  0
 39 37  1  0  0  0  0
 39 41  1  6  0  0  0
 40 39  1  0  0  0  0
 42 41  1  0  0  0  0
M  END
>  <CHROM.1>
-156.06618865,165.61345171,-154.58066625,-70.05401550,74.99124837,-54.43367112
67.15670147,-179.14388793,56.73439810,-58.34722333,146.30758901,-161.92960253
157.52730468,-46.88827871,-122.31216088,174.04054120,-81.62307682,65.95908543
50.97062134,76.40064766,-33.69315641,-177.96282389,-0.02350214,2.78339574
2.19399759,1.42517576,0.70095911,-0.51781850

>  <Name>
lig.pdb

>  <RI>
0

>  <Rbt.Current_Directory>
/home/itssahil/PROJECTS/Mol_Feturizer/New_Systems/rnas/2mxs

>  <Rbt.Executable>
rbdock ($Id: //depot/dev/client3/rdock/2013.1/src/exe/rbdock.cxx#4 $)

>  <Rbt.Library>
libRbt.so (2013.1, Build901 2013/11/27)

>  <Rbt.Parameter_File>
/export/apps/rDock/src/rDock_2013.1_src/data/scripts/dock_solv.prm

>  <Rbt.Receptor>
prm/blind_docking_20.prm

>  <SCORE>
-15.3778

>  <SCORE.INTER>
-38.594

>  <SCORE.INTER.CONST>
1

>  <SCORE.INTER.POLAR>
-6.27301

>  <SCORE.INTER.ROT>
9

>  <SCORE.INTER.SOLV>
30.61

>  <SCORE.INTER.VDW>
-24.6226

>  <SCORE.INTER.norm>
-0.918905

>  <SCORE.INTRA>
9.24707

>  <SCORE.INTRA.DIHEDRAL>
-0.975849

>  <SCORE.INTRA.DIHEDRAL.0>
30.1357

>  <SCORE.INTRA.POLAR>
-0.944479

>  <SCORE.INTRA.POLAR.0>
-0.631696

>  <SCORE.INTRA.REPUL>
0

>  <SCORE.INTRA.REPUL.0>
0

>  <SCORE.INTRA.SOLV>
3.03357

>  <SCORE.INTRA.SOLV.lig_0>
-55.904

>  <SCORE.INTRA.VDW>
11.4294

>  <SCORE.INTRA.VDW.0>
-8.21197

>  <SCORE.INTRA.norm>
0.220168

>  <SCORE.RESTR>
13.9692

>  <SCORE.RESTR.CAVITY>
13.9692

>  <SCORE.RESTR.norm>
0.332599

>  <SCORE.SYSTEM>
0

>  <SCORE.SYSTEM.CONST>
0

>  <SCORE.SYSTEM.DIHEDRAL>
0

>  <SCORE.SYSTEM.SOLV>
0

>  <SCORE.SYSTEM.norm>
0

>  <SCORE.heavy>
42

>  <SCORE.norm>
-0.366137

>  <RMSD>
5.907

$$$$
lig.pdb
 OpenBabel11021811453D
libRbt.so/2013.1/901 2013/11/27
 42 45  0  0  0  0  0  0  0  0999 V2000
    2.6162    2.1233   -0.8606 C   0  0  2  0  0  0  0  0  0  0  0  0
    2.8652    3.4075   -0.2857 O   0  0  0  0  0  0  0  0  0  0  0  0
    1.1100    1.8949   -1.0578 C   0  0  2  0  0  0  0  0  0  0  0  0
    0.5092    2.9832   -1.8510 N   0  0  0  0  0  0  0  0  0  0  0  0
    0.3964    1.7376    0.2911 C   0  0  1  0  0  0  0  0  0  0  0  0
   -0.9538    1.3782    0.0690 O   0  0  0  0  0  0  0  0  0  0  0  0
    1.0811    0.6493    1.1316 C   0  0  2  0  0  0  0  0  0  0  0  0
    0.5110    0.6293    2.4262 O   0  0  0  0  0  0  0  0  0  0  0  0
    2.6014    0.8867    1.2342 C   0  0  2  0  0  0  0  0  0  0  0  0
    3.1798    1.0917   -0.0544 O   0  0  0  0  0  0  0  0  0  0  0  0
    3.2355   -0.3502    1.8984 C   0  0  0  0  0  0  0  0  0  0  0  0
    3.3032   -0.2215    3.3438 O   0  0  0  0  0  0  0  0  0  0  0  0
    3.1543    7.1905   -2.3194 C   0  0  2  0  0  0  0  0  0  0  0  0
    2.7142    8.1722   -3.3308 N   0  0  0  0  0  0  0  0  0  0  0  0
    3.5843    5.8864   -2.9958 C   0  0  0  0  0  0  0  0  0  0  0  0
    3.9056    4.8216   -1.9536 C   0  0  2  0  0  0  0  0  0  0  0  0
    4.4104    3.6080   -2.6078 N   0  0  0  0  0  0  0  0  0  0  0  0
    2.6283    4.5459   -1.1266 C   0  0  2  0  0  0  0  0  0  0  0  0
    2.2995    5.7741   -0.3398 C   0  0  2  0  0  0  0  0  0  0  0  0
    1.1536    5.4868    0.4405 O   0  0  0  0  0  0  0  0  0  0  0  0
    2.0425    6.9322   -1.2853 C   0  0  1  0  0  0  0  0  0  0  0  0
    1.8082    8.1431   -0.5911 O   0  0  0  0  0  0  0  0  0  0  0  0
   -0.0908    6.0343    0.0176 C   0  0  1  0  0  0  0  0  0  0  0  0
   -1.2017    5.3264    0.7962 C   0  0  2  0  0  0  0  0  0  0  0  0
   -2.3321    5.1685   -0.0405 O   0  0  0  0  0  0  0  0  0  0  0  0
   -1.4533    6.2904    1.9634 C   0  0  2  0  0  0  0  0  0  0  0  0
   -2.7395    6.1154    2.5582 O   0  0  0  0  0  0  0  0  0  0  0  0
   -1.2513    7.6320    1.2484 C   0  0  2  0  0  0  0  0  0  0  0  0
   -0.1539    7.4095    0.3739 O   0  0  0  0  0  0  0  0  0  0  0  0
   -0.9157    8.8020    2.1807 C   0  0  0  0  0  0  0  0  0  0  0  0
   -1.2532    8.5125    3.5206 O   0  0  0  0  0  0  0  0  0  0  0  0
   -3.1893    4.7631    2.6145 C   0  0  2  0  0  0  0  0  0  0  0  0
   -4.3104    4.5772    3.6483 C   0  0  2  0  0  0  0  0  0  0  0  0
   -5.4262    5.5017    3.3865 N   0  0  0  0  0  0  0  0  0  0  0  0
   -3.7757    4.7324    5.0799 C   0  0  1  0  0  0  0  0  0  0  0  0
   -4.8286    4.4666    5.9864 O   0  0  0  0  0  0  0  0  0  0  0  0
   -2.6326    3.7237    5.2840 C   0  0  2  0  0  0  0  0  0  0  0  0
   -2.0736    3.8546    6.5782 O   0  0  0  0  0  0  0  0  0  0  0  0
   -1.5429    3.8977    4.2062 C   0  0  1  0  0  0  0  0  0  0  0  0
   -2.1014    3.8837    2.8904 O   0  0  0  0  0  0  0  0  0  0  0  0
   -0.6489    5.1250    4.4369 C   0  0  0  0  0  0  0  0  0  0  0  0
   -1.4460    6.3093    4.7951 N   0  0  0  0  0  0  0  0  0  0  0  0
  1  3  1  0  0  0  0
  1  2  1  1  0  0  0
  3  4  1  1  0  0  0
  5  6  1  6  0  0  0
  5  3  1  0  0  0  0
  7  9  1  0  0  0  0
  7  5  1  0  0  0  0
  7  8  1  1  0  0  0
  9 10  1  0  0  0  0
  9 11  1  6  0  0  0
 10  1  1  0  0  0  0
 11 12  1  0  0  0  0
 13 14  1  6  0  0  0
 13 21  1  0  0  0  0
 15 13  1  0  0  0  0
 16 15  1  0  0  0  0
 16 18  1  0  0  0  0
 16 17  1  6  0  0  0
 18  2  1  1  0  0  0
 18 19  1  0  0  0  0
 19 21  1  0  0  0  0
 19 20  1  6  0  0  0
 21 22  1  1  0  0  0
 23 20  1  1  0  0  0
 23 29  1  0  0  0  0
 23 24  1  0  0  0  0
 24 26  1  0  0  0  0
 24 25  1  6  0  0  0
 26 27  1  6  0  0  0
 28 26  1  0  0  0  0
 28 30  1  1  0  0  0
 29 28  1  0  0  0  0
 30 31  1  0  0  0  0
 32 27  1  1  0  0  0
 32 40  1  0  0  0  0
 32 33  1  0  0  0  0
 33 35  1  0  0  0  0
 33 34  1  6  0  0  0
 35 37  1  0  0  0  0
 35 36  1  1  0  0  0
 37 38  1  1  0  0  0
 39 37  1  0  0  0  0
 39 41  1  1  0  0  0
 40 39  1  0  0  0  0
 42 41  1  0  0  0  0
M  END
>  <CHROM.1>
-86.35703218,-70.49210762,-77.45681127,-60.94854477,-58.50677102,-49.64307274
-90.55401537,-38.44763313,166.57918381,-104.50929574,166.57943937,65.41985557
-44.03660180,36.30167705,160.93973771,-17.96610958,-58.96102122,-157.48184507
66.22158843,-33.74328869,-44.83910387,-44.39008955,0.08167916,4.51153029
1.25764848,-0.16146552,-0.75176246,2.72255804

>  <Name>
lig.pdb

>  <RI>
0

>  <Rbt.Current_Directory>
/home/itssahil/PROJECTS/Mol_Feturizer/New_Systems/rnas/2mxs

>  <Rbt.Executable>
rbdock ($Id: //depot/dev/client3/rdock/2013.1/src/exe/rbdock.cxx#4 $)

>  <Rbt.Library>
libRbt.so (2013.1, Build901 2013/11/27)

>  <Rbt.Parameter_File>
/export/apps/rDock/src/rDock_2013.1_src/data/scripts/dock_solv.prm

>  <Rbt.Receptor>
prm/blind_docking_80.prm

>  <SCORE>
6.68058

>  <SCORE.INTER>
-29.6513

>  <SCORE.INTER.CONST>
1

>  <SCORE.INTER.POLAR>
-2.78396

>  <SCORE.INTER.ROT>
9

>  <SCORE.INTER.SOLV>
26.4016

>  <SCORE.INTER.VDW>
-28.8882

>  <SCORE.INTER.norm>
-0.705982

>  <SCORE.INTRA>
16.2676

>  <SCORE.INTRA.DIHEDRAL>
1.33143

>  <SCORE.INTRA.DIHEDRAL.0>
30.1357

>  <SCORE.INTRA.POLAR>
-0.495529

>  <SCORE.INTRA.POLAR.0>
-0.631696

>  <SCORE.INTRA.REPUL>
0.12154

>  <SCORE.INTRA.REPUL.0>
0

>  <SCORE.INTRA.SOLV>
3.81902

>  <SCORE.INTRA.SOLV.lig_0>
-55.904

>  <SCORE.INTRA.VDW>
14.7695

>  <SCORE.INTRA.VDW.0>
-8.21197

>  <SCORE.INTRA.norm>
0.387324

>  <SCORE.RESTR>
20.0642

>  <SCORE.RESTR.CAVITY>
20.0642

>  <SCORE.RESTR.norm>
0.477719

>  <SCORE.SYSTEM>
0

>  <SCORE.SYSTEM.CONST>
0

>  <SCORE.SYSTEM.DIHEDRAL>
0

>  <SCORE.SYSTEM.SOLV>
0

>  <SCORE.SYSTEM.norm>
0

>  <SCORE.heavy>
42

>  <SCORE.norm>
0.159061

>  <RMSD>
5.913

$$$$
lig.pdb
 OpenBabel11021811453D
libRbt.so/2013.1/901 2013/11/27
 42 45  0  0  0  0  0  0  0  0999 V2000
   -2.3910    1.9115    0.3792 C   0  0  2  0  0  0  0  0  0  0  0  0
   -1.5356    2.6367    1.2645 O   0  0  0  0  0  0  0  0  0  0  0  0
   -3.7815    1.7138    1.0015 C   0  0  2  0  0  0  0  0  0  0  0  0
   -4.3685    3.0046    1.4060 N   0  0  0  0  0  0  0  0  0  0  0  0
   -3.7204    0.7410    2.1862 C   0  0  1  0  0  0  0  0  0  0  0  0
   -5.0332    0.4650    2.6355 O   0  0  0  0  0  0  0  0  0  0  0  0
   -3.0409   -0.5703    1.7635 C   0  0  2  0  0  0  0  0  0  0  0  0
   -2.8520   -1.3883    2.9023 O   0  0  0  0  0  0  0  0  0  0  0  0
   -1.6846   -0.3089    1.0776 C   0  0  2  0  0  0  0  0  0  0  0  0
   -1.8118    0.6558    0.0336 O   0  0  0  0  0  0  0  0  0  0  0  0
   -1.1776   -1.6420    0.4954 C   0  0  0  0  0  0  0  0  0  0  0  0
    0.1562   -1.5220   -0.0674 O   0  0  0  0  0  0  0  0  0  0  0  0
   -0.2937    6.7526    1.0462 C   0  0  2  0  0  0  0  0  0  0  0  0
   -0.5236    8.1763    0.7289 N   0  0  0  0  0  0  0  0  0  0  0  0
   -0.4416    5.8962   -0.2138 C   0  0  0  0  0  0  0  0  0  0  0  0
   -0.3455    4.4144    0.1298 C   0  0  2  0  0  0  0  0  0  0  0  0
   -0.3898    3.6060   -1.0950 N   0  0  0  0  0  0  0  0  0  0  0  0
   -1.4976    4.0617    1.0993 C   0  0  2  0  0  0  0  0  0  0  0  0
   -1.2647    4.7769    2.3915 C   0  0  2  0  0  0  0  0  0  0  0  0
   -2.3060    4.4080    3.2770 O   0  0  0  0  0  0  0  0  0  0  0  0
   -1.2546    6.2747    2.1511 C   0  0  1  0  0  0  0  0  0  0  0  0
   -0.9541    7.0000    3.3286 O   0  0  0  0  0  0  0  0  0  0  0  0
   -2.3080    4.9891    4.5767 C   0  0  1  0  0  0  0  0  0  0  0  0
   -3.4969    4.4095    5.3461 C   0  0  2  0  0  0  0  0  0  0  0  0
   -4.0428    5.4088    6.1863 O   0  0  0  0  0  0  0  0  0  0  0  0
   -2.8538    3.2572    6.1294 C   0  0  2  0  0  0  0  0  0  0  0  0
   -3.6217    2.8654    7.2676 O   0  0  0  0  0  0  0  0  0  0  0  0
   -1.4928    3.8846    6.4555 C   0  0  2  0  0  0  0  0  0  0  0  0
   -1.1355    4.5954    5.2784 O   0  0  0  0  0  0  0  0  0  0  0  0
   -0.3895    2.8704    6.7789 C   0  0  0  0  0  0  0  0  0  0  0  0
    0.8160    3.5107    7.1394 O   0  0  0  0  0  0  0  0  0  0  0  0
   -2.9794    1.9208    8.1215 C   0  0  2  0  0  0  0  0  0  0  0  0
   -3.2703    0.4743    7.6935 C   0  0  2  0  0  0  0  0  0  0  0  0
   -2.9023    0.2584    6.2843 N   0  0  0  0  0  0  0  0  0  0  0  0
   -4.7380    0.1035    7.9545 C   0  0  1  0  0  0  0  0  0  0  0  0
   -4.9252   -1.2589    7.6235 O   0  0  0  0  0  0  0  0  0  0  0  0
   -5.0400    0.3337    9.4450 C   0  0  2  0  0  0  0  0  0  0  0  0
   -6.3965    0.0469    9.7318 O   0  0  0  0  0  0  0  0  0  0  0  0
   -4.6947    1.7781    9.8623 C   0  0  1  0  0  0  0  0  0  0  0  0
   -3.3632    2.1294    9.4788 O   0  0  0  0  0  0  0  0  0  0  0  0
   -5.7223    2.8130    9.3810 C   0  0  0  0  0  0  0  0  0  0  0  0
   -5.1381    4.1628    9.3253 N   0  0  0  0  0  0  0  0  0  0  0  0
  1  3  1  0  0  0  0
  1  2  1  1  0  0  0
  3  4  1  1  0  0  0
  5  6  1  6  0  0  0
  5  3  1  0  0  0  0
  7  9  1  0  0  0  0
  7  5  1  0  0  0  0
  7  8  1  1  0  0  0
  9 10  1  0  0  0  0
  9 11  1  6  0  0  0
 10  1  1  0  0  0  0
 11 12  1  0  0  0  0
 13 14  1  6  0  0  0
 13 21  1  0  0  0  0
 15 13  1  0  0  0  0
 16 15  1  0  0  0  0
 16 18  1  0  0  0  0
 16 17  1  6  0  0  0
 18  2  1  1  0  0  0
 18 19  1  0  0  0  0
 19 21  1  0  0  0  0
 19 20  1  1  0  0  0
 21 22  1  1  0  0  0
 23 20  1  6  0  0  0
 23 29  1  0  0  0  0
 23 24  1  0  0  0  0
 24 26  1  0  0  0  0
 24 25  1  1  0  0  0
 26 27  1  1  0  0  0
 28 26  1  0  0  0  0
 28 30  1  6  0  0  0
 29 28  1  0  0  0  0
 30 31  1  0  0  0  0
 32 27  1  6  0  0  0
 32 40  1  0  0  0  0
 32 33  1  0  0  0  0
 33 35  1  0  0  0  0
 33 34  1  6  0  0  0
 35 37  1  0  0  0  0
 35 36  1  1  0  0  0
 37 38  1  6  0  0  0
 39 37  1  0  0  0  0
 39 41  1  6  0  0  0
 40 39  1  0  0  0  0
 42 41  1  0  0  0  0
M  END
>  <CHROM.1>
-92.06160767,-92.66039050,-69.24247131,-65.04235321,175.09495067,-163.80720664
-174.76091727,171.07681793,33.26751580,-178.92361692,-178.50631422,-61.95666025
-177.16082052,-172.17842517,-88.86906342,-176.82812666,-178.65146707,176.92394877
58.20868483,64.57304293,-158.03046423,-57.65643719,-2.58101338,2.59911937
4.24731069,0.40582484,-1.16159005,-2.45268726

>  <Name>
lig.pdb

>  <RI>
0

>  <Rbt.Current_Directory>
/home/itssahil/PROJECTS/Mol_Feturizer/New_Systems/rnas/2mxs

>  <Rbt.Executable>
rbdock ($Id: //depot/dev/client3/rdock/2013.1/src/exe/rbdock.cxx#4 $)

>  <Rbt.Library>
libRbt.so (2013.1, Build901 2013/11/27)

>  <Rbt.Parameter_File>
/export/apps/rDock/src/rDock_2013.1_src/data/scripts/dock_solv.prm

>  <Rbt.Receptor>
prm/pocket_docking_7.prm

>  <SCORE>
-43.7731

>  <SCORE.INTER>
-36.4972

>  <SCORE.INTER.CONST>
1

>  <SCORE.INTER.POLAR>
-5.6856

>  <SCORE.INTER.ROT>
9

>  <SCORE.INTER.SOLV>
13.2439

>  <SCORE.INTER.VDW>
-19.3941

>  <SCORE.INTER.norm>
-0.86898

>  <SCORE.INTRA>
-7.2759

>  <SCORE.INTRA.DIHEDRAL>
-12.3609

>  <SCORE.INTRA.DIHEDRAL.0>
30.1357

>  <SCORE.INTRA.POLAR>
-1.07057

>  <SCORE.INTRA.POLAR.0>
-0.631696

>  <SCORE.INTRA.REPUL>
0

>  <SCORE.INTRA.REPUL.0>
0

>  <SCORE.INTRA.SOLV>
-0.723924

>  <SCORE.INTRA.SOLV.lig_0>
-55.904

>  <SCORE.INTRA.VDW>
2.90644

>  <SCORE.INTRA.VDW.0>
-8.21197

>  <SCORE.INTRA.norm>
-0.173236

>  <SCORE.RESTR>
0

>  <SCORE.RESTR.CAVITY>
0

>  <SCORE.RESTR.norm>
0

>  <SCORE.SYSTEM>
0

>  <SCORE.SYSTEM.CONST>
0

>  <SCORE.SYSTEM.DIHEDRAL>
0

>  <SCORE.SYSTEM.SOLV>
0

>  <SCORE.SYSTEM.norm>
0

>  <SCORE.heavy>
42

>  <SCORE.norm>
-1.04222

>  <RMSD>
5.931

$$$$
lig.pdb
 OpenBabel11021811453D
libRbt.so/2013.1/901 2013/11/27
 42 45  0  0  0  0  0  0  0  0999 V2000
   -1.2997    0.1816    2.2603 C   0  0  2  0  0  0  0  0  0  0  0  0
   -0.6002    1.1452    1.4706 O   0  0  0  0  0  0  0  0  0  0  0  0
   -0.9254   -1.2472    1.8383 C   0  0  2  0  0  0  0  0  0  0  0  0
    0.5348   -1.4472    1.8846 N   0  0  0  0  0  0  0  0  0  0  0  0
   -1.4822   -1.5731    0.4464 C   0  0  1  0  0  0  0  0  0  0  0  0
   -1.2517   -2.9385    0.1562 O   0  0  0  0  0  0  0  0  0  0  0  0
   -2.9912   -1.2901    0.3973 C   0  0  2  0  0  0  0  0  0  0  0  0
   -3.4538   -1.4444   -0.9308 O   0  0  0  0  0  0  0  0  0  0  0  0
   -3.3169    0.1303    0.9019 C   0  0  2  0  0  0  0  0  0  0  0  0
   -2.7082    0.3803    2.1684 O   0  0  0  0  0  0  0  0  0  0  0  0
   -4.8474    0.2551    1.0266 C   0  0  0  0  0  0  0  0  0  0  0  0
   -5.2593    1.5990    1.3935 O   0  0  0  0  0  0  0  0  0  0  0  0
   -0.7255    5.4477    1.5332 C   0  0  2  0  0  0  0  0  0  0  0  0
   -1.4291    6.7366    1.6880 N   0  0  0  0  0  0  0  0  0  0  0  0
   -1.3274    4.6490    0.3744 C   0  0  0  0  0  0  0  0  0  0  0  0
   -0.7023    3.2611    0.2971 C   0  0  2  0  0  0  0  0  0  0  0  0
   -1.2137    2.5393   -0.8747 N   0  0  0  0  0  0  0  0  0  0  0  0
   -1.0063    2.5138    1.6165 C   0  0  2  0  0  0  0  0  0  0  0  0
   -0.2845    3.2045    2.7289 C   0  0  2  0  0  0  0  0  0  0  0  0
   -0.5421    2.4813    3.9185 O   0  0  0  0  0  0  0  0  0  0  0  0
   -0.7720    4.6367    2.8418 C   0  0  1  0  0  0  0  0  0  0  0  0
   -0.0614    5.3639    3.8263 O   0  0  0  0  0  0  0  0  0  0  0  0
    0.5118    2.3724    4.8695 C   0  0  1  0  0  0  0  0  0  0  0  0
    0.1652    3.2734    6.0567 C   0  0  2  0  0  0  0  0  0  0  0  0
    1.3517    3.8507    6.5682 O   0  0  0  0  0  0  0  0  0  0  0  0
   -0.4911    2.2915    7.0366 C   0  0  2  0  0  0  0  0  0  0  0  0
   -0.4709    2.7593    8.3855 O   0  0  0  0  0  0  0  0  0  0  0  0
    0.3619    1.0442    6.7743 C   0  0  2  0  0  0  0  0  0  0  0  0
    0.5696    1.0421    5.3689 O   0  0  0  0  0  0  0  0  0  0  0  0
   -0.3043   -0.2753    7.1811 C   0  0  0  0  0  0  0  0  0  0  0  0
    0.3156   -0.8427    8.3155 O   0  0  0  0  0  0  0  0  0  0  0  0
   -1.3824    3.8213    8.6600 C   0  0  2  0  0  0  0  0  0  0  0  0
   -0.7767    4.8603    9.6159 C   0  0  2  0  0  0  0  0  0  0  0  0
    0.5011    5.3734    9.0943 N   0  0  0  0  0  0  0  0  0  0  0  0
   -0.6159    4.2846   11.0309 C   0  0  1  0  0  0  0  0  0  0  0  0
   -0.1375    5.3073   11.8828 O   0  0  0  0  0  0  0  0  0  0  0  0
   -1.9903    3.7912   11.5142 C   0  0  2  0  0  0  0  0  0  0  0  0
   -1.8900    3.2098   12.8012 O   0  0  0  0  0  0  0  0  0  0  0  0
   -2.5996    2.7864   10.5148 C   0  0  1  0  0  0  0  0  0  0  0  0
   -2.6055    3.3096    9.1846 O   0  0  0  0  0  0  0  0  0  0  0  0
   -1.9538    1.3945   10.5809 C   0  0  0  0  0  0  0  0  0  0  0  0
   -2.1445    0.7771   11.9033 N   0  0  0  0  0  0  0  0  0  0  0  0
  1  3  1  0  0  0  0
  1  2  1  6  0  0  0
  3  4  1  6  0  0  0
  5  6  1  1  0  0  0
  5  3  1  0  0  0  0
  7  9  1  0  0  0  0
  7  5  1  0  0  0  0
  7  8  1  6  0  0  0
  9 10  1  0  0  0  0
  9 11  1  1  0  0  0
 10  1  1  0  0  0  0
 11 12  1  0  0  0  0
 13 14  1  1  0  0  0
 13 21  1  0  0  0  0
 15 13  1  0  0  0  0
 16 15  1  0  0  0  0
 16 18  1  0  0  0  0
 16 17  1  6  0  0  0
 18  2  1  6  0  0  0
 18 19  1  0  0  0  0
 19 21  1  0  0  0  0
 19 20  1  1  0  0  0
 21 22  1  1  0  0  0
 23 20  1  6  0  0  0
 23 29  1  0  0  0  0
 23 24  1  0  0  0  0
 24 26  1  0  0  0  0
 24 25  1  1  0  0  0
 26 27  1  1  0  0  0
 28 26  1  0  0  0  0
 28 30  1  6  0  0  0
 29 28  1  0  0  0  0
 30 31  1  0  0  0  0
 32 27  1  1  0  0  0
 32 40  1  0  0  0  0
 32 33  1  0  0  0  0
 33 35  1  0  0  0  0
 33 34  1  6  0  0  0
 35 37  1  0  0  0  0
 35 36  1  1  0  0  0
 37 38  1  1  0  0  0
 39 37  1  0  0  0  0
 39 41  1  6  0  0  0
 40 39  1  0  0  0  0
 42 41  1  0  0  0  0
M  END
>  <CHROM.1>
-152.40387851,170.71413236,120.03297504,176.89803003,170.67785846,178.75531764
-175.32619224,-165.35083112,15.49275880,143.53914298,107.25938844,55.87020854
59.60722180,73.23233961,-141.45980955,-109.42596203,-65.72316293,133.76531017
-61.57390720,169.87350102,61.95152839,62.97050117,-1.16911917,2.11374948
4.97995083,2.07801128,-1.37929062,-1.33629870

>  <Name>
lig.pdb

>  <RI>
0

>  <Rbt.Current_Directory>
/home/itssahil/PROJECTS/Mol_Feturizer/New_Systems/rnas/2mxs

>  <Rbt.Executable>
rbdock ($Id: //depot/dev/client3/rdock/2013.1/src/exe/rbdock.cxx#4 $)

>  <Rbt.Library>
libRbt.so (2013.1, Build901 2013/11/27)

>  <Rbt.Parameter_File>
/export/apps/rDock/src/rDock_2013.1_src/data/scripts/dock_solv.prm

>  <Rbt.Receptor>
prm/pocket_docking_7.prm

>  <SCORE>
-27.6729

>  <SCORE.INTER>
-32.751

>  <SCORE.INTER.CONST>
1

>  <SCORE.INTER.POLAR>
-6.40489

>  <SCORE.INTER.ROT>
9

>  <SCORE.INTER.SOLV>
17.6255

>  <SCORE.INTER.VDW>
-15.9595

>  <SCORE.INTER.norm>
-0.779786

>  <SCORE.INTRA>
5.07814

>  <SCORE.INTRA.DIHEDRAL>
7.69549

>  <SCORE.INTRA.DIHEDRAL.0>
30.1357

>  <SCORE.INTRA.POLAR>
-0.687312

>  <SCORE.INTRA.POLAR.0>
-0.631696

>  <SCORE.INTRA.REPUL>
0

>  <SCORE.INTRA.REPUL.0>
0

>  <SCORE.INTRA.SOLV>
-0.492339

>  <SCORE.INTRA.SOLV.lig_0>
-55.904

>  <SCORE.INTRA.VDW>
3.81343

>  <SCORE.INTRA.VDW.0>
-8.21197

>  <SCORE.INTRA.norm>
0.120908

>  <SCORE.RESTR>
0

>  <SCORE.RESTR.CAVITY>
0

>  <SCORE.RESTR.norm>
0

>  <SCORE.SYSTEM>
0

>  <SCORE.SYSTEM.CONST>
0

>  <SCORE.SYSTEM.DIHEDRAL>
0

>  <SCORE.SYSTEM.SOLV>
0

>  <SCORE.SYSTEM.norm>
0

>  <SCORE.heavy>
42

>  <SCORE.norm>
-0.658878

>  <RMSD>
5.936

$$$$
lig.pdb
 OpenBabel11021811453D
libRbt.so/2013.1/901 2013/11/27
 42 45  0  0  0  0  0  0  0  0999 V2000
   -1.5025   -0.0882    2.8009 C   0  0  2  0  0  0  0  0  0  0  0  0
   -0.5311    0.2355    1.8045 O   0  0  0  0  0  0  0  0  0  0  0  0
   -1.1510   -1.4110    3.4983 C   0  0  2  0  0  0  0  0  0  0  0  0
    0.2163   -1.3718    4.0491 N   0  0  0  0  0  0  0  0  0  0  0  0
   -1.3265   -2.5993    2.5440 C   0  0  1  0  0  0  0  0  0  0  0  0
   -1.1436   -3.8066    3.2586 O   0  0  0  0  0  0  0  0  0  0  0  0
   -2.7325   -2.5820    1.9255 C   0  0  2  0  0  0  0  0  0  0  0  0
   -2.8207   -3.5875    0.9343 O   0  0  0  0  0  0  0  0  0  0  0  0
   -3.0611   -1.2083    1.3065 C   0  0  2  0  0  0  0  0  0  0  0  0
   -2.8077   -0.1515    2.2316 O   0  0  0  0  0  0  0  0  0  0  0  0
   -4.5494   -1.2059    0.9087 C   0  0  0  0  0  0  0  0  0  0  0  0
   -4.8286   -2.1335   -0.1739 O   0  0  0  0  0  0  0  0  0  0  0  0
    0.0571    3.7344   -0.6333 C   0  0  2  0  0  0  0  0  0  0  0  0
   -0.3826    5.0228   -1.2052 N   0  0  0  0  0  0  0  0  0  0  0  0
   -0.8873    2.6103   -1.0661 C   0  0  0  0  0  0  0  0  0  0  0  0
   -0.5238    1.3051   -0.3682 C   0  0  2  0  0  0  0  0  0  0  0  0
   -1.3710    0.2126   -0.8628 N   0  0  0  0  0  0  0  0  0  0  0  0
   -0.6723    1.5087    1.1576 C   0  0  2  0  0  0  0  0  0  0  0  0
    0.3611    2.4914    1.6069 C   0  0  2  0  0  0  0  0  0  0  0  0
    0.2352    2.6314    3.0101 O   0  0  0  0  0  0  0  0  0  0  0  0
    0.1449    3.8173    0.9022 C   0  0  1  0  0  0  0  0  0  0  0  0
    1.1476    4.7617    1.2274 O   0  0  0  0  0  0  0  0  0  0  0  0
   -0.9802    3.1735    3.5159 C   0  0  1  0  0  0  0  0  0  0  0  0
   -0.7229    3.6395    4.9505 C   0  0  2  0  0  0  0  0  0  0  0  0
   -1.8788    3.4059    5.7329 O   0  0  0  0  0  0  0  0  0  0  0  0
   -0.4203    5.1324    4.7639 C   0  0  2  0  0  0  0  0  0  0  0  0
   -0.6164    5.8902    5.9581 O   0  0  0  0  0  0  0  0  0  0  0  0
   -1.3941    5.4607    3.6254 C   0  0  2  0  0  0  0  0  0  0  0  0
   -1.3360    4.3294    2.7680 O   0  0  0  0  0  0  0  0  0  0  0  0
   -1.0286    6.7140    2.8216 C   0  0  0  0  0  0  0  0  0  0  0  0
   -0.9859    6.4487    1.4356 O   0  0  0  0  0  0  0  0  0  0  0  0
    0.0168    7.1681    5.9619 C   0  0  2  0  0  0  0  0  0  0  0  0
    1.2845    7.1742    6.8297 C   0  0  2  0  0  0  0  0  0  0  0  0
    2.2171    6.1162    6.4065 N   0  0  0  0  0  0  0  0  0  0  0  0
    0.9361    7.0532    8.3209 C   0  0  1  0  0  0  0  0  0  0  0  0
    2.1301    7.1511    9.0729 O   0  0  0  0  0  0  0  0  0  0  0  0
   -0.0198    8.1998    8.6916 C   0  0  2  0  0  0  0  0  0  0  0  0
   -0.4076    8.1098   10.0502 O   0  0  0  0  0  0  0  0  0  0  0  0
   -1.2611    8.2025    7.7758 C   0  0  1  0  0  0  0  0  0  0  0  0
   -0.8926    8.1773    6.3949 O   0  0  0  0  0  0  0  0  0  0  0  0
   -2.2736    7.1000    8.1195 C   0  0  0  0  0  0  0  0  0  0  0  0
   -3.5652    7.3314    7.4528 N   0  0  0  0  0  0  0  0  0  0  0  0
  1  3  1  0  0  0  0
  1  2  1  6  0  0  0
  3  4  1  6  0  0  0
  5  6  1  1  0  0  0
  5  3  1  0  0  0  0
  7  9  1  0  0  0  0
  7  5  1  0  0  0  0
  7  8  1  6  0  0  0
  9 10  1  0  0  0  0
  9 11  1  1  0  0  0
 10  1  1  0  0  0  0
 11 12  1  0  0  0  0
 13 14  1  1  0  0  0
 13 21  1  0  0  0  0
 15 13  1  0  0  0  0
 16 15  1  0  0  0  0
 16 18  1  0  0  0  0
 16 17  1  6  0  0  0
 18  2  1  1  0  0  0
 18 19  1  0  0  0  0
 19 21  1  0  0  0  0
 19 20  1  1  0  0  0
 21 22  1  6  0  0  0
 23 20  1  6  0  0  0
 23 29  1  0  0  0  0
 23 24  1  0  0  0  0
 24 26  1  0  0  0  0
 24 25  1  1  0  0  0
 26 27  1  1  0  0  0
 28 26  1  0  0  0  0
 28 30  1  6  0  0  0
 29 28  1  0  0  0  0
 30 31  1  0  0  0  0
 32 27  1  1  0  0  0
 32 40  1  0  0  0  0
 32 33  1  0  0  0  0
 33 35  1  0  0  0  0
 33 34  1  6  0  0  0
 35 37  1  0  0  0  0
 35 36  1  1  0  0  0
 37 38  1  1  0  0  0
 39 37  1  0  0  0  0
 39 41  1  1  0  0  0
 40 39  1  0  0  0  0
 42 41  1  0  0  0  0
M  END
>  <CHROM.1>
-133.27065979,-174.56258846,136.14678184,-69.21794626,-170.30066320,-168.49725118
-66.86415909,23.79081546,65.28572468,-63.73489531,-162.15678517,83.28351922
-178.41820592,162.08503778,-104.15692122,127.65726896,69.39359185,166.68185214
62.65524695,67.80408828,166.37880316,51.82235705,-0.94431727,3.18571036,3.56354951
2.35113089,-1.32348704,-1.74230006

>  <Name>
lig.pdb

>  <RI>
0

>  <Rbt.Current_Directory>
/home/itssahil/PROJECTS/Mol_Feturizer/New_Systems/rnas/2mxs

>  <Rbt.Executable>
rbdock ($Id: //depot/dev/client3/rdock/2013.1/src/exe/rbdock.cxx#4 $)

>  <Rbt.Library>
libRbt.so (2013.1, Build901 2013/11/27)

>  <Rbt.Parameter_File>
/export/apps/rDock/src/rDock_2013.1_src/data/scripts/dock_solv.prm

>  <Rbt.Receptor>
prm/pocket_docking_7.prm

>  <SCORE>
-34.2641

>  <SCORE.INTER>
-36.952

>  <SCORE.INTER.CONST>
1

>  <SCORE.INTER.POLAR>
-5.32624

>  <SCORE.INTER.ROT>
9

>  <SCORE.INTER.SOLV>
16.2607

>  <SCORE.INTER.VDW>
-21.9008

>  <SCORE.INTER.norm>
-0.87981

>  <SCORE.INTRA>
2.68793

>  <SCORE.INTRA.DIHEDRAL>
2.44513

>  <SCORE.INTRA.DIHEDRAL.0>
30.1357

>  <SCORE.INTRA.POLAR>
-1.57626

>  <SCORE.INTRA.POLAR.0>
-0.631696

>  <SCORE.INTRA.REPUL>
0

>  <SCORE.INTRA.REPUL.0>
0

>  <SCORE.INTRA.SOLV>
1.71322

>  <SCORE.INTRA.SOLV.lig_0>
-55.904

>  <SCORE.INTRA.VDW>
5.96805

>  <SCORE.INTRA.VDW.0>
-8.21197

>  <SCORE.INTRA.norm>
0.0639982

>  <SCORE.RESTR>
0

>  <SCORE.RESTR.CAVITY>
0

>  <SCORE.RESTR.norm>
0

>  <SCORE.SYSTEM>
0

>  <SCORE.SYSTEM.CONST>
0

>  <SCORE.SYSTEM.DIHEDRAL>
0

>  <SCORE.SYSTEM.SOLV>
0

>  <SCORE.SYSTEM.norm>
0

>  <SCORE.heavy>
42

>  <SCORE.norm>
-0.815812

>  <RMSD>
5.940

$$$$
lig.pdb
 OpenBabel11021811453D
libRbt.so/2013.1/901 2013/11/27
 42 45  0  0  0  0  0  0  0  0999 V2000
    0.8002    1.2038    2.2458 C   0  0  2  0  0  0  0  0  0  0  0  0
    1.4080    2.3369    1.6228 O   0  0  0  0  0  0  0  0  0  0  0  0
    1.6013   -0.0747    1.9569 C   0  0  2  0  0  0  0  0  0  0  0  0
    3.0129    0.0846    2.3525 N   0  0  0  0  0  0  0  0  0  0  0  0
    1.4848   -0.4748    0.4804 C   0  0  1  0  0  0  0  0  0  0  0  0
    2.1041   -1.7316    0.2841 O   0  0  0  0  0  0  0  0  0  0  0  0
    0.0077   -0.5654    0.0686 C   0  0  2  0  0  0  0  0  0  0  0  0
   -0.0772   -0.7786   -1.3274 O   0  0  0  0  0  0  0  0  0  0  0  0
   -0.7651    0.7137    0.4494 C   0  0  2  0  0  0  0  0  0  0  0  0
   -0.5516    1.0574    1.8181 O   0  0  0  0  0  0  0  0  0  0  0  0
   -2.2645    0.4581    0.2049 C   0  0  0  0  0  0  0  0  0  0  0  0
   -3.0746    1.6275    0.4988 O   0  0  0  0  0  0  0  0  0  0  0  0
   -0.0430    6.3896    1.6479 C   0  0  2  0  0  0  0  0  0  0  0  0
   -1.0553    7.4215    1.3465 N   0  0  0  0  0  0  0  0  0  0  0  0
    0.4369    5.7222    0.3566 C   0  0  0  0  0  0  0  0  0  0  0  0
    1.3752    4.5623    0.6685 C   0  0  2  0  0  0  0  0  0  0  0  0
    1.9067    3.9917   -0.5756 N   0  0  0  0  0  0  0  0  0  0  0  0
    0.5987    3.5156    1.5010 C   0  0  2  0  0  0  0  0  0  0  0  0
    0.2688    4.1174    2.8293 C   0  0  2  0  0  0  0  0  0  0  0  0
   -0.4037    3.1305    3.5897 O   0  0  0  0  0  0  0  0  0  0  0  0
   -0.6012    5.3443    2.6318 C   0  0  1  0  0  0  0  0  0  0  0  0
   -0.8752    6.0039    3.8536 O   0  0  0  0  0  0  0  0  0  0  0  0
    0.1333    2.7959    4.8650 C   0  0  1  0  0  0  0  0  0  0  0  0
   -0.9973    2.9016    5.8907 C   0  0  2  0  0  0  0  0  0  0  0  0
   -0.4768    3.3909    7.1124 O   0  0  0  0  0  0  0  0  0  0  0  0
   -1.4902    1.4517    5.9901 C   0  0  2  0  0  0  0  0  0  0  0  0
   -2.1982    1.1899    7.2021 O   0  0  0  0  0  0  0  0  0  0  0  0
   -0.1567    0.7075    5.8493 C   0  0  2  0  0  0  0  0  0  0  0  0
    0.5588    1.4390    4.8637 O   0  0  0  0  0  0  0  0  0  0  0  0
   -0.2901   -0.7489    5.3891 C   0  0  0  0  0  0  0  0  0  0  0  0
   -1.0867   -0.8566    4.2285 O   0  0  0  0  0  0  0  0  0  0  0  0
   -3.4946    1.7800    7.2726 C   0  0  2  0  0  0  0  0  0  0  0  0
   -3.9855    1.9077    8.7227 C   0  0  2  0  0  0  0  0  0  0  0  0
   -3.0144    2.6501    9.5436 N   0  0  0  0  0  0  0  0  0  0  0  0
   -4.2950    0.5296    9.3266 C   0  0  1  0  0  0  0  0  0  0  0  0
   -4.8222    0.7142   10.6261 O   0  0  0  0  0  0  0  0  0  0  0  0
   -5.3281   -0.1734    8.4298 C   0  0  2  0  0  0  0  0  0  0  0  0
   -5.6174   -1.4699    8.9196 O   0  0  0  0  0  0  0  0  0  0  0  0
   -4.8343   -0.2465    6.9702 C   0  0  1  0  0  0  0  0  0  0  0  0
   -4.4272    1.0370    6.4906 O   0  0  0  0  0  0  0  0  0  0  0  0
   -3.7514   -1.3124    6.7466 C   0  0  0  0  0  0  0  0  0  0  0  0
   -3.6246   -1.6572    5.3213 N   0  0  0  0  0  0  0  0  0  0  0  0
  1  3  1  0  0  0  0
  1  2  1  6  0  0  0
  3  4  1  6  0  0  0
  5  6  1  1  0  0  0
  5  3  1  0  0  0  0
  7  9  1  0  0  0  0
  7  5  1  0  0  0  0
  7  8  1  6  0  0  0
  9 10  1  0  0  0  0
  9 11  1  1  0  0  0
 10  1  1  0  0  0  0
 11 12  1  0  0  0  0
 13 14  1  6  0  0  0
 13 21  1  0  0  0  0
 15 13  1  0  0  0  0
 16 15  1  0  0  0  0
 16 18  1  0  0  0  0
 16 17  1  6  0  0  0
 18  2  1  1  0  0  0
 18 19  1  0  0  0  0
 19 21  1  0  0  0  0
 19 20  1  1  0  0  0
 21 22  1  1  0  0  0
 23 20  1  6  0  0  0
 23 29  1  0  0  0  0
 23 24  1  0  0  0  0
 24 26  1  0  0  0  0
 24 25  1  1  0  0  0
 26 27  1  1  0  0  0
 28 26  1  0  0  0  0
 28 30  1  6  0  0  0
 29 28  1  0  0  0  0
 30 31  1  0  0  0  0
 32 27  1  1  0  0  0
 32 40  1  0  0  0  0
 32 33  1  0  0  0  0
 33 35  1  0  0  0  0
 33 34  1  1  0  0  0
 35 37  1  0  0  0  0
 35 36  1  1  0  0  0
 37 38  1  1  0  0  0
 39 37  1  0  0  0  0
 39 41  1  1  0  0  0
 40 39  1  0  0  0  0
 42 41  1  0  0  0  0
M  END
>  <CHROM.1>
-173.76857688,163.80681343,16.23778007,-149.01255963,48.73612204,-66.67091653
-178.25817994,27.39841616,-174.42100688,124.48421696,128.15080211,176.57389484
73.14511494,72.11794806,-159.32340235,51.23496453,55.21460078,-64.03134246
59.48963605,-50.81503137,161.43889629,-24.43643347,-1.14474712,1.65277054
4.00649878,-0.06170452,-1.03206782,-2.95605433

>  <Name>
lig.pdb

>  <RI>
0

>  <Rbt.Current_Directory>
/home/itssahil/PROJECTS/Mol_Feturizer/New_Systems/rnas/2mxs

>  <Rbt.Executable>
rbdock ($Id: //depot/dev/client3/rdock/2013.1/src/exe/rbdock.cxx#4 $)

>  <Rbt.Library>
libRbt.so (2013.1, Build901 2013/11/27)

>  <Rbt.Parameter_File>
/export/apps/rDock/src/rDock_2013.1_src/data/scripts/dock_solv.prm

>  <Rbt.Receptor>
prm/pocket_docking_7.prm

>  <SCORE>
-35.0815

>  <SCORE.INTER>
-36.0858

>  <SCORE.INTER.CONST>
1

>  <SCORE.INTER.POLAR>
-4.55017

>  <SCORE.INTER.ROT>
9

>  <SCORE.INTER.SOLV>
17.839

>  <SCORE.INTER.VDW>
-24.4363

>  <SCORE.INTER.norm>
-0.859185

>  <SCORE.INTRA>
1.00424

>  <SCORE.INTRA.DIHEDRAL>
3.39433

>  <SCORE.INTRA.DIHEDRAL.0>
30.1357

>  <SCORE.INTRA.POLAR>
-1.23259

>  <SCORE.INTRA.POLAR.0>
-0.631696

>  <SCORE.INTRA.REPUL>
0

>  <SCORE.INTRA.REPUL.0>
0

>  <SCORE.INTRA.SOLV>
1.03275

>  <SCORE.INTRA.SOLV.lig_0>
-55.904

>  <SCORE.INTRA.VDW>
2.98152

>  <SCORE.INTRA.VDW.0>
-8.21197

>  <SCORE.INTRA.norm>
0.0239106

>  <SCORE.RESTR>
0

>  <SCORE.RESTR.CAVITY>
0

>  <SCORE.RESTR.norm>
0

>  <SCORE.SYSTEM>
0

>  <SCORE.SYSTEM.CONST>
0

>  <SCORE.SYSTEM.DIHEDRAL>
0

>  <SCORE.SYSTEM.SOLV>
0

>  <SCORE.SYSTEM.norm>
0

>  <SCORE.heavy>
42

>  <SCORE.norm>
-0.835274

>  <RMSD>
5.947

$$$$
lig.pdb
 OpenBabel11021811453D
libRbt.so/2013.1/901 2013/11/27
 42 45  0  0  0  0  0  0  0  0999 V2000
    0.9681    1.3896    1.4610 C   0  0  2  0  0  0  0  0  0  0  0  0
    1.7033    2.2887    0.6288 O   0  0  0  0  0  0  0  0  0  0  0  0
    1.5705   -0.0225    1.4070 C   0  0  2  0  0  0  0  0  0  0  0  0
    3.0049    0.0009    1.7478 N   0  0  0  0  0  0  0  0  0  0  0  0
    1.3410   -0.6660    0.0334 C   0  0  1  0  0  0  0  0  0  0  0  0
    1.7703   -2.0137    0.0686 O   0  0  0  0  0  0  0  0  0  0  0  0
   -0.1494   -0.6161   -0.3354 C   0  0  2  0  0  0  0  0  0  0  0  0
   -0.3182   -1.0677   -1.6654 O   0  0  0  0  0  0  0  0  0  0  0  0
   -0.7200    0.8094   -0.1916 C   0  0  2  0  0  0  0  0  0  0  0  0
   -0.4068    1.3643    1.0855 O   0  0  0  0  0  0  0  0  0  0  0  0
   -2.2489    0.7329   -0.3648 C   0  0  0  0  0  0  0  0  0  0  0  0
   -2.8761    2.0404   -0.2782 O   0  0  0  0  0  0  0  0  0  0  0  0
    0.7173    6.4138   -0.1077 C   0  0  2  0  0  0  0  0  0  0  0  0
   -0.1495    7.4771   -0.6538 N   0  0  0  0  0  0  0  0  0  0  0  0
    1.2081    5.4980   -1.2318 C   0  0  0  0  0  0  0  0  0  0  0  0
    1.9865    4.3181   -0.6618 C   0  0  2  0  0  0  0  0  0  0  0  0
    2.5361    3.5000   -1.7501 N   0  0  0  0  0  0  0  0  0  0  0  0
    1.0416    3.5056    0.2539 C   0  0  2  0  0  0  0  0  0  0  0  0
    0.6896    4.3482    1.4379 C   0  0  2  0  0  0  0  0  0  0  0  0
   -0.1406    3.5721    2.2822 O   0  0  0  0  0  0  0  0  0  0  0  0
   -0.0217    5.6059    0.9757 C   0  0  1  0  0  0  0  0  0  0  0  0
   -0.3044    6.4821    2.0505 O   0  0  0  0  0  0  0  0  0  0  0  0
   -0.0609    3.8032    3.6848 C   0  0  1  0  0  0  0  0  0  0  0  0
   -1.4283    4.3043    4.1545 C   0  0  2  0  0  0  0  0  0  0  0  0
   -1.2486    5.2630    5.1798 O   0  0  0  0  0  0  0  0  0  0  0  0
   -2.0990    3.0169    4.6523 C   0  0  2  0  0  0  0  0  0  0  0  0
   -3.1679    3.2672    5.5653 O   0  0  0  0  0  0  0  0  0  0  0  0
   -0.8856    2.3032    5.2610 C   0  0  2  0  0  0  0  0  0  0  0  0
    0.1781    2.5743    4.3591 O   0  0  0  0  0  0  0  0  0  0  0  0
   -1.0474    0.7849    5.3982 C   0  0  0  0  0  0  0  0  0  0  0  0
   -0.7746    0.1208    4.1825 O   0  0  0  0  0  0  0  0  0  0  0  0
   -3.9776    2.1304    5.8586 C   0  0  2  0  0  0  0  0  0  0  0  0
   -5.2571    2.1064    5.0087 C   0  0  2  0  0  0  0  0  0  0  0  0
   -4.9369    2.1791    3.5734 N   0  0  0  0  0  0  0  0  0  0  0  0
   -6.2216    3.2264    5.4271 C   0  0  1  0  0  0  0  0  0  0  0  0
   -7.4120    3.1021    4.6733 O   0  0  0  0  0  0  0  0  0  0  0  0
   -6.5249    3.0718    6.9271 C   0  0  2  0  0  0  0  0  0  0  0  0
   -7.3788    4.1084    7.3753 O   0  0  0  0  0  0  0  0  0  0  0  0
   -5.2234    3.0500    7.7548 C   0  0  1  0  0  0  0  0  0  0  0  0
   -4.2968    2.0869    7.2476 O   0  0  0  0  0  0  0  0  0  0  0  0
   -4.5804    4.4355    7.9150 C   0  0  0  0  0  0  0  0  0  0  0  0
   -5.4142    5.3209    8.7441 N   0  0  0  0  0  0  0  0  0  0  0  0
  1  3  1  0  0  0  0
  1  2  1  6  0  0  0
  3  4  1  6  0  0  0
  5  6  1  1  0  0  0
  5  3  1  0  0  0  0
  7  9  1  0  0  0  0
  7  5  1  0  0  0  0
  7  8  1  6  0  0  0
  9 10  1  0  0  0  0
  9 11  1  1  0  0  0
 10  1  1  0  0  0  0
 11 12  1  0  0  0  0
 13 14  1  6  0  0  0
 13 21  1  0  0  0  0
 15 13  1  0  0  0  0
 16 15  1  0  0  0  0
 16 18  1  0  0  0  0
 16 17  1  6  0  0  0
 18  2  1  1  0  0  0
 18 19  1  0  0  0  0
 19 21  1  0  0  0  0
 19 20  1  1  0  0  0
 21 22  1  1  0  0  0
 23 20  1  6  0  0  0
 23 29  1  0  0  0  0
 23 24  1  0  0  0  0
 24 26  1  0  0  0  0
 24 25  1  1  0  0  0
 26 27  1  1  0  0  0
 28 26  1  0  0  0  0
 28 30  1  6  0  0  0
 29 28  1  0  0  0  0
 30 31  1  0  0  0  0
 32 27  1  1  0  0  0
 32 40  1  0  0  0  0
 32 33  1  0  0  0  0
 33 35  1  0  0  0  0
 33 34  1  6  0  0  0
 35 37  1  0  0  0  0
 35 36  1  6  0  0  0
 37 38  1  1  0  0  0
 39 37  1  0  0  0  0
 39 41  1  6  0  0  0
 40 39  1  0  0  0  0
 42 41  1  0  0  0  0
M  END
>  <CHROM.1>
-178.84186408,161.37259304,-81.80266955,-94.45237522,-57.74521582,-168.86688433
-178.56384678,95.94171661,62.59303426,148.31375487,117.20881466,-52.97964537
-64.11487970,168.80690815,-97.64057932,81.71043700,174.80113792,-44.40404992
-171.87440049,62.39307245,67.39847456,73.61781278,-1.46059137,2.74532726
2.83163054,0.16699099,-0.81409612,-3.12397342

>  <Name>
lig.pdb

>  <RI>
4.11275e+07

>  <Rbt.Current_Directory>
/home/itssahil/PROJECTS/Mol_Feturizer/New_Systems/rnas/2mxs

>  <Rbt.Executable>
rbdock ($Id: //depot/dev/client3/rdock/2013.1/src/exe/rbdock.cxx#4 $)

>  <Rbt.Library>
libRbt.so (2013.1, Build901 2013/11/27)

>  <Rbt.Parameter_File>
/export/apps/rDock/src/rDock_2013.1_src/data/scripts/dock_solv.prm

>  <Rbt.Receptor>
prm/pocket_docking_8.prm

>  <SCORE>
-35.5146

>  <SCORE.INTER>
-40.1021

>  <SCORE.INTER.CONST>
1

>  <SCORE.INTER.POLAR>
-5.56308

>  <SCORE.INTER.ROT>
9

>  <SCORE.INTER.SOLV>
17.6923

>  <SCORE.INTER.VDW>
-23.6886

>  <SCORE.INTER.norm>
-0.954813

>  <SCORE.INTRA>
4.58755

>  <SCORE.INTRA.DIHEDRAL>
0.700719

>  <SCORE.INTRA.DIHEDRAL.0>
30.1357

>  <SCORE.INTRA.POLAR>
-0.121947

>  <SCORE.INTRA.POLAR.0>
-0.631696

>  <SCORE.INTRA.REPUL>
0.119738

>  <SCORE.INTRA.REPUL.0>
0

>  <SCORE.INTRA.SOLV>
0.107007

>  <SCORE.INTRA.SOLV.lig_0>
-55.904

>  <SCORE.INTRA.VDW>
3.99961

>  <SCORE.INTRA.VDW.0>
-8.21197

>  <SCORE.INTRA.norm>
0.109227

>  <SCORE.RESTR>
0

>  <SCORE.RESTR.CAVITY>
0

>  <SCORE.RESTR.norm>
0

>  <SCORE.SYSTEM>
0

>  <SCORE.SYSTEM.CONST>
0

>  <SCORE.SYSTEM.DIHEDRAL>
0

>  <SCORE.SYSTEM.SOLV>
0

>  <SCORE.SYSTEM.norm>
0

>  <SCORE.heavy>
42

>  <SCORE.norm>
-0.845586

>  <RMSD>
5.955

$$$$
lig.pdb
 OpenBabel11021811453D
libRbt.so/2013.1/901 2013/11/27
 42 45  0  0  0  0  0  0  0  0999 V2000
   -1.1703    4.4083    1.5286 C   0  0  2  0  0  0  0  0  0  0  0  0
   -0.8603    4.8016    0.1905 O   0  0  0  0  0  0  0  0  0  0  0  0
   -2.6891    4.4004    1.7586 C   0  0  2  0  0  0  0  0  0  0  0  0
   -3.3710    3.5558    0.7606 N   0  0  0  0  0  0  0  0  0  0  0  0
   -3.2539    5.8268    1.7513 C   0  0  1  0  0  0  0  0  0  0  0  0
   -4.6203    5.7927    2.1162 O   0  0  0  0  0  0  0  0  0  0  0  0
   -2.4835    6.7092    2.7451 C   0  0  2  0  0  0  0  0  0  0  0  0
   -2.9113    8.0509    2.6094 O   0  0  0  0  0  0  0  0  0  0  0  0
   -0.9608    6.6211    2.5171 C   0  0  2  0  0  0  0  0  0  0  0  0
   -0.5240    5.2632    2.4685 O   0  0  0  0  0  0  0  0  0  0  0  0
   -0.2597    7.3519    3.6780 C   0  0  0  0  0  0  0  0  0  0  0  0
   -0.1145    6.5058    4.8499 O   0  0  0  0  0  0  0  0  0  0  0  0
    2.8803    5.1368   -1.9135 C   0  0  2  0  0  0  0  0  0  0  0  0
    4.3481    5.2902   -1.9618 N   0  0  0  0  0  0  0  0  0  0  0  0
    2.2414    6.3453   -1.2248 C   0  0  0  0  0  0  0  0  0  0  0  0
    0.7433    6.1309   -1.0448 C   0  0  2  0  0  0  0  0  0  0  0  0
    0.1240    7.3334   -0.4738 N   0  0  0  0  0  0  0  0  0  0  0  0
    0.5313    4.8884   -0.1488 C   0  0  2  0  0  0  0  0  0  0  0  0
    1.0109    3.6822   -0.8909 C   0  0  2  0  0  0  0  0  0  0  0  0
    0.7698    2.5532   -0.0713 O   0  0  0  0  0  0  0  0  0  0  0  0
    2.4886    3.8283   -1.2015 C   0  0  1  0  0  0  0  0  0  0  0  0
    2.9775    2.7508   -1.9779 O   0  0  0  0  0  0  0  0  0  0  0  0
    1.4618    2.4754    1.1705 C   0  0  1  0  0  0  0  0  0  0  0  0
    0.4835    1.9398    2.2181 C   0  0  2  0  0  0  0  0  0  0  0  0
    0.7412    2.5643    3.4617 O   0  0  0  0  0  0  0  0  0  0  0  0
    0.7989    0.4380    2.2278 C   0  0  2  0  0  0  0  0  0  0  0  0
    0.3795   -0.2077    3.4303 O   0  0  0  0  0  0  0  0  0  0  0  0
    2.3173    0.4840    2.0171 C   0  0  2  0  0  0  0  0  0  0  0  0
    2.5158    1.5259    1.0719 O   0  0  0  0  0  0  0  0  0  0  0  0
    2.9190   -0.8126    1.4626 C   0  0  0  0  0  0  0  0  0  0  0  0
    2.5547   -1.0200    0.1145 O   0  0  0  0  0  0  0  0  0  0  0  0
   -0.3718    0.6183    4.3176 C   0  0  2  0  0  0  0  0  0  0  0  0
    0.1372    0.5137    5.7633 C   0  0  2  0  0  0  0  0  0  0  0  0
    1.5759    0.8183    5.8380 N   0  0  0  0  0  0  0  0  0  0  0  0
   -0.1776   -0.8648    6.3635 C   0  0  1  0  0  0  0  0  0  0  0  0
    0.2347   -0.8730    7.7165 O   0  0  0  0  0  0  0  0  0  0  0  0
   -1.6946   -1.1011    6.2697 C   0  0  2  0  0  0  0  0  0  0  0  0
   -2.0347   -2.3804    6.7719 O   0  0  0  0  0  0  0  0  0  0  0  0
   -2.1898   -0.9431    4.8173 C   0  0  1  0  0  0  0  0  0  0  0  0
   -1.7591    0.2959    4.2494 O   0  0  0  0  0  0  0  0  0  0  0  0
   -1.8368   -2.1388    3.9203 C   0  0  0  0  0  0  0  0  0  0  0  0
   -3.0021   -3.0127    3.7086 N   0  0  0  0  0  0  0  0  0  0  0  0
  1  3  1  0  0  0  0
  1  2  1  6  0  0  0
  3  4  1  6  0  0  0
  5  6  1  1  0  0  0
  5  3  1  0  0  0  0
  7  9  1  0  0  0  0
  7  5  1  0  0  0  0
  7  8  1  6  0  0  0
  9 10  1  0  0  0  0
  9 11  1  1  0  0  0
 10  1  1  0  0  0  0
 11 12  1  0  0  0  0
 13 14  1  1  0  0  0
 13 21  1  0  0  0  0
 15 13  1  0  0  0  0
 16 15  1  0  0  0  0
 16 18  1  0  0  0  0
 16 17  1  1  0  0  0
 18  2  1  6  0  0  0
 18 19  1  0  0  0  0
 19 21  1  0  0  0  0
 19 20  1  1  0  0  0
 21 22  1  6  0  0  0
 23 20  1  6  0  0  0
 23 29  1  0  0  0  0
 23 24  1  0  0  0  0
 24 26  1  0  0  0  0
 24 25  1  1  0  0  0
 26 27  1  1  0  0  0
 28 26  1  0  0  0  0
 28 30  1  6  0  0  0
 29 28  1  0  0  0  0
 30 31  1  0  0  0  0
 32 27  1  6  0  0  0
 32 40  1  0  0  0  0
 32 33  1  0  0  0  0
 33 35  1  0  0  0  0
 33 34  1  6  0  0  0
 35 37  1  0  0  0  0
 35 36  1  1  0  0  0
 37 38  1  6  0  0  0
 39 37  1  0  0  0  0
 39 41  1  6  0  0  0
 40 39  1  0  0  0  0
 42 41  1  0  0  0  0
M  END
>  <CHROM.1>
-140.17774460,178.26922874,-160.98527564,177.83241258,-66.86402547,-161.80110587
83.18516217,-50.39122828,-56.65433301,-63.74628142,139.63603079,69.28415687
76.89882639,6.48365493,-132.58942861,70.63914223,174.87285071,-99.14414219
-65.65540516,57.90532833,102.45538731,-171.70861300,-0.05356277,2.74009026
2.23362575,1.38644576,0.72642019,-0.51054849

>  <Name>
lig.pdb

>  <RI>
0

>  <Rbt.Current_Directory>
/home/itssahil/PROJECTS/Mol_Feturizer/New_Systems/rnas/2mxs

>  <Rbt.Executable>
rbdock ($Id: //depot/dev/client3/rdock/2013.1/src/exe/rbdock.cxx#4 $)

>  <Rbt.Library>
libRbt.so (2013.1, Build901 2013/11/27)

>  <Rbt.Parameter_File>
/export/apps/rDock/src/rDock_2013.1_src/data/scripts/dock_solv.prm

>  <Rbt.Receptor>
prm/blind_docking_80.prm

>  <SCORE>
-28.8995

>  <SCORE.INTER>
-52.4867

>  <SCORE.INTER.CONST>
1

>  <SCORE.INTER.POLAR>
-7.24294

>  <SCORE.INTER.ROT>
9

>  <SCORE.INTER.SOLV>
30.0673

>  <SCORE.INTER.VDW>
-30.4704

>  <SCORE.INTER.norm>
-1.24968

>  <SCORE.INTRA>
10.6896

>  <SCORE.INTRA.DIHEDRAL>
8.34014

>  <SCORE.INTRA.DIHEDRAL.0>
30.1357

>  <SCORE.INTRA.POLAR>
-0.632357

>  <SCORE.INTRA.POLAR.0>
-0.631696

>  <SCORE.INTRA.REPUL>
0

>  <SCORE.INTRA.REPUL.0>
0

>  <SCORE.INTRA.SOLV>
0.898178

>  <SCORE.INTRA.SOLV.lig_0>
-55.904

>  <SCORE.INTRA.VDW>
8.22046

>  <SCORE.INTRA.VDW.0>
-8.21197

>  <SCORE.INTRA.norm>
0.254514

>  <SCORE.RESTR>
12.8976

>  <SCORE.RESTR.CAVITY>
12.8976

>  <SCORE.RESTR.norm>
0.307085

>  <SCORE.SYSTEM>
0

>  <SCORE.SYSTEM.CONST>
0

>  <SCORE.SYSTEM.DIHEDRAL>
0

>  <SCORE.SYSTEM.SOLV>
0

>  <SCORE.SYSTEM.norm>
0

>  <SCORE.heavy>
42

>  <SCORE.norm>
-0.688084

>  <RMSD>
5.974

$$$$
lig.pdb
 OpenBabel11021811453D
libRbt.so/2013.1/901 2013/11/27
 42 45  0  0  0  0  0  0  0  0999 V2000
    1.2692    1.1714   -1.2068 C   0  0  2  0  0  0  0  0  0  0  0  0
    1.2473    2.5816   -0.9776 O   0  0  0  0  0  0  0  0  0  0  0  0
   -0.1490    0.6350   -1.4527 C   0  0  2  0  0  0  0  0  0  0  0  0
   -0.8078    1.3651   -2.5515 N   0  0  0  0  0  0  0  0  0  0  0  0
   -0.9893    0.6941   -0.1705 C   0  0  1  0  0  0  0  0  0  0  0  0
   -2.2315    0.0548   -0.3932 O   0  0  0  0  0  0  0  0  0  0  0  0
   -0.2540   -0.0092    0.9804 C   0  0  2  0  0  0  0  0  0  0  0  0
   -0.9678    0.1927    2.1851 O   0  0  0  0  0  0  0  0  0  0  0  0
    1.1883    0.5148    1.1340 C   0  0  2  0  0  0  0  0  0  0  0  0
    1.8812    0.4918   -0.1135 O   0  0  0  0  0  0  0  0  0  0  0  0
    1.9181   -0.3829    2.1512 C   0  0  0  0  0  0  0  0  0  0  0  0
    1.4209   -0.1953    3.5032 O   0  0  0  0  0  0  0  0  0  0  0  0
    4.6182    5.1829   -1.6110 C   0  0  2  0  0  0  0  0  0  0  0  0
    5.6710    5.7825   -2.4550 N   0  0  0  0  0  0  0  0  0  0  0  0
    4.7837    3.6622   -1.5543 C   0  0  0  0  0  0  0  0  0  0  0  0
    3.6219    3.0233   -0.8027 C   0  0  2  0  0  0  0  0  0  0  0  0
    3.8389    1.5774   -0.6684 N   0  0  0  0  0  0  0  0  0  0  0  0
    2.3131    3.3451   -1.5610 C   0  0  2  0  0  0  0  0  0  0  0  0
    2.0677    4.8177   -1.4780 C   0  0  2  0  0  0  0  0  0  0  0  0
    0.8457    5.0847   -2.1411 O   0  0  0  0  0  0  0  0  0  0  0  0
    3.2179    5.5640   -2.1271 C   0  0  1  0  0  0  0  0  0  0  0  0
    3.0787    6.9670   -2.0028 O   0  0  0  0  0  0  0  0  0  0  0  0
   -0.3436    5.1009   -1.3587 C   0  0  1  0  0  0  0  0  0  0  0  0
   -0.0225    4.4601   -0.0068 C   0  0  2  0  0  0  0  0  0  0  0  0
   -1.1455    3.7244    0.4410 O   0  0  0  0  0  0  0  0  0  0  0  0
    0.2813    5.6799    0.8735 C   0  0  2  0  0  0  0  0  0  0  0  0
    0.1411    5.4049    2.2676 O   0  0  0  0  0  0  0  0  0  0  0  0
   -0.7378    6.6765    0.3077 C   0  0  2  0  0  0  0  0  0  0  0  0
   -0.7236    6.4455   -1.0941 O   0  0  0  0  0  0  0  0  0  0  0  0
   -0.3989    8.1479    0.5732 C   0  0  0  0  0  0  0  0  0  0  0  0
    0.7704    8.5440   -0.1114 O   0  0  0  0  0  0  0  0  0  0  0  0
   -0.6158    4.2344    2.5694 C   0  0  2  0  0  0  0  0  0  0  0  0
   -2.1135    4.5447    2.7133 C   0  0  2  0  0  0  0  0  0  0  0  0
   -2.6291    5.2198    1.5106 N   0  0  0  0  0  0  0  0  0  0  0  0
   -2.3901    5.3662    3.9815 C   0  0  1  0  0  0  0  0  0  0  0  0
   -3.7874    5.5467    4.1067 O   0  0  0  0  0  0  0  0  0  0  0  0
   -1.8449    4.5899    5.1923 C   0  0  2  0  0  0  0  0  0  0  0  0
   -2.0363    5.3254    6.3868 O   0  0  0  0  0  0  0  0  0  0  0  0
   -0.3526    4.2479    5.0032 C   0  0  1  0  0  0  0  0  0  0  0  0
   -0.1180    3.6052    3.7481 O   0  0  0  0  0  0  0  0  0  0  0  0
    0.5792    5.4503    5.2150 C   0  0  0  0  0  0  0  0  0  0  0  0
   -0.0460    6.7007    4.7546 N   0  0  0  0  0  0  0  0  0  0  0  0
  1  3  1  0  0  0  0
  1  2  1  1  0  0  0
  3  4  1  6  0  0  0
  5  6  1  6  0  0  0
  5  3  1  0  0  0  0
  7  9  1  0  0  0  0
  7  5  1  0  0  0  0
  7  8  1  1  0  0  0
  9 10  1  0  0  0  0
  9 11  1  1  0  0  0
 10  1  1  0  0  0  0
 11 12  1  0  0  0  0
 13 14  1  6  0  0  0
 13 21  1  0  0  0  0
 15 13  1  0  0  0  0
 16 15  1  0  0  0  0
 16 18  1  0  0  0  0
 16 17  1  6  0  0  0
 18  2  1  1  0  0  0
 18 19  1  0  0  0  0
 19 21  1  0  0  0  0
 19 20  1  6  0  0  0
 21 22  1  1  0  0  0
 23 20  1  6  0  0  0
 23 29  1  0  0  0  0
 23 24  1  0  0  0  0
 24 26  1  0  0  0  0
 24 25  1  1  0  0  0
 26 27  1  1  0  0  0
 28 26  1  0  0  0  0
 28 30  1  6  0  0  0
 29 28  1  0  0  0  0
 30 31  1  0  0  0  0
 32 27  1  1  0  0  0
 32 40  1  0  0  0  0
 32 33  1  0  0  0  0
 33 35  1  0  0  0  0
 33 34  1  6  0  0  0
 35 37  1  0  0  0  0
 35 36  1  1  0  0  0
 37 38  1  1  0  0  0
 39 37  1  0  0  0  0
 39 41  1  6  0  0  0
 40 39  1  0  0  0  0
 42 41  1  0  0  0  0
M  END
>  <CHROM.1>
-70.52046934,-140.74488781,-159.02090536,-171.69299693,67.82050308,58.62998254
-70.02383287,-62.25707878,-82.99881455,92.61382343,-14.37556361,177.36337220
57.14728398,-17.86834261,-89.56164254,66.23129626,58.90088304,-81.95241814
-62.61264789,179.19330419,-34.41771010,59.46912634,0.44856044,3.84827617
0.81553254,0.22385192,-0.90791072,-3.08817688

>  <Name>
lig.pdb

>  <RI>
0

>  <Rbt.Current_Directory>
/home/itssahil/PROJECTS/Mol_Feturizer/New_Systems/rnas/2mxs

>  <Rbt.Executable>
rbdock ($Id: //depot/dev/client3/rdock/2013.1/src/exe/rbdock.cxx#4 $)

>  <Rbt.Library>
libRbt.so (2013.1, Build901 2013/11/27)

>  <Rbt.Parameter_File>
/export/apps/rDock/src/rDock_2013.1_src/data/scripts/dock_solv.prm

>  <Rbt.Receptor>
prm/blind_docking_20.prm

>  <SCORE>
42.0246

>  <SCORE.INTER>
-7.7801

>  <SCORE.INTER.CONST>
1

>  <SCORE.INTER.POLAR>
-1.9963

>  <SCORE.INTER.ROT>
9

>  <SCORE.INTER.SOLV>
20.0976

>  <SCORE.INTER.VDW>
-14.8316

>  <SCORE.INTER.norm>
-0.18524

>  <SCORE.INTRA>
29.8772

>  <SCORE.INTRA.DIHEDRAL>
2.07004

>  <SCORE.INTRA.DIHEDRAL.0>
30.1357

>  <SCORE.INTRA.POLAR>
-1.63684

>  <SCORE.INTRA.POLAR.0>
-0.631696

>  <SCORE.INTRA.REPUL>
0.206522

>  <SCORE.INTRA.REPUL.0>
0

>  <SCORE.INTRA.SOLV>
5.55307

>  <SCORE.INTRA.SOLV.lig_0>
-55.904

>  <SCORE.INTRA.VDW>
30.5983

>  <SCORE.INTRA.VDW.0>
-8.21197

>  <SCORE.INTRA.norm>
0.711363

>  <SCORE.RESTR>
19.9274

>  <SCORE.RESTR.CAVITY>
19.9274

>  <SCORE.RESTR.norm>
0.474463

>  <SCORE.SYSTEM>
0

>  <SCORE.SYSTEM.CONST>
0

>  <SCORE.SYSTEM.DIHEDRAL>
0

>  <SCORE.SYSTEM.SOLV>
0

>  <SCORE.SYSTEM.norm>
0

>  <SCORE.heavy>
42

>  <SCORE.norm>
1.00059

>  <RMSD>
5.977

$$$$
lig.pdb
 OpenBabel11021811453D
libRbt.so/2013.1/901 2013/11/27
 42 45  0  0  0  0  0  0  0  0999 V2000
    2.7247    0.4547    0.0905 C   0  0  2  0  0  0  0  0  0  0  0  0
    2.1257    1.7474   -0.0169 O   0  0  0  0  0  0  0  0  0  0  0  0
    1.6862   -0.6513   -0.1501 C   0  0  2  0  0  0  0  0  0  0  0  0
    1.0025   -0.4630   -1.4429 N   0  0  0  0  0  0  0  0  0  0  0  0
    0.6762   -0.7174    1.0027 C   0  0  1  0  0  0  0  0  0  0  0  0
   -0.1674   -1.8391    0.8243 O   0  0  0  0  0  0  0  0  0  0  0  0
    1.4099   -0.8412    2.3467 C   0  0  2  0  0  0  0  0  0  0  0  0
    0.4736   -0.7413    3.4025 O   0  0  0  0  0  0  0  0  0  0  0  0
    2.4912    0.2473    2.5030 C   0  0  2  0  0  0  0  0  0  0  0  0
    3.3477    0.2914    1.3621 O   0  0  0  0  0  0  0  0  0  0  0  0
    3.3178   -0.0762    3.7621 C   0  0  0  0  0  0  0  0  0  0  0  0
    4.7193    0.2708    3.6013 O   0  0  0  0  0  0  0  0  0  0  0  0
    4.2269    4.7240   -2.3095 C   0  0  2  0  0  0  0  0  0  0  0  0
    4.5942    5.3831   -3.5787 N   0  0  0  0  0  0  0  0  0  0  0  0
    4.6520    3.2536   -2.3311 C   0  0  0  0  0  0  0  0  0  0  0  0
    4.1524    2.5319   -1.0852 C   0  0  2  0  0  0  0  0  0  0  0  0
    4.6475    1.1498   -1.0672 N   0  0  0  0  0  0  0  0  0  0  0  0
    2.6073    2.5944   -1.0704 C   0  0  2  0  0  0  0  0  0  0  0  0
    2.1929    4.0193   -0.8874 C   0  0  2  0  0  0  0  0  0  0  0  0
    0.7784    4.0489   -0.8348 O   0  0  0  0  0  0  0  0  0  0  0  0
    2.7160    4.8550   -2.0403 C   0  0  1  0  0  0  0  0  0  0  0  0
    2.4241    6.2300   -1.8755 O   0  0  0  0  0  0  0  0  0  0  0  0
    0.1433    3.4327    0.2805 C   0  0  1  0  0  0  0  0  0  0  0  0
    0.6724    4.1043    1.5496 C   0  0  2  0  0  0  0  0  0  0  0  0
    0.7809    3.1395    2.5792 O   0  0  0  0  0  0  0  0  0  0  0  0
   -0.4007    5.1635    1.8350 C   0  0  2  0  0  0  0  0  0  0  0  0
   -0.4034    5.5957    3.1959 O   0  0  0  0  0  0  0  0  0  0  0  0
   -1.6549    4.3951    1.4007 C   0  0  2  0  0  0  0  0  0  0  0  0
   -1.2550    3.6875    0.2354 O   0  0  0  0  0  0  0  0  0  0  0  0
   -2.8546    5.2851    1.0555 C   0  0  0  0  0  0  0  0  0  0  0  0
   -2.6058    6.6386    1.3706 O   0  0  0  0  0  0  0  0  0  0  0  0
   -1.6360    6.1609    3.6377 C   0  0  2  0  0  0  0  0  0  0  0  0
   -1.4853    7.6461    4.0006 C   0  0  2  0  0  0  0  0  0  0  0  0
   -0.9204    8.4082    2.8744 N   0  0  0  0  0  0  0  0  0  0  0  0
   -0.6473    7.8229    5.2758 C   0  0  1  0  0  0  0  0  0  0  0  0
   -0.6152    9.1975    5.6079 O   0  0  0  0  0  0  0  0  0  0  0  0
   -1.3090    7.0189    6.4078 C   0  0  2  0  0  0  0  0  0  0  0  0
   -0.5503    7.1132    7.5994 O   0  0  0  0  0  0  0  0  0  0  0  0
   -1.4938    5.5421    6.0020 C   0  0  1  0  0  0  0  0  0  0  0  0
   -2.1581    5.4250    4.7418 O   0  0  0  0  0  0  0  0  0  0  0  0
   -0.1893    4.7325    6.0403 C   0  0  0  0  0  0  0  0  0  0  0  0
   -0.2411    3.5882    5.1161 N   0  0  0  0  0  0  0  0  0  0  0  0
  1  3  1  0  0  0  0
  1  2  1  1  0  0  0
  3  4  1  6  0  0  0
  5  6  1  6  0  0  0
  5  3  1  0  0  0  0
  7  9  1  0  0  0  0
  7  5  1  0  0  0  0
  7  8  1  1  0  0  0
  9 10  1  0  0  0  0
  9 11  1  1  0  0  0
 10  1  1  0  0  0  0
 11 12  1  0  0  0  0
 13 14  1  6  0  0  0
 13 21  1  0  0  0  0
 15 13  1  0  0  0  0
 16 15  1  0  0  0  0
 16 18  1  0  0  0  0
 16 17  1  6  0  0  0
 18  2  1  1  0  0  0
 18 19  1  0  0  0  0
 19 21  1  0  0  0  0
 19 20  1  6  0  0  0
 21 22  1  1  0  0  0
 23 20  1  6  0  0  0
 23 29  1  0  0  0  0
 23 24  1  0  0  0  0
 24 26  1  0  0  0  0
 24 25  1  1  0  0  0
 26 27  1  1  0  0  0
 28 26  1  0  0  0  0
 28 30  1  6  0  0  0
 29 28  1  0  0  0  0
 30 31  1  0  0  0  0
 32 27  1  1  0  0  0
 32 40  1  0  0  0  0
 32 33  1  0  0  0  0
 33 35  1  0  0  0  0
 33 34  1  6  0  0  0
 35 37  1  0  0  0  0
 35 36  1  1  0  0  0
 37 38  1  1  0  0  0
 39 37  1  0  0  0  0
 39 41  1  6  0  0  0
 40 39  1  0  0  0  0
 42 41  1  0  0  0  0
M  END
>  <CHROM.1>
-45.13903171,-116.84645560,-78.63751106,-60.11831082,179.43446528,65.70758228
144.48448486,-100.78488707,-67.45215481,66.73658394,57.89882286,-57.17194374
68.99484210,-157.46723749,-115.45397463,-7.36659989,72.67940777,59.85464046
64.67412334,-177.74435015,-154.12686372,79.91864214,0.90574390,3.58943569
1.70173402,0.28464297,-1.05345525,2.64338119

>  <Name>
lig.pdb

>  <RI>
0

>  <Rbt.Current_Directory>
/home/itssahil/PROJECTS/Mol_Feturizer/New_Systems/rnas/2mxs

>  <Rbt.Executable>
rbdock ($Id: //depot/dev/client3/rdock/2013.1/src/exe/rbdock.cxx#4 $)

>  <Rbt.Library>
libRbt.so (2013.1, Build901 2013/11/27)

>  <Rbt.Parameter_File>
/export/apps/rDock/src/rDock_2013.1_src/data/scripts/dock_solv.prm

>  <Rbt.Receptor>
prm/blind_docking_20.prm

>  <SCORE>
-6.9082

>  <SCORE.INTER>
-42.5902

>  <SCORE.INTER.CONST>
1

>  <SCORE.INTER.POLAR>
-5.59939

>  <SCORE.INTER.ROT>
9

>  <SCORE.INTER.SOLV>
30.1138

>  <SCORE.INTER.VDW>
-29.3667

>  <SCORE.INTER.norm>
-1.01405

>  <SCORE.INTRA>
18.6414

>  <SCORE.INTRA.DIHEDRAL>
4.65537

>  <SCORE.INTRA.DIHEDRAL.0>
30.1357

>  <SCORE.INTRA.POLAR>
-2.28892

>  <SCORE.INTRA.POLAR.0>
-0.631696

>  <SCORE.INTRA.REPUL>
0.00154301

>  <SCORE.INTRA.REPUL.0>
0

>  <SCORE.INTRA.SOLV>
2.12029

>  <SCORE.INTRA.SOLV.lig_0>
-55.904

>  <SCORE.INTRA.VDW>
23.0282

>  <SCORE.INTRA.VDW.0>
-8.21197

>  <SCORE.INTRA.norm>
0.443842

>  <SCORE.RESTR>
17.0406

>  <SCORE.RESTR.CAVITY>
17.0406

>  <SCORE.RESTR.norm>
0.405728

>  <SCORE.SYSTEM>
0

>  <SCORE.SYSTEM.CONST>
0

>  <SCORE.SYSTEM.DIHEDRAL>
0

>  <SCORE.SYSTEM.SOLV>
0

>  <SCORE.SYSTEM.norm>
0

>  <SCORE.heavy>
42

>  <SCORE.norm>
-0.164481

>  <RMSD>
5.978

$$$$
lig.pdb
 OpenBabel11021811453D
libRbt.so/2013.1/901 2013/11/27
 42 45  0  0  0  0  0  0  0  0999 V2000
   -1.4186    4.2964    1.5286 C   0  0  2  0  0  0  0  0  0  0  0  0
   -1.0886    4.6303    0.1791 O   0  0  0  0  0  0  0  0  0  0  0  0
   -2.9370    4.3606    1.7525 C   0  0  2  0  0  0  0  0  0  0  0  0
   -3.6514    3.5120    0.7810 N   0  0  0  0  0  0  0  0  0  0  0  0
   -3.4407    5.8085    1.6943 C   0  0  1  0  0  0  0  0  0  0  0  0
   -4.8083    5.8448    2.0546 O   0  0  0  0  0  0  0  0  0  0  0  0
   -2.6362    6.6910    2.6606 C   0  0  2  0  0  0  0  0  0  0  0  0
   -3.0063    8.0441    2.4777 O   0  0  0  0  0  0  0  0  0  0  0  0
   -1.1180    6.5308    2.4420 C   0  0  2  0  0  0  0  0  0  0  0  0
   -0.7391    5.1548    2.4414 O   0  0  0  0  0  0  0  0  0  0  0  0
   -0.3896    7.2705    3.5802 C   0  0  0  0  0  0  0  0  0  0  0  0
   -0.7552    6.7573    4.8891 O   0  0  0  0  0  0  0  0  0  0  0  0
    2.6844    4.8140   -1.8853 C   0  0  2  0  0  0  0  0  0  0  0  0
    4.1517    4.9749   -1.9229 N   0  0  0  0  0  0  0  0  0  0  0  0
    2.0258    6.0721   -1.3136 C   0  0  0  0  0  0  0  0  0  0  0  0
    0.5263    5.8615   -1.1401 C   0  0  2  0  0  0  0  0  0  0  0  0
   -0.1107    7.1036   -0.6849 N   0  0  0  0  0  0  0  0  0  0  0  0
    0.3079    4.6990   -0.1439 C   0  0  2  0  0  0  0  0  0  0  0  0
    0.8080    3.4375   -0.7715 C   0  0  2  0  0  0  0  0  0  0  0  0
    0.5609    2.3812    0.1383 O   0  0  0  0  0  0  0  0  0  0  0  0
    2.2897    3.5685   -1.0697 C   0  0  1  0  0  0  0  0  0  0  0  0
    2.7990    2.4323   -1.7424 O   0  0  0  0  0  0  0  0  0  0  0  0
    1.3384    2.3371    1.3302 C   0  0  1  0  0  0  0  0  0  0  0  0
    0.4628    1.7477    2.4380 C   0  0  2  0  0  0  0  0  0  0  0  0
    0.7706    2.3818    3.6652 O   0  0  0  0  0  0  0  0  0  0  0  0
    0.8571    0.2648    2.4173 C   0  0  2  0  0  0  0  0  0  0  0  0
    0.5546   -0.4054    3.6413 O   0  0  0  0  0  0  0  0  0  0  0  0
    2.3532    0.3919    2.1050 C   0  0  2  0  0  0  0  0  0  0  0  0
    2.4320    1.4452    1.1550 O   0  0  0  0  0  0  0  0  0  0  0  0
    2.9837   -0.8695    1.5034 C   0  0  0  0  0  0  0  0  0  0  0  0
    4.1330   -0.5642    0.7425 O   0  0  0  0  0  0  0  0  0  0  0  0
   -0.4748    0.2070    4.4155 C   0  0  2  0  0  0  0  0  0  0  0  0
   -0.1255    0.2322    5.9113 C   0  0  2  0  0  0  0  0  0  0  0  0
    1.1744    0.8859    6.1372 N   0  0  0  0  0  0  0  0  0  0  0  0
   -0.1558   -1.1814    6.5116 C   0  0  1  0  0  0  0  0  0  0  0  0
    0.0872   -1.0869    7.9018 O   0  0  0  0  0  0  0  0  0  0  0  0
   -1.5458   -1.7885    6.2561 C   0  0  2  0  0  0  0  0  0  0  0  0
   -1.6138   -3.1123    6.7535 O   0  0  0  0  0  0  0  0  0  0  0  0
   -1.8943   -1.7587    4.7537 C   0  0  1  0  0  0  0  0  0  0  0  0
   -1.7216   -0.4512    4.2024 O   0  0  0  0  0  0  0  0  0  0  0  0
   -1.1554   -2.8283    3.9360 C   0  0  0  0  0  0  0  0  0  0  0  0
   -1.3854   -2.6537    2.4928 N   0  0  0  0  0  0  0  0  0  0  0  0
  1  3  1  0  0  0  0
  1  2  1  6  0  0  0
  3  4  1  6  0  0  0
  5  6  1  1  0  0  0
  5  3  1  0  0  0  0
  7  9  1  0  0  0  0
  7  5  1  0  0  0  0
  7  8  1  6  0  0  0
  9 10  1  0  0  0  0
  9 11  1  1  0  0  0
 10  1  1  0  0  0  0
 11 12  1  0  0  0  0
 13 14  1  1  0  0  0
 13 21  1  0  0  0  0
 15 13  1  0  0  0  0
 16 15  1  0  0  0  0
 16 18  1  0  0  0  0
 16 17  1  1  0  0  0
 18  2  1  6  0  0  0
 18 19  1  0  0  0  0
 19 21  1  0  0  0  0
 19 20  1  1  0  0  0
 21 22  1  6  0  0  0
 23 20  1  6  0  0  0
 23 29  1  0  0  0  0
 23 24  1  0  0  0  0
 24 26  1  0  0  0  0
 24 25  1  1  0  0  0
 26 27  1  1  0  0  0
 28 26  1  0  0  0  0
 28 30  1  6  0  0  0
 29 28  1  0  0  0  0
 30 31  1  0  0  0  0
 32 27  1  6  0  0  0
 32 40  1  0  0  0  0
 32 33  1  0  0  0  0
 33 35  1  0  0  0  0
 33 34  1  6  0  0  0
 35 37  1  0  0  0  0
 35 36  1  1  0  0  0
 37 38  1  6  0  0  0
 39 37  1  0  0  0  0
 39 41  1  6  0  0  0
 40 39  1  0  0  0  0
 42 41  1  0  0  0  0
M  END
>  <CHROM.1>
-142.69077208,175.84534291,86.94032101,-19.13112577,-60.29206008,-34.09911496
58.80141268,65.90284507,62.72858108,-70.41008551,147.44577189,76.25028921
-98.27962603,23.38197851,-137.67271961,155.37776157,-121.03922003,-168.89721799
74.00825901,54.44552326,-172.78416294,78.56592067,-0.06788430,2.55188989
2.25944370,1.54364831,0.71623163,-0.57163157

>  <Name>
lig.pdb

>  <RI>
0

>  <Rbt.Current_Directory>
/home/itssahil/PROJECTS/Mol_Feturizer/New_Systems/rnas/2mxs

>  <Rbt.Executable>
rbdock ($Id: //depot/dev/client3/rdock/2013.1/src/exe/rbdock.cxx#4 $)

>  <Rbt.Library>
libRbt.so (2013.1, Build901 2013/11/27)

>  <Rbt.Parameter_File>
/export/apps/rDock/src/rDock_2013.1_src/data/scripts/dock_solv.prm

>  <Rbt.Receptor>
prm/blind_docking_20.prm

>  <SCORE>
-10.1538

>  <SCORE.INTER>
-44.634

>  <SCORE.INTER.CONST>
1

>  <SCORE.INTER.POLAR>
-7.50077

>  <SCORE.INTER.ROT>
9

>  <SCORE.INTER.SOLV>
33.2136

>  <SCORE.INTER.VDW>
-25.4246

>  <SCORE.INTER.norm>
-1.06271

>  <SCORE.INTRA>
20.1549

>  <SCORE.INTRA.DIHEDRAL>
18.1061

>  <SCORE.INTRA.DIHEDRAL.0>
30.1357

>  <SCORE.INTRA.POLAR>
0.482976

>  <SCORE.INTRA.POLAR.0>
-0.631696

>  <SCORE.INTRA.REPUL>
0.170832

>  <SCORE.INTRA.REPUL.0>
0

>  <SCORE.INTRA.SOLV>
0.407469

>  <SCORE.INTRA.SOLV.lig_0>
-55.904

>  <SCORE.INTRA.VDW>
8.40183

>  <SCORE.INTRA.VDW.0>
-8.21197

>  <SCORE.INTRA.norm>
0.479878

>  <SCORE.RESTR>
14.3253

>  <SCORE.RESTR.CAVITY>
14.3253

>  <SCORE.RESTR.norm>
0.341079

>  <SCORE.SYSTEM>
0

>  <SCORE.SYSTEM.CONST>
0

>  <SCORE.SYSTEM.DIHEDRAL>
0

>  <SCORE.SYSTEM.SOLV>
0

>  <SCORE.SYSTEM.norm>
0

>  <SCORE.heavy>
42

>  <SCORE.norm>
-0.241756

>  <RMSD>
5.979

$$$$
lig.pdb
 OpenBabel11021811453D
libRbt.so/2013.1/901 2013/11/27
 42 45  0  0  0  0  0  0  0  0999 V2000
   -0.9355    4.1695    1.8117 C   0  0  2  0  0  0  0  0  0  0  0  0
   -0.6093    5.3669    1.1036 O   0  0  0  0  0  0  0  0  0  0  0  0
   -2.4533    4.0508    2.0159 C   0  0  2  0  0  0  0  0  0  0  0  0
   -3.1693    4.1471    0.7304 N   0  0  0  0  0  0  0  0  0  0  0  0
   -2.9588    5.1058    3.0083 C   0  0  1  0  0  0  0  0  0  0  0  0
   -4.3256    4.8707    3.2881 O   0  0  0  0  0  0  0  0  0  0  0  0
   -2.1529    5.0373    4.3143 C   0  0  2  0  0  0  0  0  0  0  0  0
   -2.5250    6.1152    5.1516 O   0  0  0  0  0  0  0  0  0  0  0  0
   -0.6351    5.0849    4.0454 C   0  0  2  0  0  0  0  0  0  0  0  0
   -0.2547    4.1218    3.0631 O   0  0  0  0  0  0  0  0  0  0  0  0
    0.0954    4.7935    5.3700 C   0  0  0  0  0  0  0  0  0  0  0  0
   -0.3810    3.5751    6.0017 O   0  0  0  0  0  0  0  0  0  0  0  0
    2.7662    5.3638   -1.5679 C   0  0  2  0  0  0  0  0  0  0  0  0
    4.1926    5.5856   -1.8782 N   0  0  0  0  0  0  0  0  0  0  0  0
    2.1120    6.6700   -1.1106 C   0  0  0  0  0  0  0  0  0  0  0  0
    0.6790    6.4219   -0.6546 C   0  0  2  0  0  0  0  0  0  0  0  0
    0.0290    7.6929   -0.3114 N   0  0  0  0  0  0  0  0  0  0  0  0
    0.7095    5.4443    0.5433 C   0  0  2  0  0  0  0  0  0  0  0  0
    1.1992    4.1172    0.0590 C   0  0  2  0  0  0  0  0  0  0  0  0
    1.1797    3.2274    1.1601 O   0  0  0  0  0  0  0  0  0  0  0  0
    2.6010    4.2643   -0.5019 C   0  0  1  0  0  0  0  0  0  0  0  0
    3.0830    3.0529   -1.0525 O   0  0  0  0  0  0  0  0  0  0  0  0
    1.2114    1.8310    0.8848 C   0  0  1  0  0  0  0  0  0  0  0  0
    1.2247    1.0906    2.2238 C   0  0  2  0  0  0  0  0  0  0  0  0
    2.0301   -0.0674    2.1104 O   0  0  0  0  0  0  0  0  0  0  0  0
   -0.2601    0.7663    2.4371 C   0  0  2  0  0  0  0  0  0  0  0  0
   -0.4651   -0.3151    3.3467 O   0  0  0  0  0  0  0  0  0  0  0  0
   -0.6799    0.4796    0.9901 C   0  0  2  0  0  0  0  0  0  0  0  0
    0.0155    1.4479    0.2174 O   0  0  0  0  0  0  0  0  0  0  0  0
   -2.1839    0.6199    0.7279 C   0  0  0  0  0  0  0  0  0  0  0  0
   -2.5185    0.2480   -0.5923 O   0  0  0  0  0  0  0  0  0  0  0  0
   -0.2501    0.0127    4.7179 C   0  0  2  0  0  0  0  0  0  0  0  0
   -0.4793   -1.1971    5.6366 C   0  0  2  0  0  0  0  0  0  0  0  0
    0.3543   -2.3379    5.2222 N   0  0  0  0  0  0  0  0  0  0  0  0
   -1.9665   -1.5777    5.6913 C   0  0  1  0  0  0  0  0  0  0  0  0
   -2.1277   -2.6372    6.6145 O   0  0  0  0  0  0  0  0  0  0  0  0
   -2.7668   -0.3472    6.1508 C   0  0  2  0  0  0  0  0  0  0  0  0
   -4.1534   -0.6323    6.1770 O   0  0  0  0  0  0  0  0  0  0  0  0
   -2.4834    0.8671    5.2427 C   0  0  1  0  0  0  0  0  0  0  0  0
   -1.0801    1.1042    5.1089 O   0  0  0  0  0  0  0  0  0  0  0  0
   -3.1838    0.7837    3.8784 C   0  0  0  0  0  0  0  0  0  0  0  0
   -4.6394    0.9563    4.0116 N   0  0  0  0  0  0  0  0  0  0  0  0
  1  3  1  0  0  0  0
  1  2  1  1  0  0  0
  3  4  1  6  0  0  0
  5  6  1  1  0  0  0
  5  3  1  0  0  0  0
  7  9  1  0  0  0  0
  7  5  1  0  0  0  0
  7  8  1  1  0  0  0
  9 10  1  0  0  0  0
  9 11  1  1  0  0  0
 10  1  1  0  0  0  0
 11 12  1  0  0  0  0
 13 14  1  1  0  0  0
 13 21  1  0  0  0  0
 15 13  1  0  0  0  0
 16 15  1  0  0  0  0
 16 18  1  0  0  0  0
 16 17  1  1  0  0  0
 18  2  1  6  0  0  0
 18 19  1  0  0  0  0
 19 21  1  0  0  0  0
 19 20  1  1  0  0  0
 21 22  1  6  0  0  0
 23 20  1  1  0  0  0
 23 29  1  0  0  0  0
 23 24  1  0  0  0  0
 24 26  1  0  0  0  0
 24 25  1  6  0  0  0
 26 27  1  1  0  0  0
 28 26  1  0  0  0  0
 28 30  1  1  0  0  0
 29 28  1  0  0  0  0
 30 31  1  0  0  0  0
 32 27  1  6  0  0  0
 32 40  1  0  0  0  0
 32 33  1  0  0  0  0
 33 35  1  0  0  0  0
 33 34  1  6  0  0  0
 35 37  1  0  0  0  0
 35 36  1  1  0  0  0
 37 38  1  6  0  0  0
 39 37  1  0  0  0  0
 39 41  1  6  0  0  0
 40 39  1  0  0  0  0
 42 41  1  0  0  0  0
M  END
>  <CHROM.1>
154.75045714,-164.40830892,-94.68476882,-59.14698983,-47.49525749,56.78898276
52.02543125,72.37371227,47.37842659,161.49785450,178.32257001,161.82193969
-60.04590120,74.61289862,-179.63763466,-175.62563839,-66.05254969,78.91771446
-176.64861492,64.79288774,70.38054676,71.94131849,-0.65344800,2.58216243
2.51583885,0.98800783,0.74044168,-0.35649687

>  <Name>
lig.pdb

>  <RI>
0

>  <Rbt.Current_Directory>
/home/itssahil/PROJECTS/Mol_Feturizer/New_Systems/rnas/2mxs

>  <Rbt.Executable>
rbdock ($Id: //depot/dev/client3/rdock/2013.1/src/exe/rbdock.cxx#4 $)

>  <Rbt.Library>
libRbt.so (2013.1, Build901 2013/11/27)

>  <Rbt.Parameter_File>
/export/apps/rDock/src/rDock_2013.1_src/data/scripts/dock_solv.prm

>  <Rbt.Receptor>
prm/pocket_docking_4.prm

>  <SCORE>
-47.5282

>  <SCORE.INTER>
-42.2875

>  <SCORE.INTER.CONST>
1

>  <SCORE.INTER.POLAR>
-4.58901

>  <SCORE.INTER.ROT>
9

>  <SCORE.INTER.SOLV>
17.5672

>  <SCORE.INTER.VDW>
-28.3507

>  <SCORE.INTER.norm>
-1.00684

>  <SCORE.INTRA>
-6.11234

>  <SCORE.INTRA.DIHEDRAL>
-15.5601

>  <SCORE.INTRA.DIHEDRAL.0>
30.1357

>  <SCORE.INTRA.POLAR>
-1.12832

>  <SCORE.INTRA.POLAR.0>
-0.631696

>  <SCORE.INTRA.REPUL>
0.00940028

>  <SCORE.INTRA.REPUL.0>
0

>  <SCORE.INTRA.SOLV>
0.730662

>  <SCORE.INTRA.SOLV.lig_0>
-55.904

>  <SCORE.INTRA.VDW>
5.09166

>  <SCORE.INTRA.VDW.0>
-8.21197

>  <SCORE.INTRA.norm>
-0.145532

>  <SCORE.RESTR>
0.87165

>  <SCORE.RESTR.CAVITY>
0.87165

>  <SCORE.RESTR.norm>
0.0207536

>  <SCORE.SYSTEM>
0

>  <SCORE.SYSTEM.CONST>
0

>  <SCORE.SYSTEM.DIHEDRAL>
0

>  <SCORE.SYSTEM.SOLV>
0

>  <SCORE.SYSTEM.norm>
0

>  <SCORE.heavy>
42

>  <SCORE.norm>
-1.13162

>  <RMSD>
5.979

$$$$
lig.pdb
 OpenBabel11021811453D
libRbt.so/2013.1/901 2013/11/27
 42 45  0  0  0  0  0  0  0  0999 V2000
    1.9112    2.2141   -1.6199 C   0  0  2  0  0  0  0  0  0  0  0  0
    1.7778    3.2664   -0.6626 O   0  0  0  0  0  0  0  0  0  0  0  0
    0.7100    1.2589   -1.5539 C   0  0  2  0  0  0  0  0  0  0  0  0
   -0.5591    1.9932   -1.7107 N   0  0  0  0  0  0  0  0  0  0  0  0
    0.7213    0.4504   -0.2502 C   0  0  1  0  0  0  0  0  0  0  0  0
   -0.3058   -0.5216   -0.2915 O   0  0  0  0  0  0  0  0  0  0  0  0
    2.0770   -0.2490   -0.0695 C   0  0  2  0  0  0  0  0  0  0  0  0
    2.1242   -0.8565    1.2073 O   0  0  0  0  0  0  0  0  0  0  0  0
    3.2490    0.7419   -0.2198 C   0  0  2  0  0  0  0  0  0  0  0  0
    3.1305    1.5029   -1.4214 O   0  0  0  0  0  0  0  0  0  0  0  0
    4.5600   -0.0669   -0.2434 C   0  0  0  0  0  0  0  0  0  0  0  0
    5.7327    0.7903   -0.2346 O   0  0  0  0  0  0  0  0  0  0  0  0
    2.4117    7.4767   -1.2970 C   0  0  2  0  0  0  0  0  0  0  0  0
    2.2750    8.7193   -2.0829 N   0  0  0  0  0  0  0  0  0  0  0  0
    3.1848    6.4244   -2.0958 C   0  0  0  0  0  0  0  0  0  0  0  0
    3.2084    5.0951   -1.3506 C   0  0  2  0  0  0  0  0  0  0  0  0
    4.0338    4.1216   -2.0765 N   0  0  0  0  0  0  0  0  0  0  0  0
    1.7518    4.6056   -1.1777 C   0  0  2  0  0  0  0  0  0  0  0  0
    1.0397    5.5512   -0.2644 C   0  0  2  0  0  0  0  0  0  0  0  0
   -0.2772    5.0626   -0.0866 O   0  0  0  0  0  0  0  0  0  0  0  0
    1.0312    6.9403   -0.8740 C   0  0  1  0  0  0  0  0  0  0  0  0
    0.4422    7.8956   -0.0117 O   0  0  0  0  0  0  0  0  0  0  0  0
   -0.4493    3.8948    0.7093 C   0  0  1  0  0  0  0  0  0  0  0  0
   -0.6408    4.3418    2.1601 C   0  0  2  0  0  0  0  0  0  0  0  0
   -0.0233    3.4059    3.0236 O   0  0  0  0  0  0  0  0  0  0  0  0
   -2.1688    4.3650    2.3000 C   0  0  2  0  0  0  0  0  0  0  0  0
   -2.6015    4.2813    3.6581 O   0  0  0  0  0  0  0  0  0  0  0  0
   -2.5336    3.1545    1.4318 C   0  0  2  0  0  0  0  0  0  0  0  0
   -1.6446    3.2268    0.3259 O   0  0  0  0  0  0  0  0  0  0  0  0
   -3.9760    3.1598    0.9123 C   0  0  0  0  0  0  0  0  0  0  0  0
   -4.8915    2.7743    1.9155 O   0  0  0  0  0  0  0  0  0  0  0  0
   -3.2667    5.4460    4.1429 C   0  0  2  0  0  0  0  0  0  0  0  0
   -3.3171    6.5571    3.0832 C   0  0  2  0  0  0  0  0  0  0  0  0
   -3.9324    6.0689    1.8377 N   0  0  0  0  0  0  0  0  0  0  0  0
   -1.9206    7.1436    2.8281 C   0  0  1  0  0  0  0  0  0  0  0  0
   -2.0411    8.2149    1.9124 O   0  0  0  0  0  0  0  0  0  0  0  0
   -1.3541    7.6501    4.1655 C   0  0  2  0  0  0  0  0  0  0  0  0
   -0.0460    8.1636    3.9935 O   0  0  0  0  0  0  0  0  0  0  0  0
   -1.3585    6.5307    5.2269 C   0  0  1  0  0  0  0  0  0  0  0  0
   -2.6455    5.9184    5.3362 O   0  0  0  0  0  0  0  0  0  0  0  0
   -0.2450    5.4930    5.0220 C   0  0  0  0  0  0  0  0  0  0  0  0
    1.0510    5.9945    5.5069 N   0  0  0  0  0  0  0  0  0  0  0  0
  1  3  1  0  0  0  0
  1  2  1  1  0  0  0
  3  4  1  1  0  0  0
  5  6  1  6  0  0  0
  5  3  1  0  0  0  0
  7  9  1  0  0  0  0
  7  5  1  0  0  0  0
  7  8  1  1  0  0  0
  9 10  1  0  0  0  0
  9 11  1  6  0  0  0
 10  1  1  0  0  0  0
 11 12  1  0  0  0  0
 13 14  1  6  0  0  0
 13 21  1  0  0  0  0
 15 13  1  0  0  0  0
 16 15  1  0  0  0  0
 16 18  1  0  0  0  0
 16 17  1  6  0  0  0
 18  2  1  1  0  0  0
 18 19  1  0  0  0  0
 19 21  1  0  0  0  0
 19 20  1  6  0  0  0
 21 22  1  1  0  0  0
 23 20  1  6  0  0  0
 23 29  1  0  0  0  0
 23 24  1  0  0  0  0
 24 26  1  0  0  0  0
 24 25  1  1  0  0  0
 26 27  1  1  0  0  0
 28 26  1  0  0  0  0
 28 30  1  6  0  0  0
 29 28  1  0  0  0  0
 30 31  1  0  0  0  0
 32 27  1  6  0  0  0
 32 40  1  0  0  0  0
 32 33  1  0  0  0  0
 33 35  1  0  0  0  0
 33 34  1  6  0  0  0
 35 37  1  0  0  0  0
 35 36  1  6  0  0  0
 37 38  1  6  0  0  0
 39 37  1  0  0  0  0
 39 41  1  6  0  0  0
 40 39  1  0  0  0  0
 42 41  1  0  0  0  0
M  END
>  <CHROM.1>
-85.08788645,-120.33302982,45.07530010,-162.13071078,177.28684916,-56.84407764
-173.66754376,72.47306465,64.29350649,72.04436765,89.47927164,-22.81467633
120.18554375,114.40851990,-2.08514259,-77.40689515,62.10877794,-110.46081235
-76.64503884,170.49866033,78.70860310,-39.80833800,0.15426734,4.24345915
0.98614149,0.66271172,-0.66938284,-3.05436201

>  <Name>
lig.pdb

>  <RI>
3.17932e+07

>  <Rbt.Current_Directory>
/home/itssahil/PROJECTS/Mol_Feturizer/New_Systems/rnas/2mxs

>  <Rbt.Executable>
rbdock ($Id: //depot/dev/client3/rdock/2013.1/src/exe/rbdock.cxx#4 $)

>  <Rbt.Library>
libRbt.so (2013.1, Build901 2013/11/27)

>  <Rbt.Parameter_File>
/export/apps/rDock/src/rDock_2013.1_src/data/scripts/dock_solv.prm

>  <Rbt.Receptor>
prm/blind_docking_100.prm

>  <SCORE>
47.0081

>  <SCORE.INTER>
3.47659

>  <SCORE.INTER.CONST>
1

>  <SCORE.INTER.POLAR>
-3.70737

>  <SCORE.INTER.ROT>
9

>  <SCORE.INTER.SOLV>
33.3142

>  <SCORE.INTER.VDW>
-6.02911

>  <SCORE.INTER.norm>
0.082776

>  <SCORE.INTRA>
23.5992

>  <SCORE.INTRA.DIHEDRAL>
20.8626

>  <SCORE.INTRA.DIHEDRAL.0>
30.1357

>  <SCORE.INTRA.POLAR>
-1.3293

>  <SCORE.INTRA.POLAR.0>
-0.631696

>  <SCORE.INTRA.REPUL>
0.00350871

>  <SCORE.INTRA.REPUL.0>
0

>  <SCORE.INTRA.SOLV>
2.28485

>  <SCORE.INTRA.SOLV.lig_0>
-55.904

>  <SCORE.INTRA.VDW>
16.5275

>  <SCORE.INTRA.VDW.0>
-8.21197

>  <SCORE.INTRA.norm>
0.561886

>  <SCORE.RESTR>
19.9324

>  <SCORE.RESTR.CAVITY>
19.9324

>  <SCORE.RESTR.norm>
0.47458

>  <SCORE.SYSTEM>
0

>  <SCORE.SYSTEM.CONST>
0

>  <SCORE.SYSTEM.DIHEDRAL>
0

>  <SCORE.SYSTEM.SOLV>
0

>  <SCORE.SYSTEM.norm>
0

>  <SCORE.heavy>
42

>  <SCORE.norm>
1.11924

>  <RMSD>
5.980

$$$$
lig.pdb
 OpenBabel11021811453D
libRbt.so/2013.1/901 2013/11/27
 42 45  0  0  0  0  0  0  0  0999 V2000
   -1.0701    1.7609    1.0271 C   0  0  2  0  0  0  0  0  0  0  0  0
   -0.5624    3.0351    0.6273 O   0  0  0  0  0  0  0  0  0  0  0  0
    0.0407    0.7000    1.0122 C   0  0  2  0  0  0  0  0  0  0  0  0
    1.1876    1.1232    1.8367 N   0  0  0  0  0  0  0  0  0  0  0  0
    0.4808    0.3848   -0.4233 C   0  0  1  0  0  0  0  0  0  0  0  0
    1.3900   -0.6991   -0.4085 O   0  0  0  0  0  0  0  0  0  0  0  0
   -0.7367    0.0160   -1.2843 C   0  0  2  0  0  0  0  0  0  0  0  0
   -0.3335   -0.1157   -2.6339 O   0  0  0  0  0  0  0  0  0  0  0  0
   -1.8502    1.0772   -1.1732 C   0  0  2  0  0  0  0  0  0  0  0  0
   -2.1547    1.3649    0.1912 O   0  0  0  0  0  0  0  0  0  0  0  0
   -3.1043    0.5316   -1.8823 C   0  0  0  0  0  0  0  0  0  0  0  0
   -3.3899   -0.8431   -1.5094 O   0  0  0  0  0  0  0  0  0  0  0  0
   -0.5660    6.7112    2.8673 C   0  0  2  0  0  0  0  0  0  0  0  0
   -1.2392    7.7780    3.6348 N   0  0  0  0  0  0  0  0  0  0  0  0
   -1.1283    6.6431    1.4452 C   0  0  0  0  0  0  0  0  0  0  0  0
   -0.5405    5.4558    0.6918 C   0  0  2  0  0  0  0  0  0  0  0  0
   -1.0095    5.4558   -0.6996 N   0  0  0  0  0  0  0  0  0  0  0  0
   -0.9358    4.1596    1.4368 C   0  0  2  0  0  0  0  0  0  0  0  0
   -0.2545    4.1520    2.7677 C   0  0  2  0  0  0  0  0  0  0  0  0
   -0.5958    2.9399    3.4149 O   0  0  0  0  0  0  0  0  0  0  0  0
   -0.7055    5.3521    3.5787 C   0  0  1  0  0  0  0  0  0  0  0  0
   -0.0275    5.4415    4.8178 O   0  0  0  0  0  0  0  0  0  0  0  0
    0.0301    2.6548    4.6615 C   0  0  1  0  0  0  0  0  0  0  0  0
   -1.0047    2.8788    5.7662 C   0  0  2  0  0  0  0  0  0  0  0  0
   -0.3618    3.4125    6.9084 O   0  0  0  0  0  0  0  0  0  0  0  0
   -1.5536    1.4644    5.9968 C   0  0  2  0  0  0  0  0  0  0  0  0
   -2.1690    1.3114    7.2761 O   0  0  0  0  0  0  0  0  0  0  0  0
   -0.2721    0.6460    5.7963 C   0  0  2  0  0  0  0  0  0  0  0  0
    0.3912    1.2803    4.7119 O   0  0  0  0  0  0  0  0  0  0  0  0
   -0.5104   -0.8264    5.4416 C   0  0  0  0  0  0  0  0  0  0  0  0
    0.6888   -1.4726    5.0708 O   0  0  0  0  0  0  0  0  0  0  0  0
   -3.4546    1.9178    7.3936 C   0  0  2  0  0  0  0  0  0  0  0  0
   -3.9519    1.9240    8.8471 C   0  0  2  0  0  0  0  0  0  0  0  0
   -2.9721    2.5708    9.7358 N   0  0  0  0  0  0  0  0  0  0  0  0
   -4.2909    0.5034    9.3231 C   0  0  1  0  0  0  0  0  0  0  0  0
   -4.8226    0.5805   10.6316 O   0  0  0  0  0  0  0  0  0  0  0  0
   -5.3316   -0.0961    8.3621 C   0  0  2  0  0  0  0  0  0  0  0  0
   -5.6482   -1.4255    8.7320 O   0  0  0  0  0  0  0  0  0  0  0  0
   -4.8302   -0.0472    6.9041 C   0  0  1  0  0  0  0  0  0  0  0  0
   -4.3961    1.2662    6.5438 O   0  0  0  0  0  0  0  0  0  0  0  0
   -3.7662   -1.1093    6.5902 C   0  0  0  0  0  0  0  0  0  0  0  0
   -4.2808   -2.4686    6.8220 N   0  0  0  0  0  0  0  0  0  0  0  0
  1  3  1  0  0  0  0
  1  2  1  6  0  0  0
  3  4  1  1  0  0  0
  5  6  1  1  0  0  0
  5  3  1  0  0  0  0
  7  9  1  0  0  0  0
  7  5  1  0  0  0  0
  7  8  1  6  0  0  0
  9 10  1  0  0  0  0
  9 11  1  6  0  0  0
 10  1  1  0  0  0  0
 11 12  1  0  0  0  0
 13 14  1  1  0  0  0
 13 21  1  0  0  0  0
 15 13  1  0  0  0  0
 16 15  1  0  0  0  0
 16 18  1  0  0  0  0
 16 17  1  6  0  0  0
 18  2  1  6  0  0  0
 18 19  1  0  0  0  0
 19 21  1  0  0  0  0
 19 20  1  1  0  0  0
 21 22  1  1  0  0  0
 23 20  1  6  0  0  0
 23 29  1  0  0  0  0
 23 24  1  0  0  0  0
 24 26  1  0  0  0  0
 24 25  1  1  0  0  0
 26 27  1  1  0  0  0
 28 26  1  0  0  0  0
 28 30  1  6  0  0  0
 29 28  1  0  0  0  0
 30 31  1  0  0  0  0
 32 27  1  1  0  0  0
 32 40  1  0  0  0  0
 32 33  1  0  0  0  0
 33 35  1  0  0  0  0
 33 34  1  1  0  0  0
 35 37  1  0  0  0  0
 35 36  1  1  0  0  0
 37 38  1  1  0  0  0
 39 37  1  0  0  0  0
 39 41  1  1  0  0  0
 40 39  1  0  0  0  0
 42 41  1  0  0  0  0
M  END
>  <CHROM.1>
-168.53955062,-133.51891007,173.33182934,157.21159754,67.46750941,58.52939453
46.32305831,179.80619405,-98.57002623,174.82902579,105.51723373,-69.52298242
-60.89325650,74.88126158,-170.33537681,170.96532996,62.17875756,-56.56724898
68.88415444,62.19214493,59.32792378,73.91826230,-1.65089085,1.80873203,3.84729125
0.50917734,-1.17683557,-2.39780709

>  <Name>
lig.pdb

>  <RI>
0

>  <Rbt.Current_Directory>
/home/itssahil/PROJECTS/Mol_Feturizer/New_Systems/rnas/2mxs

>  <Rbt.Executable>
rbdock ($Id: //depot/dev/client3/rdock/2013.1/src/exe/rbdock.cxx#4 $)

>  <Rbt.Library>
libRbt.so (2013.1, Build901 2013/11/27)

>  <Rbt.Parameter_File>
/export/apps/rDock/src/rDock_2013.1_src/data/scripts/dock_solv.prm

>  <Rbt.Receptor>
prm/pocket_docking_6.prm

>  <SCORE>
-50.986

>  <SCORE.INTER>
-48.1775

>  <SCORE.INTER.CONST>
1

>  <SCORE.INTER.POLAR>
-6.27237

>  <SCORE.INTER.ROT>
9

>  <SCORE.INTER.SOLV>
21.1931

>  <SCORE.INTER.VDW>
-27.8748

>  <SCORE.INTER.norm>
-1.14708

>  <SCORE.INTRA>
-2.80848

>  <SCORE.INTRA.DIHEDRAL>
-7.107

>  <SCORE.INTRA.DIHEDRAL.0>
30.1357

>  <SCORE.INTRA.POLAR>
-1.32583

>  <SCORE.INTRA.POLAR.0>
-0.631696

>  <SCORE.INTRA.REPUL>
0

>  <SCORE.INTRA.REPUL.0>
0

>  <SCORE.INTRA.SOLV>
0.748175

>  <SCORE.INTRA.SOLV.lig_0>
-55.904

>  <SCORE.INTRA.VDW>
4.87877

>  <SCORE.INTRA.VDW.0>
-8.21197

>  <SCORE.INTRA.norm>
-0.0668685

>  <SCORE.RESTR>
0

>  <SCORE.RESTR.CAVITY>
0

>  <SCORE.RESTR.norm>
0

>  <SCORE.SYSTEM>
0

>  <SCORE.SYSTEM.CONST>
0

>  <SCORE.SYSTEM.DIHEDRAL>
0

>  <SCORE.SYSTEM.SOLV>
0

>  <SCORE.SYSTEM.norm>
0

>  <SCORE.heavy>
42

>  <SCORE.norm>
-1.21395

>  <RMSD>
5.981

$$$$
lig.pdb
 OpenBabel11021811453D
libRbt.so/2013.1/901 2013/11/27
 42 45  0  0  0  0  0  0  0  0999 V2000
   -0.6027    1.6887    1.9330 C   0  0  2  0  0  0  0  0  0  0  0  0
    0.3653    2.7375    2.0000 O   0  0  0  0  0  0  0  0  0  0  0  0
   -0.0479    0.3923    2.5421 C   0  0  2  0  0  0  0  0  0  0  0  0
    0.4312    0.6171    3.9184 N   0  0  0  0  0  0  0  0  0  0  0  0
    1.0614   -0.1981    1.6621 C   0  0  1  0  0  0  0  0  0  0  0  0
    1.4407   -1.4629    2.1700 O   0  0  0  0  0  0  0  0  0  0  0  0
    0.5660   -0.3576    0.2169 C   0  0  2  0  0  0  0  0  0  0  0  0
    1.6458   -0.7518   -0.6077 O   0  0  0  0  0  0  0  0  0  0  0  0
   -0.0486    0.9517   -0.3181 C   0  0  2  0  0  0  0  0  0  0  0  0
   -1.0208    1.4732    0.5874 O   0  0  0  0  0  0  0  0  0  0  0  0
   -0.7110    0.6502   -1.6758 C   0  0  0  0  0  0  0  0  0  0  0  0
   -1.1931    1.8545   -2.3296 O   0  0  0  0  0  0  0  0  0  0  0  0
    0.4039    6.6916    0.2989 C   0  0  2  0  0  0  0  0  0  0  0  0
    0.0249    7.6794   -0.7312 N   0  0  0  0  0  0  0  0  0  0  0  0
    1.1983    5.5446   -0.3307 C   0  0  0  0  0  0  0  0  0  0  0  0
    1.4715    4.4531    0.6973 C   0  0  2  0  0  0  0  0  0  0  0  0
    2.3166    3.4050    0.1114 N   0  0  0  0  0  0  0  0  0  0  0  0
    0.1159    3.8962    1.1911 C   0  0  2  0  0  0  0  0  0  0  0  0
   -0.5917    4.9747    1.9472 C   0  0  2  0  0  0  0  0  0  0  0  0
   -1.8091    4.4323    2.4252 O   0  0  0  0  0  0  0  0  0  0  0  0
   -0.8412    6.1593    1.0330 C   0  0  1  0  0  0  0  0  0  0  0  0
   -1.4349    7.2450    1.7198 O   0  0  0  0  0  0  0  0  0  0  0  0
   -2.4477    5.0932    3.5125 C   0  0  1  0  0  0  0  0  0  0  0  0
   -3.7180    4.3113    3.8537 C   0  0  2  0  0  0  0  0  0  0  0  0
   -4.7328    5.2158    4.2475 O   0  0  0  0  0  0  0  0  0  0  0  0
   -3.2500    3.4039    4.9994 C   0  0  2  0  0  0  0  0  0  0  0  0
   -4.3287    2.9304    5.8062 O   0  0  0  0  0  0  0  0  0  0  0  0
   -2.2812    4.3550    5.7129 C   0  0  2  0  0  0  0  0  0  0  0  0
   -1.6126    5.0387    4.6622 O   0  0  0  0  0  0  0  0  0  0  0  0
   -1.2395    3.6544    6.5930 C   0  0  0  0  0  0  0  0  0  0  0  0
   -0.7638    2.4688    5.9920 O   0  0  0  0  0  0  0  0  0  0  0  0
   -5.0599    1.8434    5.2424 C   0  0  2  0  0  0  0  0  0  0  0  0
   -6.5748    2.0160    5.4307 C   0  0  2  0  0  0  0  0  0  0  0  0
   -7.0292    3.3062    4.8858 N   0  0  0  0  0  0  0  0  0  0  0  0
   -6.9717    1.8577    6.9062 C   0  0  1  0  0  0  0  0  0  0  0  0
   -8.3802    1.9400    7.0062 O   0  0  0  0  0  0  0  0  0  0  0  0
   -6.4844    0.4835    7.3961 C   0  0  2  0  0  0  0  0  0  0  0  0
   -6.7878    0.3036    8.7672 O   0  0  0  0  0  0  0  0  0  0  0  0
   -4.9705    0.3147    7.1525 C   0  0  1  0  0  0  0  0  0  0  0  0
   -4.6233    0.6042    5.7964 O   0  0  0  0  0  0  0  0  0  0  0  0
   -4.1027    1.0999    8.1470 C   0  0  0  0  0  0  0  0  0  0  0  0
   -2.6736    0.7974    7.9668 N   0  0  0  0  0  0  0  0  0  0  0  0
  1  3  1  0  0  0  0
  1  2  1  6  0  0  0
  3  4  1  1  0  0  0
  5  6  1  1  0  0  0
  5  3  1  0  0  0  0
  7  9  1  0  0  0  0
  7  5  1  0  0  0  0
  7  8  1  6  0  0  0
  9 10  1  0  0  0  0
  9 11  1  6  0  0  0
 10  1  1  0  0  0  0
 11 12  1  0  0  0  0
 13 14  1  6  0  0  0
 13 21  1  0  0  0  0
 15 13  1  0  0  0  0
 16 15  1  0  0  0  0
 16 18  1  0  0  0  0
 16 17  1  6  0  0  0
 18  2  1  1  0  0  0
 18 19  1  0  0  0  0
 19 21  1  0  0  0  0
 19 20  1  6  0  0  0
 21 22  1  1  0  0  0
 23 20  1  6  0  0  0
 23 29  1  0  0  0  0
 23 24  1  0  0  0  0
 24 26  1  0  0  0  0
 24 25  1  1  0  0  0
 26 27  1  1  0  0  0
 28 26  1  0  0  0  0
 28 30  1  6  0  0  0
 29 28  1  0  0  0  0
 30 31  1  0  0  0  0
 32 27  1  1  0  0  0
 32 40  1  0  0  0  0
 32 33  1  0  0  0  0
 33 35  1  0  0  0  0
 33 34  1  1  0  0  0
 35 37  1  0  0  0  0
 35 36  1  6  0  0  0
 37 38  1  1  0  0  0
 39 37  1  0  0  0  0
 39 41  1  1  0  0  0
 40 39  1  0  0  0  0
 42 41  1  0  0  0  0
M  END
>  <CHROM.1>
-145.75460797,165.36114544,-66.02018302,-176.74697558,156.70794976,-52.73773468
-173.73522696,-99.07255199,63.31755259,160.01892512,-179.15112625,175.86583533
-30.25086886,78.83138437,-137.49162909,39.00469794,69.13260357,-157.01045510
63.80628433,159.85538918,173.98570205,-177.85110215,-2.03272946,2.68268950
3.30361734,-0.33605518,-0.78244818,2.87738693

>  <Name>
lig.pdb

>  <RI>
0

>  <Rbt.Current_Directory>
/home/itssahil/PROJECTS/Mol_Feturizer/New_Systems/rnas/2mxs

>  <Rbt.Executable>
rbdock ($Id: //depot/dev/client3/rdock/2013.1/src/exe/rbdock.cxx#4 $)

>  <Rbt.Library>
libRbt.so (2013.1, Build901 2013/11/27)

>  <Rbt.Parameter_File>
/export/apps/rDock/src/rDock_2013.1_src/data/scripts/dock_solv.prm

>  <Rbt.Receptor>
prm/pocket_docking_7.prm

>  <SCORE>
-41.4522

>  <SCORE.INTER>
-38.926

>  <SCORE.INTER.CONST>
1

>  <SCORE.INTER.POLAR>
-5.76515

>  <SCORE.INTER.ROT>
9

>  <SCORE.INTER.SOLV>
18.4233

>  <SCORE.INTER.VDW>
-22.4746

>  <SCORE.INTER.norm>
-0.92681

>  <SCORE.INTRA>
-2.52621

>  <SCORE.INTRA.DIHEDRAL>
-0.750337

>  <SCORE.INTRA.DIHEDRAL.0>
30.1357

>  <SCORE.INTRA.POLAR>
-1.49538

>  <SCORE.INTRA.POLAR.0>
-0.631696

>  <SCORE.INTRA.REPUL>
0

>  <SCORE.INTRA.REPUL.0>
0

>  <SCORE.INTRA.SOLV>
0.837751

>  <SCORE.INTRA.SOLV.lig_0>
-55.904

>  <SCORE.INTRA.VDW>
2.51437

>  <SCORE.INTRA.VDW.0>
-8.21197

>  <SCORE.INTRA.norm>
-0.0601477

>  <SCORE.RESTR>
0

>  <SCORE.RESTR.CAVITY>
0

>  <SCORE.RESTR.norm>
0

>  <SCORE.SYSTEM>
0

>  <SCORE.SYSTEM.CONST>
0

>  <SCORE.SYSTEM.DIHEDRAL>
0

>  <SCORE.SYSTEM.SOLV>
0

>  <SCORE.SYSTEM.norm>
0

>  <SCORE.heavy>
42

>  <SCORE.norm>
-0.986958

>  <RMSD>
5.984

$$$$
lig.pdb
 OpenBabel11021811453D
libRbt.so/2013.1/901 2013/11/27
 42 45  0  0  0  0  0  0  0  0999 V2000
    1.6815    1.8594    1.0945 C   0  0  2  0  0  0  0  0  0  0  0  0
    2.8767    2.3745    0.5048 O   0  0  0  0  0  0  0  0  0  0  0  0
    1.8718    0.3987    1.5299 C   0  0  2  0  0  0  0  0  0  0  0  0
    3.0356    0.2606    2.4249 N   0  0  0  0  0  0  0  0  0  0  0  0
    2.0005   -0.5257    0.3123 C   0  0  1  0  0  0  0  0  0  0  0  0
    2.0203   -1.8725    0.7452 O   0  0  0  0  0  0  0  0  0  0  0  0
    0.8161   -0.3155   -0.6430 C   0  0  2  0  0  0  0  0  0  0  0  0
    1.0330   -1.0566   -1.8283 O   0  0  0  0  0  0  0  0  0  0  0  0
    0.6248    1.1756   -0.9871 C   0  0  2  0  0  0  0  0  0  0  0  0
    0.5832    1.9764    0.1935 O   0  0  0  0  0  0  0  0  0  0  0  0
   -0.6983    1.3223   -1.7623 C   0  0  0  0  0  0  0  0  0  0  0  0
   -0.9315    2.6896   -2.1941 O   0  0  0  0  0  0  0  0  0  0  0  0
    3.3892    5.8692   -1.9560 C   0  0  2  0  0  0  0  0  0  0  0  0
    3.0258    6.7349   -3.0957 N   0  0  0  0  0  0  0  0  0  0  0  0
    3.7927    4.4784   -2.4518 C   0  0  0  0  0  0  0  0  0  0  0  0
    4.0330    3.5382   -1.2765 C   0  0  2  0  0  0  0  0  0  0  0  0
    4.5139    2.2372   -1.7581 N   0  0  0  0  0  0  0  0  0  0  0  0
    2.7160    3.4095   -0.4762 C   0  0  2  0  0  0  0  0  0  0  0  0
    2.4065    4.7349    0.1425 C   0  0  2  0  0  0  0  0  0  0  0  0
    1.2219    4.5845    0.9032 O   0  0  0  0  0  0  0  0  0  0  0  0
    2.2304    5.7773   -0.9455 C   0  0  1  0  0  0  0  0  0  0  0  0
    2.0181    7.0711   -0.4126 O   0  0  0  0  0  0  0  0  0  0  0  0
    0.0151    5.1117    0.3623 C   0  0  1  0  0  0  0  0  0  0  0  0
   -1.1530    4.3663    1.0114 C   0  0  2  0  0  0  0  0  0  0  0  0
   -2.1873    4.1980    0.0602 O   0  0  0  0  0  0  0  0  0  0  0  0
   -1.5461    5.3043    2.1606 C   0  0  2  0  0  0  0  0  0  0  0  0
   -2.8822    5.0908    2.6167 O   0  0  0  0  0  0  0  0  0  0  0  0
   -1.3033    6.6622    1.4903 C   0  0  2  0  0  0  0  0  0  0  0  0
   -0.1168    6.4789    0.7306 O   0  0  0  0  0  0  0  0  0  0  0  0
   -1.0931    7.8229    2.4696 C   0  0  0  0  0  0  0  0  0  0  0  0
   -1.1980    9.0738    1.8235 O   0  0  0  0  0  0  0  0  0  0  0  0
   -3.2751    5.9152    3.7122 C   0  0  2  0  0  0  0  0  0  0  0  0
   -2.3709    5.7065    4.9365 C   0  0  2  0  0  0  0  0  0  0  0  0
   -0.9560    5.9184    4.5881 N   0  0  0  0  0  0  0  0  0  0  0  0
   -2.5947    4.3212    5.5613 C   0  0  1  0  0  0  0  0  0  0  0  0
   -1.8029    4.2192    6.7290 O   0  0  0  0  0  0  0  0  0  0  0  0
   -4.0848    4.1831    5.9170 C   0  0  2  0  0  0  0  0  0  0  0  0
   -4.3543    2.9032    6.4589 O   0  0  0  0  0  0  0  0  0  0  0  0
   -4.9739    4.4444    4.6838 C   0  0  1  0  0  0  0  0  0  0  0  0
   -4.6403    5.6820    4.0511 O   0  0  0  0  0  0  0  0  0  0  0  0
   -4.9903    3.2764    3.6867 C   0  0  0  0  0  0  0  0  0  0  0  0
   -5.8388    2.1737    4.1666 N   0  0  0  0  0  0  0  0  0  0  0  0
  1  3  1  0  0  0  0
  1  2  1  6  0  0  0
  3  4  1  1  0  0  0
  5  6  1  1  0  0  0
  5  3  1  0  0  0  0
  7  9  1  0  0  0  0
  7  5  1  0  0  0  0
  7  8  1  6  0  0  0
  9 10  1  0  0  0  0
  9 11  1  1  0  0  0
 10  1  1  0  0  0  0
 11 12  1  0  0  0  0
 13 14  1  6  0  0  0
 13 21  1  0  0  0  0
 15 13  1  0  0  0  0
 16 15  1  0  0  0  0
 16 18  1  0  0  0  0
 16 17  1  6  0  0  0
 18  2  1  1  0  0  0
 18 19  1  0  0  0  0
 19 21  1  0  0  0  0
 19 20  1  6  0  0  0
 21 22  1  1  0  0  0
 23 20  1  1  0  0  0
 23 29  1  0  0  0  0
 23 24  1  0  0  0  0
 24 26  1  0  0  0  0
 24 25  1  6  0  0  0
 26 27  1  6  0  0  0
 28 26  1  0  0  0  0
 28 30  1  1  0  0  0
 29 28  1  0  0  0  0
 30 31  1  0  0  0  0
 32 27  1  6  0  0  0
 32 40  1  0  0  0  0
 32 33  1  0  0  0  0
 33 35  1  0  0  0  0
 33 34  1  6  0  0  0
 35 37  1  0  0  0  0
 35 36  1  1  0  0  0
 37 38  1  6  0  0  0
 39 37  1  0  0  0  0
 39 41  1  6  0  0  0
 40 39  1  0  0  0  0
 42 41  1  0  0  0  0
M  END
>  <CHROM.1>
-163.68691841,151.46416671,151.96098524,65.72551266,-57.91910232,-73.23837236
-176.94190474,-42.73991749,-38.77195388,-104.14169184,157.07830969,-162.92763126
-159.32730928,178.19861935,-59.31395719,-165.74169690,-170.77356724,-36.01688720
-69.00731209,68.49700391,76.49181751,-38.27947835,-0.17592332,3.78746398
1.32436092,0.21772779,-0.75759258,3.06784082

>  <Name>
lig.pdb

>  <RI>
0

>  <Rbt.Current_Directory>
/home/itssahil/PROJECTS/Mol_Feturizer/New_Systems/rnas/2mxs

>  <Rbt.Executable>
rbdock ($Id: //depot/dev/client3/rdock/2013.1/src/exe/rbdock.cxx#4 $)

>  <Rbt.Library>
libRbt.so (2013.1, Build901 2013/11/27)

>  <Rbt.Parameter_File>
/export/apps/rDock/src/rDock_2013.1_src/data/scripts/dock_solv.prm

>  <Rbt.Receptor>
prm/blind_docking_20.prm

>  <SCORE>
29.2634

>  <SCORE.INTER>
-3.71533

>  <SCORE.INTER.CONST>
1

>  <SCORE.INTER.POLAR>
-3.5425

>  <SCORE.INTER.ROT>
9

>  <SCORE.INTER.SOLV>
30.8008

>  <SCORE.INTER.VDW>
-10.5355

>  <SCORE.INTER.norm>
-0.0884601

>  <SCORE.INTRA>
11.7094

>  <SCORE.INTRA.DIHEDRAL>
-4.04509

>  <SCORE.INTRA.DIHEDRAL.0>
30.1357

>  <SCORE.INTRA.POLAR>
-1.84409

>  <SCORE.INTRA.POLAR.0>
-0.631696

>  <SCORE.INTRA.REPUL>
0

>  <SCORE.INTRA.REPUL.0>
0

>  <SCORE.INTRA.SOLV>
0.783873

>  <SCORE.INTRA.SOLV.lig_0>
-55.904

>  <SCORE.INTRA.VDW>
19.6099

>  <SCORE.INTRA.VDW.0>
-8.21197

>  <SCORE.INTRA.norm>
0.278794

>  <SCORE.RESTR>
21.2694

>  <SCORE.RESTR.CAVITY>
21.2694

>  <SCORE.RESTR.norm>
0.506414

>  <SCORE.SYSTEM>
0

>  <SCORE.SYSTEM.CONST>
0

>  <SCORE.SYSTEM.DIHEDRAL>
0

>  <SCORE.SYSTEM.SOLV>
0

>  <SCORE.SYSTEM.norm>
0

>  <SCORE.heavy>
42

>  <SCORE.norm>
0.696748

>  <RMSD>
5.988

$$$$
lig.pdb
 OpenBabel11021811453D
libRbt.so/2013.1/901 2013/11/27
 42 45  0  0  0  0  0  0  0  0999 V2000
   -1.6186    0.5090    2.9722 C   0  0  2  0  0  0  0  0  0  0  0  0
   -0.9622    1.1851    1.8982 O   0  0  0  0  0  0  0  0  0  0  0  0
   -1.0834   -0.9227    3.1259 C   0  0  2  0  0  0  0  0  0  0  0  0
    0.3828   -0.9254    3.2828 N   0  0  0  0  0  0  0  0  0  0  0  0
   -1.5125   -1.8001    1.9429 C   0  0  1  0  0  0  0  0  0  0  0  0
   -1.1349   -3.1407    2.1912 O   0  0  0  0  0  0  0  0  0  0  0  0
   -3.0348   -1.7273    1.7510 C   0  0  2  0  0  0  0  0  0  0  0  0
   -3.3908   -2.4122    0.5654 O   0  0  0  0  0  0  0  0  0  0  0  0
   -3.5265   -0.2674    1.6783 C   0  0  2  0  0  0  0  0  0  0  0  0
   -3.0303    0.4995    2.7749 O   0  0  0  0  0  0  0  0  0  0  0  0
   -5.0668   -0.2789    1.7061 C   0  0  0  0  0  0  0  0  0  0  0  0
   -5.6243   -1.2445    0.7750 O   0  0  0  0  0  0  0  0  0  0  0  0
   -0.3567    5.4133    1.3628 C   0  0  2  0  0  0  0  0  0  0  0  0
   -0.8354    6.8088    1.3014 N   0  0  0  0  0  0  0  0  0  0  0  0
   -1.0509    4.5653    0.2941 C   0  0  0  0  0  0  0  0  0  0  0  0
   -0.6686    3.0973    0.4417 C   0  0  2  0  0  0  0  0  0  0  0  0
   -1.2601    2.3076   -0.6456 N   0  0  0  0  0  0  0  0  0  0  0  0
   -1.1341    2.6083    1.8329 C   0  0  2  0  0  0  0  0  0  0  0  0
   -0.3388    3.3245    2.8770 C   0  0  2  0  0  0  0  0  0  0  0  0
   -0.7506    2.8327    4.1391 O   0  0  0  0  0  0  0  0  0  0  0  0
   -0.5790    4.8183    2.7660 C   0  0  1  0  0  0  0  0  0  0  0  0
    0.2152    5.5536    3.6779 O   0  0  0  0  0  0  0  0  0  0  0  0
    0.2439    2.6734    5.1453 C   0  0  1  0  0  0  0  0  0  0  0  0
   -0.2942    3.2929    6.4368 C   0  0  2  0  0  0  0  0  0  0  0  0
    0.7709    3.8999    7.1439 O   0  0  0  0  0  0  0  0  0  0  0  0
   -0.8794    2.0771    7.1679 C   0  0  2  0  0  0  0  0  0  0  0  0
   -1.0087    2.2866    8.5744 O   0  0  0  0  0  0  0  0  0  0  0  0
    0.1444    1.0078    6.7672 C   0  0  2  0  0  0  0  0  0  0  0  0
    0.4421    1.2897    5.4070 O   0  0  0  0  0  0  0  0  0  0  0  0
   -0.3691   -0.4326    6.8764 C   0  0  0  0  0  0  0  0  0  0  0  0
   -1.7791   -0.4870    6.8305 O   0  0  0  0  0  0  0  0  0  0  0  0
   -1.5242    1.1701    9.2967 C   0  0  2  0  0  0  0  0  0  0  0  0
   -2.1686    1.5975   10.6242 C   0  0  2  0  0  0  0  0  0  0  0  0
   -3.2081    2.6161   10.4007 N   0  0  0  0  0  0  0  0  0  0  0  0
   -1.1086    2.0856   11.6232 C   0  0  1  0  0  0  0  0  0  0  0  0
   -1.7472    2.3823   12.8500 O   0  0  0  0  0  0  0  0  0  0  0  0
   -0.0742    0.9646   11.8210 C   0  0  2  0  0  0  0  0  0  0  0  0
    0.9524    1.3798   12.7031 O   0  0  0  0  0  0  0  0  0  0  0  0
    0.5232    0.5191   10.4704 C   0  0  1  0  0  0  0  0  0  0  0  0
   -0.5006    0.2038    9.5239 O   0  0  0  0  0  0  0  0  0  0  0  0
    1.5459    1.5127    9.8997 C   0  0  0  0  0  0  0  0  0  0  0  0
    2.6356    1.7688   10.8553 N   0  0  0  0  0  0  0  0  0  0  0  0
  1  3  1  0  0  0  0
  1  2  1  6  0  0  0
  3  4  1  6  0  0  0
  5  6  1  1  0  0  0
  5  3  1  0  0  0  0
  7  9  1  0  0  0  0
  7  5  1  0  0  0  0
  7  8  1  6  0  0  0
  9 10  1  0  0  0  0
  9 11  1  1  0  0  0
 10  1  1  0  0  0  0
 11 12  1  0  0  0  0
 13 14  1  1  0  0  0
 13 21  1  0  0  0  0
 15 13  1  0  0  0  0
 16 15  1  0  0  0  0
 16 18  1  0  0  0  0
 16 17  1  6  0  0  0
 18  2  1  6  0  0  0
 18 19  1  0  0  0  0
 19 21  1  0  0  0  0
 19 20  1  1  0  0  0
 21 22  1  1  0  0  0
 23 20  1  6  0  0  0
 23 29  1  0  0  0  0
 23 24  1  0  0  0  0
 24 26  1  0  0  0  0
 24 25  1  1  0  0  0
 26 27  1  1  0  0  0
 28 26  1  0  0  0  0
 28 30  1  6  0  0  0
 29 28  1  0  0  0  0
 30 31  1  0  0  0  0
 32 27  1  1  0  0  0
 32 40  1  0  0  0  0
 32 33  1  0  0  0  0
 33 35  1  0  0  0  0
 33 34  1  6  0  0  0
 35 37  1  0  0  0  0
 35 36  1  1  0  0  0
 37 38  1  1  0  0  0
 39 37  1  0  0  0  0
 39 41  1  6  0  0  0
 40 39  1  0  0  0  0
 42 41  1  0  0  0  0
M  END
>  <CHROM.1>
-165.79845540,-166.13685933,179.25095314,-68.34068928,58.60689927,-91.99747174
-47.57393090,-140.91236085,-30.49277693,142.68986759,132.73229672,175.85423011
-174.06172060,-178.78811755,-156.69962730,22.29085646,-147.73603783,-56.94074190
67.43966370,168.01972534,56.14048867,68.84644725,-1.04294153,1.47845207,5.33204767
2.06909348,-1.16969187,-1.16564391

>  <Name>
lig.pdb

>  <RI>
0

>  <Rbt.Current_Directory>
/home/itssahil/PROJECTS/Mol_Feturizer/New_Systems/rnas/2mxs

>  <Rbt.Executable>
rbdock ($Id: //depot/dev/client3/rdock/2013.1/src/exe/rbdock.cxx#4 $)

>  <Rbt.Library>
libRbt.so (2013.1, Build901 2013/11/27)

>  <Rbt.Parameter_File>
/export/apps/rDock/src/rDock_2013.1_src/data/scripts/dock_solv.prm

>  <Rbt.Receptor>
prm/pocket_docking_4.prm

>  <SCORE>
-32.2091

>  <SCORE.INTER>
-36.0345

>  <SCORE.INTER.CONST>
1

>  <SCORE.INTER.POLAR>
-6.31817

>  <SCORE.INTER.ROT>
9

>  <SCORE.INTER.SOLV>
13.9396

>  <SCORE.INTER.VDW>
-17.209

>  <SCORE.INTER.norm>
-0.857964

>  <SCORE.INTRA>
3.80109

>  <SCORE.INTRA.DIHEDRAL>
4.5694

>  <SCORE.INTRA.DIHEDRAL.0>
30.1357

>  <SCORE.INTRA.POLAR>
-0.988458

>  <SCORE.INTRA.POLAR.0>
-0.631696

>  <SCORE.INTRA.REPUL>
0

>  <SCORE.INTRA.REPUL.0>
0

>  <SCORE.INTRA.SOLV>
1.58062

>  <SCORE.INTRA.SOLV.lig_0>
-55.904

>  <SCORE.INTRA.VDW>
4.08683

>  <SCORE.INTRA.VDW.0>
-8.21197

>  <SCORE.INTRA.norm>
0.0905021

>  <SCORE.RESTR>
0.0242975

>  <SCORE.RESTR.CAVITY>
0.0242975

>  <SCORE.RESTR.norm>
0.000578511

>  <SCORE.SYSTEM>
0

>  <SCORE.SYSTEM.CONST>
0

>  <SCORE.SYSTEM.DIHEDRAL>
0

>  <SCORE.SYSTEM.SOLV>
0

>  <SCORE.SYSTEM.norm>
0

>  <SCORE.heavy>
42

>  <SCORE.norm>
-0.766883

>  <RMSD>
5.995

$$$$
lig.pdb
 OpenBabel11021811453D
libRbt.so/2013.1/901 2013/11/27
 42 45  0  0  0  0  0  0  0  0999 V2000
   -1.0257    4.1451    1.5061 C   0  0  2  0  0  0  0  0  0  0  0  0
   -0.7026    4.7825    0.2689 O   0  0  0  0  0  0  0  0  0  0  0  0
   -2.4602    3.5962    1.4806 C   0  0  2  0  0  0  0  0  0  0  0  0
   -2.6638    2.7015    0.3263 N   0  0  0  0  0  0  0  0  0  0  0  0
   -3.4857    4.7372    1.4807 C   0  0  1  0  0  0  0  0  0  0  0  0
   -4.7874    4.1987    1.6112 O   0  0  0  0  0  0  0  0  0  0  0  0
   -3.2129    5.6978    2.6481 C   0  0  2  0  0  0  0  0  0  0  0  0
   -4.0648    6.8219    2.5387 O   0  0  0  0  0  0  0  0  0  0  0  0
   -1.7412    6.1581    2.6695 C   0  0  2  0  0  0  0  0  0  0  0  0
   -0.8511    5.0447    2.5980 O   0  0  0  0  0  0  0  0  0  0  0  0
   -1.5008    6.9330    3.9791 C   0  0  0  0  0  0  0  0  0  0  0  0
   -0.4440    7.9207    3.8451 O   0  0  0  0  0  0  0  0  0  0  0  0
    3.0120    4.9252   -1.9020 C   0  0  2  0  0  0  0  0  0  0  0  0
    4.4823    5.0368   -1.9783 N   0  0  0  0  0  0  0  0  0  0  0  0
    2.4160    6.1793   -1.2576 C   0  0  0  0  0  0  0  0  0  0  0  0
    0.9157    6.0132   -1.0467 C   0  0  2  0  0  0  0  0  0  0  0  0
    0.3373    7.2557   -0.5198 N   0  0  0  0  0  0  0  0  0  0  0  0
    0.6853    4.8170   -0.0941 C   0  0  2  0  0  0  0  0  0  0  0  0
    1.1213    3.5673   -0.7896 C   0  0  2  0  0  0  0  0  0  0  0  0
    0.8635    2.4818    0.0821 O   0  0  0  0  0  0  0  0  0  0  0  0
    2.5972    3.6599   -1.1278 C   0  0  1  0  0  0  0  0  0  0  0  0
    3.0455    2.5369   -1.8634 O   0  0  0  0  0  0  0  0  0  0  0  0
    1.5344    2.4659    1.3377 C   0  0  1  0  0  0  0  0  0  0  0  0
    0.5507    1.9433    2.3868 C   0  0  2  0  0  0  0  0  0  0  0  0
    0.7700    2.6180    3.6113 O   0  0  0  0  0  0  0  0  0  0  0  0
    0.9031    0.4513    2.4562 C   0  0  2  0  0  0  0  0  0  0  0  0
    0.4779   -0.1617    3.6737 O   0  0  0  0  0  0  0  0  0  0  0  0
    2.4235    0.5284    2.2704 C   0  0  2  0  0  0  0  0  0  0  0  0
    2.6133    1.5407    1.2918 O   0  0  0  0  0  0  0  0  0  0  0  0
    3.0673   -0.7713    1.7736 C   0  0  0  0  0  0  0  0  0  0  0  0
    2.8491   -0.9648    0.3923 O   0  0  0  0  0  0  0  0  0  0  0  0
   -0.6771    0.4300    4.2653 C   0  0  2  0  0  0  0  0  0  0  0  0
   -0.4450    0.7815    5.7427 C   0  0  2  0  0  0  0  0  0  0  0  0
    0.7377    1.6446    5.8987 N   0  0  0  0  0  0  0  0  0  0  0  0
   -0.3336   -0.4860    6.6032 C   0  0  1  0  0  0  0  0  0  0  0  0
   -0.2079   -0.1019    7.9587 O   0  0  0  0  0  0  0  0  0  0  0  0
   -1.6093   -1.3222    6.4048 C   0  0  2  0  0  0  0  0  0  0  0  0
   -1.5393   -2.5269    7.1453 O   0  0  0  0  0  0  0  0  0  0  0  0
   -1.8473   -1.6213    4.9103 C   0  0  1  0  0  0  0  0  0  0  0  0
   -1.8076   -0.4275    4.1250 O   0  0  0  0  0  0  0  0  0  0  0  0
   -0.9162   -2.7071    4.3509 C   0  0  0  0  0  0  0  0  0  0  0  0
   -0.7959   -2.6083    2.8874 N   0  0  0  0  0  0  0  0  0  0  0  0
  1  3  1  0  0  0  0
  1  2  1  6  0  0  0
  3  4  1  6  0  0  0
  5  6  1  1  0  0  0
  5  3  1  0  0  0  0
  7  9  1  0  0  0  0
  7  5  1  0  0  0  0
  7  8  1  6  0  0  0
  9 10  1  0  0  0  0
  9 11  1  1  0  0  0
 10  1  1  0  0  0  0
 11 12  1  0  0  0  0
 13 14  1  1  0  0  0
 13 21  1  0  0  0  0
 15 13  1  0  0  0  0
 16 15  1  0  0  0  0
 16 18  1  0  0  0  0
 16 17  1  1  0  0  0
 18  2  1  6  0  0  0
 18 19  1  0  0  0  0
 19 21  1  0  0  0  0
 19 20  1  1  0  0  0
 21 22  1  6  0  0  0
 23 20  1  6  0  0  0
 23 29  1  0  0  0  0
 23 24  1  0  0  0  0
 24 26  1  0  0  0  0
 24 25  1  1  0  0  0
 26 27  1  1  0  0  0
 28 26  1  0  0  0  0
 28 30  1  6  0  0  0
 29 28  1  0  0  0  0
 30 31  1  0  0  0  0
 32 27  1  1  0  0  0
 32 40  1  0  0  0  0
 32 33  1  0  0  0  0
 33 35  1  0  0  0  0
 33 34  1  6  0  0  0
 35 37  1  0  0  0  0
 35 36  1  1  0  0  0
 37 38  1  1  0  0  0
 39 37  1  0  0  0  0
 39 41  1  6  0  0  0
 40 39  1  0  0  0  0
 42 41  1  0  0  0  0
M  END
>  <CHROM.1>
-155.23593578,-153.55909048,-177.18235162,-169.48091948,58.99270697,-172.47318187
-152.20227435,-175.44564332,-62.65840587,-61.40251747,141.42311199,-169.77382961
76.51634849,29.12078308,-128.20408884,76.78192856,76.16787481,50.81615756
68.58168687,-38.92373711,-158.11008462,174.61612192,-0.04268805,2.56954265
2.24649334,1.38004891,0.69965554,-0.56630578

>  <Name>
lig.pdb

>  <RI>
0

>  <Rbt.Current_Directory>
/home/itssahil/PROJECTS/Mol_Feturizer/New_Systems/rnas/2mxs

>  <Rbt.Executable>
rbdock ($Id: //depot/dev/client3/rdock/2013.1/src/exe/rbdock.cxx#4 $)

>  <Rbt.Library>
libRbt.so (2013.1, Build901 2013/11/27)

>  <Rbt.Parameter_File>
/export/apps/rDock/src/rDock_2013.1_src/data/scripts/dock_solv.prm

>  <Rbt.Receptor>
prm/blind_docking_80.prm

>  <SCORE>
-14.2456

>  <SCORE.INTER>
-30.2785

>  <SCORE.INTER.CONST>
1

>  <SCORE.INTER.POLAR>
-3.76881

>  <SCORE.INTER.ROT>
9

>  <SCORE.INTER.SOLV>
30.0612

>  <SCORE.INTER.VDW>
-27.2433

>  <SCORE.INTER.norm>
-0.720916

>  <SCORE.INTRA>
3.11872

>  <SCORE.INTRA.DIHEDRAL>
2.90624

>  <SCORE.INTRA.DIHEDRAL.0>
30.1357

>  <SCORE.INTRA.POLAR>
-1.23473

>  <SCORE.INTRA.POLAR.0>
-0.631696

>  <SCORE.INTRA.REPUL>
0.00505642

>  <SCORE.INTRA.REPUL.0>
0

>  <SCORE.INTRA.SOLV>
1.05622

>  <SCORE.INTRA.SOLV.lig_0>
-55.904

>  <SCORE.INTRA.VDW>
5.31029

>  <SCORE.INTRA.VDW.0>
-8.21197

>  <SCORE.INTRA.norm>
0.0742553

>  <SCORE.RESTR>
12.9141

>  <SCORE.RESTR.CAVITY>
12.9141

>  <SCORE.RESTR.norm>
0.307478

>  <SCORE.SYSTEM>
0

>  <SCORE.SYSTEM.CONST>
0

>  <SCORE.SYSTEM.DIHEDRAL>
0

>  <SCORE.SYSTEM.SOLV>
0

>  <SCORE.SYSTEM.norm>
0

>  <SCORE.heavy>
42

>  <SCORE.norm>
-0.339182

>  <RMSD>
6.002

$$$$
lig.pdb
 OpenBabel11021811453D
libRbt.so/2013.1/901 2013/11/27
 42 45  0  0  0  0  0  0  0  0999 V2000
   -1.3704    4.4555    1.3941 C   0  0  2  0  0  0  0  0  0  0  0  0
   -0.9097    5.1419    0.2287 O   0  0  0  0  0  0  0  0  0  0  0  0
   -2.8041    4.8789    1.7476 C   0  0  2  0  0  0  0  0  0  0  0  0
   -3.7097    4.6909    0.5992 N   0  0  0  0  0  0  0  0  0  0  0  0
   -2.8417    6.3289    2.2473 C   0  0  1  0  0  0  0  0  0  0  0  0
   -4.1449    6.6339    2.7058 O   0  0  0  0  0  0  0  0  0  0  0  0
   -1.8399    6.5222    3.3956 C   0  0  2  0  0  0  0  0  0  0  0  0
   -1.7750    7.8942    3.7347 O   0  0  0  0  0  0  0  0  0  0  0  0
   -0.4358    6.0120    3.0130 C   0  0  2  0  0  0  0  0  0  0  0  0
   -0.4931    4.6837    2.4941 O   0  0  0  0  0  0  0  0  0  0  0  0
    0.4445    6.0393    4.2770 C   0  0  0  0  0  0  0  0  0  0  0  0
    0.0876    4.9898    5.2159 O   0  0  0  0  0  0  0  0  0  0  0  0
    2.9235    4.9323   -1.7190 C   0  0  2  0  0  0  0  0  0  0  0  0
    4.4000    4.9362   -1.7110 N   0  0  0  0  0  0  0  0  0  0  0  0
    2.3850    6.2507   -1.1578 C   0  0  0  0  0  0  0  0  0  0  0  0
    0.8669    6.2002   -1.0314 C   0  0  2  0  0  0  0  0  0  0  0  0
    0.3518    7.5010   -0.5860 N   0  0  0  0  0  0  0  0  0  0  0  0
    0.4955    5.0631   -0.0513 C   0  0  2  0  0  0  0  0  0  0  0  0
    0.8780    3.7583   -0.6732 C   0  0  2  0  0  0  0  0  0  0  0  0
    0.4920    2.7303    0.2205 O   0  0  0  0  0  0  0  0  0  0  0  0
    2.3737    3.7322   -0.9254 C   0  0  1  0  0  0  0  0  0  0  0  0
    2.7799    2.5512   -1.5912 O   0  0  0  0  0  0  0  0  0  0  0  0
    1.2661    2.5537    1.4022 C   0  0  1  0  0  0  0  0  0  0  0  0
    0.3273    2.0659    2.5076 C   0  0  2  0  0  0  0  0  0  0  0  0
    0.7298    2.6246    3.7440 O   0  0  0  0  0  0  0  0  0  0  0  0
    0.5138    0.5436    2.4518 C   0  0  2  0  0  0  0  0  0  0  0  0
    0.1325   -0.1054    3.6651 O   0  0  0  0  0  0  0  0  0  0  0  0
    2.0105    0.4711    2.1252 C   0  0  2  0  0  0  0  0  0  0  0  0
    2.2253    1.5243    1.1962 O   0  0  0  0  0  0  0  0  0  0  0  0
    2.4565   -0.8513    1.4905 C   0  0  0  0  0  0  0  0  0  0  0  0
    3.6617   -0.7023    0.7705 O   0  0  0  0  0  0  0  0  0  0  0  0
    0.2066   -1.5291    3.6264 C   0  0  2  0  0  0  0  0  0  0  0  0
   -1.1705   -2.1659    3.3853 C   0  0  2  0  0  0  0  0  0  0  0  0
   -1.7918   -1.6290    2.1631 N   0  0  0  0  0  0  0  0  0  0  0  0
   -2.0853   -1.9872    4.6062 C   0  0  1  0  0  0  0  0  0  0  0  0
   -3.3025   -2.6648    4.3615 O   0  0  0  0  0  0  0  0  0  0  0  0
   -1.3807   -2.5889    5.8340 C   0  0  2  0  0  0  0  0  0  0  0  0
   -2.1653   -2.4118    6.9991 O   0  0  0  0  0  0  0  0  0  0  0  0
    0.0186   -1.9692    6.0272 C   0  0  1  0  0  0  0  0  0  0  0  0
    0.7900   -2.0339    4.8255 O   0  0  0  0  0  0  0  0  0  0  0  0
   -0.0199   -0.5480    6.6083 C   0  0  0  0  0  0  0  0  0  0  0  0
    0.4329   -0.5289    8.0086 N   0  0  0  0  0  0  0  0  0  0  0  0
  1  3  1  0  0  0  0
  1  2  1  6  0  0  0
  3  4  1  6  0  0  0
  5  6  1  1  0  0  0
  5  3  1  0  0  0  0
  7  9  1  0  0  0  0
  7  5  1  0  0  0  0
  7  8  1  6  0  0  0
  9 10  1  0  0  0  0
  9 11  1  1  0  0  0
 10  1  1  0  0  0  0
 11 12  1  0  0  0  0
 13 14  1  1  0  0  0
 13 21  1  0  0  0  0
 15 13  1  0  0  0  0
 16 15  1  0  0  0  0
 16 18  1  0  0  0  0
 16 17  1  1  0  0  0
 18  2  1  6  0  0  0
 18 19  1  0  0  0  0
 19 21  1  0  0  0  0
 19 20  1  1  0  0  0
 21 22  1  6  0  0  0
 23 20  1  6  0  0  0
 23 29  1  0  0  0  0
 23 24  1  0  0  0  0
 24 26  1  0  0  0  0
 24 25  1  1  0  0  0
 26 27  1  1  0  0  0
 28 26  1  0  0  0  0
 28 30  1  6  0  0  0
 29 28  1  0  0  0  0
 30 31  1  0  0  0  0
 32 27  1  1  0  0  0
 32 40  1  0  0  0  0
 32 33  1  0  0  0  0
 33 35  1  0  0  0  0
 33 34  1  6  0  0  0
 35 37  1  0  0  0  0
 35 36  1  6  0  0  0
 37 38  1  1  0  0  0
 39 37  1  0  0  0  0
 39 41  1  6  0  0  0
 40 39  1  0  0  0  0
 42 41  1  0  0  0  0
M  END
>  <CHROM.1>
-161.78337823,167.14228815,-33.23684910,69.09299026,82.86090567,65.07175652
72.66902453,60.81576362,57.83676482,-73.59572710,147.73476522,172.64578023
-172.02809702,176.06764406,-99.52281223,157.92218269,-153.38959962,170.49104923
-64.51695553,-54.32112572,107.63995823,66.77635931,0.00831123,2.47368890
2.34918946,1.41600685,0.75809062,-0.45356290

>  <Name>
lig.pdb

>  <RI>
0

>  <Rbt.Current_Directory>
/home/itssahil/PROJECTS/Mol_Feturizer/New_Systems/rnas/2mxs

>  <Rbt.Executable>
rbdock ($Id: //depot/dev/client3/rdock/2013.1/src/exe/rbdock.cxx#4 $)

>  <Rbt.Library>
libRbt.so (2013.1, Build901 2013/11/27)

>  <Rbt.Parameter_File>
/export/apps/rDock/src/rDock_2013.1_src/data/scripts/dock_solv.prm

>  <Rbt.Receptor>
prm/blind_docking_20.prm

>  <SCORE>
-33.9944

>  <SCORE.INTER>
-48.8172

>  <SCORE.INTER.CONST>
1

>  <SCORE.INTER.POLAR>
-6.56107

>  <SCORE.INTER.ROT>
9

>  <SCORE.INTER.SOLV>
31.2293

>  <SCORE.INTER.VDW>
-30.6843

>  <SCORE.INTER.norm>
-1.16231

>  <SCORE.INTRA>
-0.345999

>  <SCORE.INTRA.DIHEDRAL>
-1.76138

>  <SCORE.INTRA.DIHEDRAL.0>
30.1357

>  <SCORE.INTRA.POLAR>
-0.871643

>  <SCORE.INTRA.POLAR.0>
-0.631696

>  <SCORE.INTRA.REPUL>
0

>  <SCORE.INTRA.REPUL.0>
0

>  <SCORE.INTRA.SOLV>
0.432816

>  <SCORE.INTRA.SOLV.lig_0>
-55.904

>  <SCORE.INTRA.VDW>
3.28187

>  <SCORE.INTRA.VDW.0>
-8.21197

>  <SCORE.INTRA.norm>
-0.00823807

>  <SCORE.RESTR>
15.1688

>  <SCORE.RESTR.CAVITY>
15.1688

>  <SCORE.RESTR.norm>
0.361161

>  <SCORE.SYSTEM>
0

>  <SCORE.SYSTEM.CONST>
0

>  <SCORE.SYSTEM.DIHEDRAL>
0

>  <SCORE.SYSTEM.SOLV>
0

>  <SCORE.SYSTEM.norm>
0

>  <SCORE.heavy>
42

>  <SCORE.norm>
-0.809391

>  <RMSD>
6.019

$$$$
lig.pdb
 OpenBabel11021811453D
libRbt.so/2013.1/901 2013/11/27
 42 45  0  0  0  0  0  0  0  0999 V2000
   -0.3500    4.6780    1.5237 C   0  0  2  0  0  0  0  0  0  0  0  0
    0.1615    5.2602    0.3234 O   0  0  0  0  0  0  0  0  0  0  0  0
   -1.8541    4.3931    1.3959 C   0  0  2  0  0  0  0  0  0  0  0  0
   -2.1362    3.5605    0.2120 N   0  0  0  0  0  0  0  0  0  0  0  0
   -2.6595    5.6982    1.3560 C   0  0  1  0  0  0  0  0  0  0  0  0
   -4.0417    5.3984    1.3925 O   0  0  0  0  0  0  0  0  0  0  0  0
   -2.2987    6.5831    2.5587 C   0  0  2  0  0  0  0  0  0  0  0  0
   -2.9295    7.8419    2.4202 O   0  0  0  0  0  0  0  0  0  0  0  0
   -0.7735    6.7743    2.6829 C   0  0  2  0  0  0  0  0  0  0  0  0
   -0.0915    5.5211    2.6436 O   0  0  0  0  0  0  0  0  0  0  0  0
   -0.4868    7.4809    4.0214 C   0  0  0  0  0  0  0  0  0  0  0  0
   -1.1779    8.7542    4.1277 O   0  0  0  0  0  0  0  0  0  0  0  0
    3.4256    3.9553   -2.1613 C   0  0  2  0  0  0  0  0  0  0  0  0
    4.8073    3.4762   -2.3659 N   0  0  0  0  0  0  0  0  0  0  0  0
    3.4336    5.3319   -1.4918 C   0  0  0  0  0  0  0  0  0  0  0  0
    2.0147    5.7706   -1.1495 C   0  0  2  0  0  0  0  0  0  0  0  0
    2.0239    7.1315   -0.5984 N   0  0  0  0  0  0  0  0  0  0  0  0
    1.4124    4.7478   -0.1583 C   0  0  2  0  0  0  0  0  0  0  0  0
    1.2555    3.4395   -0.8649 C   0  0  2  0  0  0  0  0  0  0  0  0
    0.6650    2.5307    0.0460 O   0  0  0  0  0  0  0  0  0  0  0  0
    2.6120    2.9452   -1.3305 C   0  0  1  0  0  0  0  0  0  0  0  0
    2.5131    1.7491   -2.0806 O   0  0  0  0  0  0  0  0  0  0  0  0
    1.3789    2.2316    1.2409 C   0  0  1  0  0  0  0  0  0  0  0  0
    0.3691    1.7318    2.2762 C   0  0  2  0  0  0  0  0  0  0  0  0
    0.7529    2.1843    3.5610 O   0  0  0  0  0  0  0  0  0  0  0  0
    0.4685    0.2078    2.1260 C   0  0  2  0  0  0  0  0  0  0  0  0
    0.0009   -0.4935    3.2786 O   0  0  0  0  0  0  0  0  0  0  0  0
    1.9704    0.0653    1.8504 C   0  0  2  0  0  0  0  0  0  0  0  0
    2.2838    1.1610    1.0021 O   0  0  0  0  0  0  0  0  0  0  0  0
    2.3637   -1.2383    1.1458 C   0  0  0  0  0  0  0  0  0  0  0  0
    3.7506   -1.2917    0.8874 O   0  0  0  0  0  0  0  0  0  0  0  0
   -1.2937   -1.0747    3.1362 C   0  0  2  0  0  0  0  0  0  0  0  0
   -2.4083   -0.0800    3.4944 C   0  0  2  0  0  0  0  0  0  0  0  0
   -2.2863    1.1550    2.7021 N   0  0  0  0  0  0  0  0  0  0  0  0
   -2.4223    0.2178    5.0013 C   0  0  1  0  0  0  0  0  0  0  0  0
   -3.5176    1.0672    5.2836 O   0  0  0  0  0  0  0  0  0  0  0  0
   -2.5737   -1.1125    5.7585 C   0  0  2  0  0  0  0  0  0  0  0  0
   -2.5491   -0.8984    7.1578 O   0  0  0  0  0  0  0  0  0  0  0  0
   -1.4727   -2.1114    5.3467 C   0  0  1  0  0  0  0  0  0  0  0  0
   -1.4026   -2.2565    3.9264 O   0  0  0  0  0  0  0  0  0  0  0  0
   -0.1009   -1.7919    5.9591 C   0  0  0  0  0  0  0  0  0  0  0  0
    0.9914   -2.1238    5.0300 N   0  0  0  0  0  0  0  0  0  0  0  0
  1  3  1  0  0  0  0
  1  2  1  6  0  0  0
  3  4  1  6  0  0  0
  5  6  1  1  0  0  0
  5  3  1  0  0  0  0
  7  9  1  0  0  0  0
  7  5  1  0  0  0  0
  7  8  1  6  0  0  0
  9 10  1  0  0  0  0
  9 11  1  1  0  0  0
 10  1  1  0  0  0  0
 11 12  1  0  0  0  0
 13 14  1  1  0  0  0
 13 21  1  0  0  0  0
 15 13  1  0  0  0  0
 16 15  1  0  0  0  0
 16 18  1  0  0  0  0
 16 17  1  1  0  0  0
 18  2  1  6  0  0  0
 18 19  1  0  0  0  0
 19 21  1  0  0  0  0
 19 20  1  1  0  0  0
 21 22  1  6  0  0  0
 23 20  1  6  0  0  0
 23 29  1  0  0  0  0
 23 24  1  0  0  0  0
 24 26  1  0  0  0  0
 24 25  1  1  0  0  0
 26 27  1  1  0  0  0
 28 26  1  0  0  0  0
 28 30  1  6  0  0  0
 29 28  1  0  0  0  0
 30 31  1  0  0  0  0
 32 27  1  1  0  0  0
 32 40  1  0  0  0  0
 32 33  1  0  0  0  0
 33 35  1  0  0  0  0
 33 34  1  6  0  0  0
 35 37  1  0  0  0  0
 35 36  1  6  0  0  0
 37 38  1  1  0  0  0
 39 37  1  0  0  0  0
 39 41  1  6  0  0  0
 40 39  1  0  0  0  0
 42 41  1  0  0  0  0
M  END
>  <CHROM.1>
-161.74721856,-135.88576204,26.94625346,64.67206195,57.67671142,63.11373931
-57.48245601,-59.57276720,-95.87529815,-61.24881464,157.40711171,-61.67018323
-179.54130713,103.39956311,-86.81060195,178.33556437,-156.67355173,31.45252806
179.34982886,176.74787069,-144.93513946,63.95740934,-0.01434633,2.59214320
1.98108770,1.24430741,0.73558292,-0.36915249

>  <Name>
lig.pdb

>  <RI>
0

>  <Rbt.Current_Directory>
/home/itssahil/PROJECTS/Mol_Feturizer/New_Systems/rnas/2mxs

>  <Rbt.Executable>
rbdock ($Id: //depot/dev/client3/rdock/2013.1/src/exe/rbdock.cxx#4 $)

>  <Rbt.Library>
libRbt.so (2013.1, Build901 2013/11/27)

>  <Rbt.Parameter_File>
/export/apps/rDock/src/rDock_2013.1_src/data/scripts/dock_solv.prm

>  <Rbt.Receptor>
prm/blind_docking_80.prm

>  <SCORE>
-13.2552

>  <SCORE.INTER>
-32.0191

>  <SCORE.INTER.CONST>
1

>  <SCORE.INTER.POLAR>
-6.42604

>  <SCORE.INTER.ROT>
9

>  <SCORE.INTER.SOLV>
30.8897

>  <SCORE.INTER.VDW>
-19.8225

>  <SCORE.INTER.norm>
-0.76236

>  <SCORE.INTRA>
0.73511

>  <SCORE.INTRA.DIHEDRAL>
1.02265

>  <SCORE.INTRA.DIHEDRAL.0>
30.1357

>  <SCORE.INTRA.POLAR>
-1.53316

>  <SCORE.INTRA.POLAR.0>
-0.631696

>  <SCORE.INTRA.REPUL>
0

>  <SCORE.INTRA.REPUL.0>
0

>  <SCORE.INTRA.SOLV>
1.38496

>  <SCORE.INTRA.SOLV.lig_0>
-55.904

>  <SCORE.INTRA.VDW>
4.74404

>  <SCORE.INTRA.VDW.0>
-8.21197

>  <SCORE.INTRA.norm>
0.0175026

>  <SCORE.RESTR>
18.0288

>  <SCORE.RESTR.CAVITY>
18.0288

>  <SCORE.RESTR.norm>
0.429256

>  <SCORE.SYSTEM>
0

>  <SCORE.SYSTEM.CONST>
0

>  <SCORE.SYSTEM.DIHEDRAL>
0

>  <SCORE.SYSTEM.SOLV>
0

>  <SCORE.SYSTEM.norm>
0

>  <SCORE.heavy>
42

>  <SCORE.norm>
-0.315601

>  <RMSD>
6.022

$$$$
lig.pdb
 OpenBabel11021811453D
libRbt.so/2013.1/901 2013/11/27
 42 45  0  0  0  0  0  0  0  0999 V2000
   -1.3337    4.3036    1.6558 C   0  0  2  0  0  0  0  0  0  0  0  0
   -0.9628    4.6787    0.3280 O   0  0  0  0  0  0  0  0  0  0  0  0
   -2.8540    4.4085    1.8495 C   0  0  2  0  0  0  0  0  0  0  0  0
   -3.5728    3.6221    0.8301 N   0  0  0  0  0  0  0  0  0  0  0  0
   -3.3100    5.8733    1.8379 C   0  0  1  0  0  0  0  0  0  0  0  0
   -4.6836    5.9401    2.1700 O   0  0  0  0  0  0  0  0  0  0  0  0
   -2.5001    6.6908    2.8554 C   0  0  2  0  0  0  0  0  0  0  0  0
   -2.8227    8.0614    2.7183 O   0  0  0  0  0  0  0  0  0  0  0  0
   -0.9832    6.4898    2.6632 C   0  0  2  0  0  0  0  0  0  0  0  0
   -0.6482    5.1032    2.6163 O   0  0  0  0  0  0  0  0  0  0  0  0
   -0.2576    7.1606    3.8451 C   0  0  0  0  0  0  0  0  0  0  0  0
   -0.5382    8.5838    3.9236 O   0  0  0  0  0  0  0  0  0  0  0  0
    2.8584    4.9200   -1.6396 C   0  0  2  0  0  0  0  0  0  0  0  0
    4.3326    5.0027   -1.6345 N   0  0  0  0  0  0  0  0  0  0  0  0
    2.2554    6.1275   -0.9173 C   0  0  0  0  0  0  0  0  0  0  0  0
    0.7434    5.9797   -0.7947 C   0  0  2  0  0  0  0  0  0  0  0  0
    0.1637    7.1854   -0.1896 N   0  0  0  0  0  0  0  0  0  0  0  0
    0.4420    4.7113    0.0371 C   0  0  2  0  0  0  0  0  0  0  0  0
    0.8879    3.5164   -0.7433 C   0  0  2  0  0  0  0  0  0  0  0  0
    0.5653    2.3660    0.0163 O   0  0  0  0  0  0  0  0  0  0  0  0
    2.3805    3.6027   -1.0002 C   0  0  1  0  0  0  0  0  0  0  0  0
    2.8431    2.5372   -1.8088 O   0  0  0  0  0  0  0  0  0  0  0  0
    1.5946    1.7859    0.8106 C   0  0  1  0  0  0  0  0  0  0  0  0
    1.0659    1.6587    2.2409 C   0  0  2  0  0  0  0  0  0  0  0  0
    2.1218    1.8954    3.1530 O   0  0  0  0  0  0  0  0  0  0  0  0
    0.5584    0.2109    2.2782 C   0  0  2  0  0  0  0  0  0  0  0  0
    0.4601   -0.3069    3.6053 O   0  0  0  0  0  0  0  0  0  0  0  0
    1.6184   -0.4650    1.3998 C   0  0  2  0  0  0  0  0  0  0  0  0
    1.8636    0.4659    0.3550 O   0  0  0  0  0  0  0  0  0  0  0  0
    1.1750   -1.7978    0.7852 C   0  0  0  0  0  0  0  0  0  0  0  0
    2.1373   -2.3000   -0.1174 O   0  0  0  0  0  0  0  0  0  0  0  0
   -0.3678    0.4559    4.4811 C   0  0  2  0  0  0  0  0  0  0  0  0
    0.1254    0.3893    5.9345 C   0  0  2  0  0  0  0  0  0  0  0  0
    1.5342    0.8063    6.0318 N   0  0  0  0  0  0  0  0  0  0  0  0
   -0.0890   -1.0107    6.5291 C   0  0  1  0  0  0  0  0  0  0  0  0
    0.3015   -0.9886    7.8884 O   0  0  0  0  0  0  0  0  0  0  0  0
   -1.5810   -1.3658    6.4115 C   0  0  2  0  0  0  0  0  0  0  0  0
   -1.8268   -2.6687    6.9078 O   0  0  0  0  0  0  0  0  0  0  0  0
   -2.0645   -1.2450    4.9516 C   0  0  1  0  0  0  0  0  0  0  0  0
   -1.7240    0.0251    4.3911 O   0  0  0  0  0  0  0  0  0  0  0  0
   -1.6043   -2.4076    4.0598 C   0  0  0  0  0  0  0  0  0  0  0  0
   -0.1885   -2.7348    4.2935 N   0  0  0  0  0  0  0  0  0  0  0  0
  1  3  1  0  0  0  0
  1  2  1  6  0  0  0
  3  4  1  6  0  0  0
  5  6  1  1  0  0  0
  5  3  1  0  0  0  0
  7  9  1  0  0  0  0
  7  5  1  0  0  0  0
  7  8  1  6  0  0  0
  9 10  1  0  0  0  0
  9 11  1  1  0  0  0
 10  1  1  0  0  0  0
 11 12  1  0  0  0  0
 13 14  1  1  0  0  0
 13 21  1  0  0  0  0
 15 13  1  0  0  0  0
 16 15  1  0  0  0  0
 16 18  1  0  0  0  0
 16 17  1  1  0  0  0
 18  2  1  6  0  0  0
 18 19  1  0  0  0  0
 19 21  1  0  0  0  0
 19 20  1  1  0  0  0
 21 22  1  6  0  0  0
 23 20  1  6  0  0  0
 23 29  1  0  0  0  0
 23 24  1  0  0  0  0
 24 26  1  0  0  0  0
 24 25  1  1  0  0  0
 26 27  1  1  0  0  0
 28 26  1  0  0  0  0
 28 30  1  6  0  0  0
 29 28  1  0  0  0  0
 30 31  1  0  0  0  0
 32 27  1  6  0  0  0
 32 40  1  0  0  0  0
 32 33  1  0  0  0  0
 33 35  1  0  0  0  0
 33 34  1  6  0  0  0
 35 37  1  0  0  0  0
 35 36  1  1  0  0  0
 37 38  1  6  0  0  0
 39 37  1  0  0  0  0
 39 41  1  6  0  0  0
 40 39  1  0  0  0  0
 42 41  1  0  0  0  0
M  END
>  <CHROM.1>
-137.33014658,175.98814009,-161.26477576,175.56488483,-63.84841045,-27.26945552
-59.89072317,-172.62944963,176.30574958,-97.47204492,126.86228461,69.74566391
-60.64427252,56.78025847,-148.30039587,173.95326335,52.62038563,139.50943706
-176.83913412,42.46386127,-44.13792064,-54.07737545,-0.03260585,2.54966743
2.27948494,1.55430069,0.83903242,-0.50778609

>  <Name>
lig.pdb

>  <RI>
0

>  <Rbt.Current_Directory>
/home/itssahil/PROJECTS/Mol_Feturizer/New_Systems/rnas/2mxs

>  <Rbt.Executable>
rbdock ($Id: //depot/dev/client3/rdock/2013.1/src/exe/rbdock.cxx#4 $)

>  <Rbt.Library>
libRbt.so (2013.1, Build901 2013/11/27)

>  <Rbt.Parameter_File>
/export/apps/rDock/src/rDock_2013.1_src/data/scripts/dock_solv.prm

>  <Rbt.Receptor>
prm/blind_docking_80.prm

>  <SCORE>
0.960284

>  <SCORE.INTER>
-12.1645

>  <SCORE.INTER.CONST>
1

>  <SCORE.INTER.POLAR>
-7.43954

>  <SCORE.INTER.ROT>
9

>  <SCORE.INTER.SOLV>
36.6616

>  <SCORE.INTER.VDW>
-5.13173

>  <SCORE.INTER.norm>
-0.289631

>  <SCORE.INTRA>
3.30449

>  <SCORE.INTRA.DIHEDRAL>
3.49

>  <SCORE.INTRA.DIHEDRAL.0>
30.1357

>  <SCORE.INTRA.POLAR>
-1.35917

>  <SCORE.INTRA.POLAR.0>
-0.631696

>  <SCORE.INTRA.REPUL>
0

>  <SCORE.INTRA.REPUL.0>
0

>  <SCORE.INTRA.SOLV>
1.3141

>  <SCORE.INTRA.SOLV.lig_0>
-55.904

>  <SCORE.INTRA.VDW>
5.52362

>  <SCORE.INTRA.VDW.0>
-8.21197

>  <SCORE.INTRA.norm>
0.0786784

>  <SCORE.RESTR>
9.82028

>  <SCORE.RESTR.CAVITY>
9.82028

>  <SCORE.RESTR.norm>
0.233816

>  <SCORE.SYSTEM>
0

>  <SCORE.SYSTEM.CONST>
0

>  <SCORE.SYSTEM.DIHEDRAL>
0

>  <SCORE.SYSTEM.SOLV>
0

>  <SCORE.SYSTEM.norm>
0

>  <SCORE.heavy>
42

>  <SCORE.norm>
0.0228639

>  <RMSD>
6.027

$$$$
lig.pdb
 OpenBabel11021811453D
libRbt.so/2013.1/901 2013/11/27
 42 45  0  0  0  0  0  0  0  0999 V2000
   -1.6078    4.4975    1.8270 C   0  0  2  0  0  0  0  0  0  0  0  0
   -1.1488    5.5101    0.9295 O   0  0  0  0  0  0  0  0  0  0  0  0
   -3.1277    4.5928    2.0282 C   0  0  2  0  0  0  0  0  0  0  0  0
   -3.8362    4.5506    0.7356 N   0  0  0  0  0  0  0  0  0  0  0  0
   -3.4997    5.8535    2.8193 C   0  0  1  0  0  0  0  0  0  0  0  0
   -4.8826    5.8303    3.1168 O   0  0  0  0  0  0  0  0  0  0  0  0
   -2.6985    5.9159    4.1285 C   0  0  2  0  0  0  0  0  0  0  0  0
   -2.9363    7.1569    4.7646 O   0  0  0  0  0  0  0  0  0  0  0  0
   -1.1874    5.7399    3.8756 C   0  0  2  0  0  0  0  0  0  0  0  0
   -0.9288    4.5856    3.0771 O   0  0  0  0  0  0  0  0  0  0  0  0
   -0.4870    5.5962    5.2402 C   0  0  0  0  0  0  0  0  0  0  0  0
    0.8935    6.0466    5.1975 O   0  0  0  0  0  0  0  0  0  0  0  0
    1.9933    4.9170   -1.9526 C   0  0  2  0  0  0  0  0  0  0  0  0
    3.4111    4.7535   -2.3313 N   0  0  0  0  0  0  0  0  0  0  0  0
    1.7763    6.2733   -1.2769 C   0  0  0  0  0  0  0  0  0  0  0  0
    0.3484    6.3919   -0.7573 C   0  0  2  0  0  0  0  0  0  0  0  0
    0.1215    7.7309   -0.1994 N   0  0  0  0  0  0  0  0  0  0  0  0
    0.1160    5.2797    0.2918 C   0  0  2  0  0  0  0  0  0  0  0  0
    0.1692    3.9562   -0.4017 C   0  0  2  0  0  0  0  0  0  0  0  0
   -0.0871    2.9562    0.5673 O   0  0  0  0  0  0  0  0  0  0  0  0
    1.5340    3.7672   -1.0364 C   0  0  1  0  0  0  0  0  0  0  0  0
    1.6129    2.5651   -1.7791 O   0  0  0  0  0  0  0  0  0  0  0  0
    0.8614    2.7905    1.6160 C   0  0  1  0  0  0  0  0  0  0  0  0
    0.1238    2.2153    2.8270 C   0  0  2  0  0  0  0  0  0  0  0  0
    0.6735    2.7598    4.0119 O   0  0  0  0  0  0  0  0  0  0  0  0
    0.3820    0.7091    2.6866 C   0  0  2  0  0  0  0  0  0  0  0  0
    0.2196    0.0028    3.9169 O   0  0  0  0  0  0  0  0  0  0  0  0
    1.8158    0.7348    2.1429 C   0  0  2  0  0  0  0  0  0  0  0  0
    1.8338    1.8261    1.2334 O   0  0  0  0  0  0  0  0  0  0  0  0
    2.2340   -0.5395    1.4000 C   0  0  0  0  0  0  0  0  0  0  0  0
    3.0535   -0.2479    0.2880 O   0  0  0  0  0  0  0  0  0  0  0  0
   -1.0749    0.1212    4.5038 C   0  0  2  0  0  0  0  0  0  0  0  0
   -0.9941    0.4046    6.0115 C   0  0  2  0  0  0  0  0  0  0  0  0
   -0.1741    1.5978    6.2795 N   0  0  0  0  0  0  0  0  0  0  0  0
   -0.4728   -0.8199    6.7786 C   0  0  1  0  0  0  0  0  0  0  0  0
   -0.5017   -0.5314    8.1630 O   0  0  0  0  0  0  0  0  0  0  0  0
   -1.3889   -2.0155    6.4666 C   0  0  2  0  0  0  0  0  0  0  0  0
   -0.9262   -3.1847    7.1171 O   0  0  0  0  0  0  0  0  0  0  0  0
   -1.4927   -2.2502    4.9455 C   0  0  1  0  0  0  0  0  0  0  0  0
   -1.8479   -1.0506    4.2540 O   0  0  0  0  0  0  0  0  0  0  0  0
   -0.2427   -2.9100    4.3447 C   0  0  0  0  0  0  0  0  0  0  0  0
   -0.5570   -4.2261    3.7657 N   0  0  0  0  0  0  0  0  0  0  0  0
  1  3  1  0  0  0  0
  1  2  1  6  0  0  0
  3  4  1  6  0  0  0
  5  6  1  1  0  0  0
  5  3  1  0  0  0  0
  7  9  1  0  0  0  0
  7  5  1  0  0  0  0
  7  8  1  6  0  0  0
  9 10  1  0  0  0  0
  9 11  1  1  0  0  0
 10  1  1  0  0  0  0
 11 12  1  0  0  0  0
 13 14  1  1  0  0  0
 13 21  1  0  0  0  0
 15 13  1  0  0  0  0
 16 15  1  0  0  0  0
 16 18  1  0  0  0  0
 16 17  1  1  0  0  0
 18  2  1  6  0  0  0
 18 19  1  0  0  0  0
 19 21  1  0  0  0  0
 19 20  1  1  0  0  0
 21 22  1  6  0  0  0
 23 20  1  6  0  0  0
 23 29  1  0  0  0  0
 23 24  1  0  0  0  0
 24 26  1  0  0  0  0
 24 25  1  1  0  0  0
 26 27  1  1  0  0  0
 28 26  1  0  0  0  0
 28 30  1  6  0  0  0
 29 28  1  0  0  0  0
 30 31  1  0  0  0  0
 32 27  1  1  0  0  0
 32 40  1  0  0  0  0
 32 33  1  0  0  0  0
 33 35  1  0  0  0  0
 33 34  1  6  0  0  0
 35 37  1  0  0  0  0
 35 36  1  1  0  0  0
 37 38  1  1  0  0  0
 39 37  1  0  0  0  0
 39 41  1  6  0  0  0
 40 39  1  0  0  0  0
 42 41  1  0  0  0  0
M  END
>  <CHROM.1>
173.16855921,-159.14554194,11.54235433,-6.87543996,93.73121362,-62.54763810
-152.85792540,172.35578189,154.38397019,-65.09747540,153.19587419,177.09865504
143.36498849,58.86309955,-134.69598521,142.67290898,82.97594770,-132.54949416
-73.64792928,119.60979632,117.43602055,-46.80863528,-0.30096612,2.60714601
2.67735324,1.47178250,0.90260872,-0.55029236

>  <Name>
lig.pdb

>  <RI>
0

>  <Rbt.Current_Directory>
/home/itssahil/PROJECTS/Mol_Feturizer/New_Systems/rnas/2mxs

>  <Rbt.Executable>
rbdock ($Id: //depot/dev/client3/rdock/2013.1/src/exe/rbdock.cxx#4 $)

>  <Rbt.Library>
libRbt.so (2013.1, Build901 2013/11/27)

>  <Rbt.Parameter_File>
/export/apps/rDock/src/rDock_2013.1_src/data/scripts/dock_solv.prm

>  <Rbt.Receptor>
prm/blind_docking_80.prm

>  <SCORE>
41.6919

>  <SCORE.INTER>
-2.85341

>  <SCORE.INTER.CONST>
1

>  <SCORE.INTER.POLAR>
-4.61778

>  <SCORE.INTER.ROT>
9

>  <SCORE.INTER.SOLV>
31.6774

>  <SCORE.INTER.VDW>
-6.66881

>  <SCORE.INTER.norm>
-0.0679382

>  <SCORE.INTRA>
30.2579

>  <SCORE.INTRA.DIHEDRAL>
27.5891

>  <SCORE.INTRA.DIHEDRAL.0>
30.1357

>  <SCORE.INTRA.POLAR>
0.354526

>  <SCORE.INTRA.POLAR.0>
-0.631696

>  <SCORE.INTRA.REPUL>
0

>  <SCORE.INTRA.REPUL.0>
0

>  <SCORE.INTRA.SOLV>
0.606168

>  <SCORE.INTRA.SOLV.lig_0>
-55.904

>  <SCORE.INTRA.VDW>
14.9549

>  <SCORE.INTRA.VDW.0>
-8.21197

>  <SCORE.INTRA.norm>
0.720426

>  <SCORE.RESTR>
14.2874

>  <SCORE.RESTR.CAVITY>
14.2874

>  <SCORE.RESTR.norm>
0.340176

>  <SCORE.SYSTEM>
0

>  <SCORE.SYSTEM.CONST>
0

>  <SCORE.SYSTEM.DIHEDRAL>
0

>  <SCORE.SYSTEM.SOLV>
0

>  <SCORE.SYSTEM.norm>
0

>  <SCORE.heavy>
42

>  <SCORE.norm>
0.992663

>  <RMSD>
6.028

$$$$
lig.pdb
 OpenBabel11021811453D
libRbt.so/2013.1/901 2013/11/27
 42 45  0  0  0  0  0  0  0  0999 V2000
   -3.2675    2.2061    1.2937 C   0  0  2  0  0  0  0  0  0  0  0  0
   -3.6476    2.7261    2.5691 O   0  0  0  0  0  0  0  0  0  0  0  0
   -4.3406    1.2505    0.7505 C   0  0  2  0  0  0  0  0  0  0  0  0
   -5.6612    1.9054    0.7110 N   0  0  0  0  0  0  0  0  0  0  0  0
   -4.3917   -0.0435    1.5731 C   0  0  1  0  0  0  0  0  0  0  0  0
   -5.2780   -0.9575    0.9560 O   0  0  0  0  0  0  0  0  0  0  0  0
   -2.9932   -0.6725    1.6629 C   0  0  2  0  0  0  0  0  0  0  0  0
   -3.0304   -1.7722    2.5522 O   0  0  0  0  0  0  0  0  0  0  0  0
   -1.9427    0.3503    2.1411 C   0  0  2  0  0  0  0  0  0  0  0  0
   -2.0040    1.5510    1.3719 O   0  0  0  0  0  0  0  0  0  0  0  0
   -0.5494   -0.2904    1.9953 C   0  0  0  0  0  0  0  0  0  0  0  0
   -0.4379   -1.5340    2.7379 O   0  0  0  0  0  0  0  0  0  0  0  0
   -1.3139    6.3405    2.7117 C   0  0  2  0  0  0  0  0  0  0  0  0
   -0.9346    7.6331    3.3164 N   0  0  0  0  0  0  0  0  0  0  0  0
   -2.7878    6.3584    2.2989 C   0  0  0  0  0  0  0  0  0  0  0  0
   -3.2236    4.9843    1.8043 C   0  0  2  0  0  0  0  0  0  0  0  0
   -4.6085    5.0358    1.3193 N   0  0  0  0  0  0  0  0  0  0  0  0
   -3.0514    3.9714    2.9601 C   0  0  2  0  0  0  0  0  0  0  0  0
   -1.5922    3.8340    3.2558 C   0  0  2  0  0  0  0  0  0  0  0  0
   -1.4542    2.8730    4.2863 O   0  0  0  0  0  0  0  0  0  0  0  0
   -1.0288    5.1771    3.6800 C   0  0  1  0  0  0  0  0  0  0  0  0
    0.3695    5.1240    3.8919 O   0  0  0  0  0  0  0  0  0  0  0  0
   -0.1372    2.5514    4.7210 C   0  0  1  0  0  0  0  0  0  0  0  0
    0.0183    3.0586    6.1562 C   0  0  2  0  0  0  0  0  0  0  0  0
    1.3404    3.5258    6.3469 O   0  0  0  0  0  0  0  0  0  0  0  0
   -0.2976    1.8065    6.9854 C   0  0  2  0  0  0  0  0  0  0  0  0
    0.2327    1.8714    8.3096 O   0  0  0  0  0  0  0  0  0  0  0  0
    0.3310    0.7303    6.0917 C   0  0  2  0  0  0  0  0  0  0  0  0
    0.0195    1.1388    4.7671 O   0  0  0  0  0  0  0  0  0  0  0  0
   -0.2192   -0.6824    6.3195 C   0  0  0  0  0  0  0  0  0  0  0  0
    0.0552   -1.1430    7.6255 O   0  0  0  0  0  0  0  0  0  0  0  0
   -0.6404    2.4604    9.2713 C   0  0  2  0  0  0  0  0  0  0  0  0
    0.0213    3.6440    9.9933 C   0  0  2  0  0  0  0  0  0  0  0  0
    0.5068    4.6444    9.0282 N   0  0  0  0  0  0  0  0  0  0  0  0
    1.1471    3.1670   10.9232 C   0  0  1  0  0  0  0  0  0  0  0  0
    1.6590    4.2848   11.6227 O   0  0  0  0  0  0  0  0  0  0  0  0
    0.5608    2.1453   11.9123 C   0  0  2  0  0  0  0  0  0  0  0  0
    1.5694    1.6399   12.7677 O   0  0  0  0  0  0  0  0  0  0  0  0
   -0.1399    0.9919   11.1650 C   0  0  1  0  0  0  0  0  0  0  0  0
   -1.0837    1.4837   10.2108 O   0  0  0  0  0  0  0  0  0  0  0  0
    0.8396   -0.0114   10.5384 C   0  0  0  0  0  0  0  0  0  0  0  0
    1.4457   -0.8791   11.5612 N   0  0  0  0  0  0  0  0  0  0  0  0
  1  3  1  0  0  0  0
  1  2  1  1  0  0  0
  3  4  1  1  0  0  0
  5  6  1  6  0  0  0
  5  3  1  0  0  0  0
  7  9  1  0  0  0  0
  7  5  1  0  0  0  0
  7  8  1  1  0  0  0
  9 10  1  0  0  0  0
  9 11  1  6  0  0  0
 10  1  1  0  0  0  0
 11 12  1  0  0  0  0
 13 14  1  1  0  0  0
 13 21  1  0  0  0  0
 15 13  1  0  0  0  0
 16 15  1  0  0  0  0
 16 18  1  0  0  0  0
 16 17  1  1  0  0  0
 18  2  1  6  0  0  0
 18 19  1  0  0  0  0
 19 21  1  0  0  0  0
 19 20  1  1  0  0  0
 21 22  1  6  0  0  0
 23 20  1  1  0  0  0
 23 29  1  0  0  0  0
 23 24  1  0  0  0  0
 24 26  1  0  0  0  0
 24 25  1  6  0  0  0
 26 27  1  1  0  0  0
 28 26  1  0  0  0  0
 28 30  1  1  0  0  0
 29 28  1  0  0  0  0
 30 31  1  0  0  0  0
 32 27  1  6  0  0  0
 32 40  1  0  0  0  0
 32 33  1  0  0  0  0
 33 35  1  0  0  0  0
 33 34  1  6  0  0  0
 35 37  1  0  0  0  0
 35 36  1  1  0  0  0
 37 38  1  6  0  0  0
 39 37  1  0  0  0  0
 39 41  1  6  0  0  0
 40 39  1  0  0  0  0
 42 41  1  0  0  0  0
M  END
>  <CHROM.1>
50.22201656,-156.63963235,-52.41411628,-66.93069645,-179.83298288,-179.10399403
-57.40100741,122.17491623,125.34707455,178.72070591,112.71021962,143.92313286
-65.08936372,89.44744008,-124.33742900,-63.14181647,-177.81833873,-49.79195391
64.41973900,169.50016000,74.58560010,63.15139700,-1.17507673,2.18004039,5.41258070
2.95245289,-1.13161348,-0.17394293

>  <Name>
lig.pdb

>  <RI>
4.11275e+07

>  <Rbt.Current_Directory>
/home/itssahil/PROJECTS/Mol_Feturizer/New_Systems/rnas/2mxs

>  <Rbt.Executable>
rbdock ($Id: //depot/dev/client3/rdock/2013.1/src/exe/rbdock.cxx#4 $)

>  <Rbt.Library>
libRbt.so (2013.1, Build901 2013/11/27)

>  <Rbt.Parameter_File>
/export/apps/rDock/src/rDock_2013.1_src/data/scripts/dock_solv.prm

>  <Rbt.Receptor>
prm/pocket_docking_8.prm

>  <SCORE>
-27.4559

>  <SCORE.INTER>
-30.4665

>  <SCORE.INTER.CONST>
1

>  <SCORE.INTER.POLAR>
-4.11212

>  <SCORE.INTER.ROT>
9

>  <SCORE.INTER.SOLV>
18.7553

>  <SCORE.INTER.VDW>
-22.4557

>  <SCORE.INTER.norm>
-0.725393

>  <SCORE.INTRA>
3.01055

>  <SCORE.INTRA.DIHEDRAL>
4.51572

>  <SCORE.INTRA.DIHEDRAL.0>
30.1357

>  <SCORE.INTRA.POLAR>
-1.63595

>  <SCORE.INTRA.POLAR.0>
-0.631696

>  <SCORE.INTRA.REPUL>
0

>  <SCORE.INTRA.REPUL.0>
0

>  <SCORE.INTRA.SOLV>
2.48342

>  <SCORE.INTRA.SOLV.lig_0>
-55.904

>  <SCORE.INTRA.VDW>
5.07323

>  <SCORE.INTRA.VDW.0>
-8.21197

>  <SCORE.INTRA.norm>
0.0716799

>  <SCORE.RESTR>
0

>  <SCORE.RESTR.CAVITY>
0

>  <SCORE.RESTR.norm>
0

>  <SCORE.SYSTEM>
0

>  <SCORE.SYSTEM.CONST>
0

>  <SCORE.SYSTEM.DIHEDRAL>
0

>  <SCORE.SYSTEM.SOLV>
0

>  <SCORE.SYSTEM.norm>
0

>  <SCORE.heavy>
42

>  <SCORE.norm>
-0.653713

>  <RMSD>
6.028

$$$$
lig.pdb
 OpenBabel11021811453D
libRbt.so/2013.1/901 2013/11/27
 42 45  0  0  0  0  0  0  0  0999 V2000
   -1.4433    4.2083    1.5914 C   0  0  2  0  0  0  0  0  0  0  0  0
   -1.0258    4.8118    0.3654 O   0  0  0  0  0  0  0  0  0  0  0  0
   -2.8719    4.6403    1.9552 C   0  0  2  0  0  0  0  0  0  0  0  0
   -3.8075    4.3572    0.8511 N   0  0  0  0  0  0  0  0  0  0  0  0
   -2.9151    6.1228    2.3474 C   0  0  1  0  0  0  0  0  0  0  0  0
   -4.2086    6.4459    2.8207 O   0  0  0  0  0  0  0  0  0  0  0  0
   -1.8833    6.4123    3.4481 C   0  0  2  0  0  0  0  0  0  0  0  0
   -1.8275    7.8062    3.6830 O   0  0  0  0  0  0  0  0  0  0  0  0
   -0.4839    5.8913    3.0627 C   0  0  2  0  0  0  0  0  0  0  0  0
   -0.5380    4.5276    2.6450 O   0  0  0  0  0  0  0  0  0  0  0  0
    0.4319    6.0224    4.2945 C   0  0  0  0  0  0  0  0  0  0  0  0
    0.1158    5.0421    5.3188 O   0  0  0  0  0  0  0  0  0  0  0  0
    2.7985    4.8090   -1.6108 C   0  0  2  0  0  0  0  0  0  0  0  0
    4.2750    4.8245   -1.6092 N   0  0  0  0  0  0  0  0  0  0  0  0
    2.2525    6.0675   -0.9316 C   0  0  0  0  0  0  0  0  0  0  0  0
    0.7357    5.9932   -0.8033 C   0  0  2  0  0  0  0  0  0  0  0  0
    0.2126    7.2446   -0.2412 N   0  0  0  0  0  0  0  0  0  0  0  0
    0.3785    4.7701    0.0730 C   0  0  2  0  0  0  0  0  0  0  0  0
    0.7680    3.5292   -0.6646 C   0  0  2  0  0  0  0  0  0  0  0  0
    0.3949    2.4223    0.1355 O   0  0  0  0  0  0  0  0  0  0  0  0
    2.2624    3.5383   -0.9250 C   0  0  1  0  0  0  0  0  0  0  0  0
    2.6745    2.4249   -1.6954 O   0  0  0  0  0  0  0  0  0  0  0  0
    1.2824    2.0274    1.1762 C   0  0  1  0  0  0  0  0  0  0  0  0
    0.4352    1.6176    2.3827 C   0  0  2  0  0  0  0  0  0  0  0  0
    1.0976    2.0030    3.5725 O   0  0  0  0  0  0  0  0  0  0  0  0
    0.3411    0.0947    2.2187 C   0  0  2  0  0  0  0  0  0  0  0  0
    0.0238   -0.5748    3.4393 O   0  0  0  0  0  0  0  0  0  0  0  0
    1.7415   -0.2003    1.6673 C   0  0  2  0  0  0  0  0  0  0  0  0
    2.0071    0.8720    0.7739 O   0  0  0  0  0  0  0  0  0  0  0  0
    1.8550   -1.5246    0.9034 C   0  0  0  0  0  0  0  0  0  0  0  0
    1.8172   -1.3241   -0.4936 O   0  0  0  0  0  0  0  0  0  0  0  0
   -0.8880    0.1267    4.2823 C   0  0  2  0  0  0  0  0  0  0  0  0
   -0.4349    0.1121    5.7501 C   0  0  2  0  0  0  0  0  0  0  0  0
    0.9327    0.6412    5.8840 N   0  0  0  0  0  0  0  0  0  0  0  0
   -0.5547   -1.2955    6.3533 C   0  0  1  0  0  0  0  0  0  0  0  0
   -0.2081   -1.2307    7.7232 O   0  0  0  0  0  0  0  0  0  0  0  0
   -2.0095   -1.7697    6.1961 C   0  0  2  0  0  0  0  0  0  0  0  0
   -2.1655   -3.0839    6.6991 O   0  0  0  0  0  0  0  0  0  0  0  0
   -2.4571   -1.7004    4.7215 C   0  0  1  0  0  0  0  0  0  0  0  0
   -2.2023   -0.4119    4.1574 O   0  0  0  0  0  0  0  0  0  0  0  0
   -1.8793   -2.8300    3.8561 C   0  0  0  0  0  0  0  0  0  0  0  0
   -2.2145   -2.6419    2.4354 N   0  0  0  0  0  0  0  0  0  0  0  0
  1  3  1  0  0  0  0
  1  2  1  6  0  0  0
  3  4  1  6  0  0  0
  5  6  1  1  0  0  0
  5  3  1  0  0  0  0
  7  9  1  0  0  0  0
  7  5  1  0  0  0  0
  7  8  1  6  0  0  0
  9 10  1  0  0  0  0
  9 11  1  1  0  0  0
 10  1  1  0  0  0  0
 11 12  1  0  0  0  0
 13 14  1  1  0  0  0
 13 21  1  0  0  0  0
 15 13  1  0  0  0  0
 16 15  1  0  0  0  0
 16 18  1  0  0  0  0
 16 17  1  1  0  0  0
 18  2  1  6  0  0  0
 18 19  1  0  0  0  0
 19 21  1  0  0  0  0
 19 20  1  1  0  0  0
 21 22  1  6  0  0  0
 23 20  1  6  0  0  0
 23 29  1  0  0  0  0
 23 24  1  0  0  0  0
 24 26  1  0  0  0  0
 24 25  1  1  0  0  0
 26 27  1  1  0  0  0
 28 26  1  0  0  0  0
 28 30  1  6  0  0  0
 29 28  1  0  0  0  0
 30 31  1  0  0  0  0
 32 27  1  6  0  0  0
 32 40  1  0  0  0  0
 32 33  1  0  0  0  0
 33 35  1  0  0  0  0
 33 34  1  6  0  0  0
 35 37  1  0  0  0  0
 35 36  1  1  0  0  0
 37 38  1  6  0  0  0
 39 37  1  0  0  0  0
 39 41  1  6  0  0  0
 40 39  1  0  0  0  0
 42 41  1  0  0  0  0
M  END
>  <CHROM.1>
-151.55126227,165.01142476,-148.67425079,54.81248650,84.60425146,-179.04922714
72.61919183,64.32102341,-67.38440103,-82.61792420,141.40512871,-52.86474308
-70.57223575,36.50766974,-135.39559382,100.33665281,-52.59017010,43.07542957
-73.04915190,57.38337927,-173.91513107,-48.40166888,-0.17203476,2.39427411
2.34644491,1.31595853,0.88385076,-0.37932468

>  <Name>
lig.pdb

>  <RI>
0

>  <Rbt.Current_Directory>
/home/itssahil/PROJECTS/Mol_Feturizer/New_Systems/rnas/2mxs

>  <Rbt.Executable>
rbdock ($Id: //depot/dev/client3/rdock/2013.1/src/exe/rbdock.cxx#4 $)

>  <Rbt.Library>
libRbt.so (2013.1, Build901 2013/11/27)

>  <Rbt.Parameter_File>
/export/apps/rDock/src/rDock_2013.1_src/data/scripts/dock_solv.prm

>  <Rbt.Receptor>
prm/blind_docking_80.prm

>  <SCORE>
-19.6713

>  <SCORE.INTER>
-40.6702

>  <SCORE.INTER.CONST>
1

>  <SCORE.INTER.POLAR>
-6.4865

>  <SCORE.INTER.ROT>
9

>  <SCORE.INTER.SOLV>
28.7116

>  <SCORE.INTER.VDW>
-24.6623

>  <SCORE.INTER.norm>
-0.968339

>  <SCORE.INTRA>
5.64086

>  <SCORE.INTRA.DIHEDRAL>
2.99899

>  <SCORE.INTRA.DIHEDRAL.0>
30.1357

>  <SCORE.INTRA.POLAR>
-0.295383

>  <SCORE.INTRA.POLAR.0>
-0.631696

>  <SCORE.INTRA.REPUL>
0

>  <SCORE.INTRA.REPUL.0>
0

>  <SCORE.INTRA.SOLV>
1.04756

>  <SCORE.INTRA.SOLV.lig_0>
-55.904

>  <SCORE.INTRA.VDW>
4.62189

>  <SCORE.INTRA.VDW.0>
-8.21197

>  <SCORE.INTRA.norm>
0.134306

>  <SCORE.RESTR>
15.3581

>  <SCORE.RESTR.CAVITY>
15.3581

>  <SCORE.RESTR.norm>
0.365668

>  <SCORE.SYSTEM>
0

>  <SCORE.SYSTEM.CONST>
0

>  <SCORE.SYSTEM.DIHEDRAL>
0

>  <SCORE.SYSTEM.SOLV>
0

>  <SCORE.SYSTEM.norm>
0

>  <SCORE.heavy>
42

>  <SCORE.norm>
-0.468364

>  <RMSD>
6.034

$$$$
lig.pdb
 OpenBabel11021811453D
libRbt.so/2013.1/901 2013/11/27
 42 45  0  0  0  0  0  0  0  0999 V2000
   -1.2821    0.5666    1.6522 C   0  0  2  0  0  0  0  0  0  0  0  0
   -0.3787    1.3009    0.8238 O   0  0  0  0  0  0  0  0  0  0  0  0
   -1.0282   -0.9438    1.5339 C   0  0  2  0  0  0  0  0  0  0  0  0
    0.3803   -1.2680    1.8264 N   0  0  0  0  0  0  0  0  0  0  0  0
   -1.4371   -1.4634    0.1496 C   0  0  1  0  0  0  0  0  0  0  0  0
   -1.3342   -2.8742    0.1283 O   0  0  0  0  0  0  0  0  0  0  0  0
   -2.8835   -1.0538   -0.1666 C   0  0  2  0  0  0  0  0  0  0  0  0
   -3.1876   -1.4027   -1.5035 O   0  0  0  0  0  0  0  0  0  0  0  0
   -3.1011    0.4588    0.0407 C   0  0  2  0  0  0  0  0  0  0  0  0
   -2.6339    0.8764    1.3230 O   0  0  0  0  0  0  0  0  0  0  0  0
   -4.6094    0.7470   -0.0828 C   0  0  0  0  0  0  0  0  0  0  0  0
   -5.1179    0.4452   -1.4096 O   0  0  0  0  0  0  0  0  0  0  0  0
    0.2346    5.5609    0.7379 C   0  0  2  0  0  0  0  0  0  0  0  0
   -0.2390    6.9507    0.5816 N   0  0  0  0  0  0  0  0  0  0  0  0
   -0.0179    4.7653   -0.5452 C   0  0  0  0  0  0  0  0  0  0  0  0
    0.3379    3.2969   -0.3453 C   0  0  2  0  0  0  0  0  0  0  0  0
    0.1860    2.5621   -1.6074 N   0  0  0  0  0  0  0  0  0  0  0  0
   -0.5643    2.7230    0.7719 C   0  0  2  0  0  0  0  0  0  0  0  0
   -0.2040    3.3898    2.0607 C   0  0  2  0  0  0  0  0  0  0  0  0
   -1.0109    2.8211    3.0756 O   0  0  0  0  0  0  0  0  0  0  0  0
   -0.4401    4.8839    1.9457 C   0  0  1  0  0  0  0  0  0  0  0  0
   -0.0357    5.5772    3.1113 O   0  0  0  0  0  0  0  0  0  0  0  0
   -2.4046    3.1113    3.0550 C   0  0  1  0  0  0  0  0  0  0  0  0
   -3.1020    2.1219    3.9909 C   0  0  2  0  0  0  0  0  0  0  0  0
   -4.3662    1.7810    3.4538 O   0  0  0  0  0  0  0  0  0  0  0  0
   -3.2044    2.9192    5.2981 C   0  0  2  0  0  0  0  0  0  0  0  0
   -4.2198    2.4231    6.1708 O   0  0  0  0  0  0  0  0  0  0  0  0
   -3.4678    4.3210    4.7345 C   0  0  2  0  0  0  0  0  0  0  0  0
   -2.6307    4.4093    3.5900 O   0  0  0  0  0  0  0  0  0  0  0  0
   -3.1209    5.4648    5.6946 C   0  0  0  0  0  0  0  0  0  0  0  0
   -1.7291    5.6955    5.7472 O   0  0  0  0  0  0  0  0  0  0  0  0
   -3.8874    2.4701    7.5569 C   0  0  2  0  0  0  0  0  0  0  0  0
   -3.9716    1.0828    8.2114 C   0  0  2  0  0  0  0  0  0  0  0  0
   -3.1320    0.1100    7.4926 N   0  0  0  0  0  0  0  0  0  0  0  0
   -5.4278    0.6040    8.3103 C   0  0  1  0  0  0  0  0  0  0  0  0
   -5.4508   -0.6332    8.9955 O   0  0  0  0  0  0  0  0  0  0  0  0
   -6.2341    1.6570    9.0893 C   0  0  2  0  0  0  0  0  0  0  0  0
   -7.5973    1.2839    9.1724 O   0  0  0  0  0  0  0  0  0  0  0  0
   -6.0951    3.0500    8.4415 C   0  0  1  0  0  0  0  0  0  0  0  0
   -4.7236    3.3998    8.2421 O   0  0  0  0  0  0  0  0  0  0  0  0
   -6.9205    3.2087    7.1561 C   0  0  0  0  0  0  0  0  0  0  0  0
   -8.0978    4.0639    7.3770 N   0  0  0  0  0  0  0  0  0  0  0  0
  1  3  1  0  0  0  0
  1  2  1  6  0  0  0
  3  4  1  6  0  0  0
  5  6  1  1  0  0  0
  5  3  1  0  0  0  0
  7  9  1  0  0  0  0
  7  5  1  0  0  0  0
  7  8  1  6  0  0  0
  9 10  1  0  0  0  0
  9 11  1  1  0  0  0
 10  1  1  0  0  0  0
 11 12  1  0  0  0  0
 13 14  1  6  0  0  0
 13 21  1  0  0  0  0
 15 13  1  0  0  0  0
 16 15  1  0  0  0  0
 16 18  1  0  0  0  0
 16 17  1  6  0  0  0
 18  2  1  1  0  0  0
 18 19  1  0  0  0  0
 19 21  1  0  0  0  0
 19 20  1  1  0  0  0
 21 22  1  1  0  0  0
 23 20  1  1  0  0  0
 23 29  1  0  0  0  0
 23 24  1  0  0  0  0
 24 26  1  0  0  0  0
 24 25  1  6  0  0  0
 26 27  1  1  0  0  0
 28 26  1  0  0  0  0
 28 30  1  1  0  0  0
 29 28  1  0  0  0  0
 30 31  1  0  0  0  0
 32 27  1  6  0  0  0
 32 40  1  0  0  0  0
 32 33  1  0  0  0  0
 33 35  1  0  0  0  0
 33 34  1  6  0  0  0
 35 37  1  0  0  0  0
 35 36  1  1  0  0  0
 37 38  1  6  0  0  0
 39 37  1  0  0  0  0
 39 41  1  6  0  0  0
 40 39  1  0  0  0  0
 42 41  1  0  0  0  0
M  END
>  <CHROM.1>
-170.48780143,176.04094912,37.71512969,-65.72316445,177.06656840,-62.17359473
-63.38434372,179.50821456,-64.40220935,-69.33288135,165.46709116,-65.85018659
64.03146434,142.85296843,-122.89303618,77.32865236,44.93033397,-67.55344751
178.08739359,-176.28346491,106.66540363,-175.53802302,-2.83152201,2.13813519
3.46557748,0.58232526,-0.93977600,-2.53386556

>  <Name>
lig.pdb

>  <RI>
0

>  <Rbt.Current_Directory>
/home/itssahil/PROJECTS/Mol_Feturizer/New_Systems/rnas/2mxs

>  <Rbt.Executable>
rbdock ($Id: //depot/dev/client3/rdock/2013.1/src/exe/rbdock.cxx#4 $)

>  <Rbt.Library>
libRbt.so (2013.1, Build901 2013/11/27)

>  <Rbt.Parameter_File>
/export/apps/rDock/src/rDock_2013.1_src/data/scripts/dock_solv.prm

>  <Rbt.Receptor>
prm/pocket_docking_7.prm

>  <SCORE>
-37.3082

>  <SCORE.INTER>
-32.0213

>  <SCORE.INTER.CONST>
1

>  <SCORE.INTER.POLAR>
-5.02685

>  <SCORE.INTER.ROT>
9

>  <SCORE.INTER.SOLV>
16.0775

>  <SCORE.INTER.VDW>
-19.5505

>  <SCORE.INTER.norm>
-0.762411

>  <SCORE.INTRA>
-5.28697

>  <SCORE.INTRA.DIHEDRAL>
-7.14076

>  <SCORE.INTRA.DIHEDRAL.0>
30.1357

>  <SCORE.INTRA.POLAR>
-1.52537

>  <SCORE.INTRA.POLAR.0>
-0.631696

>  <SCORE.INTRA.REPUL>
0

>  <SCORE.INTRA.REPUL.0>
0

>  <SCORE.INTRA.SOLV>
0.717827

>  <SCORE.INTRA.SOLV.lig_0>
-55.904

>  <SCORE.INTRA.VDW>
3.11076

>  <SCORE.INTRA.VDW.0>
-8.21197

>  <SCORE.INTRA.norm>
-0.12588

>  <SCORE.RESTR>
0

>  <SCORE.RESTR.CAVITY>
0

>  <SCORE.RESTR.norm>
0

>  <SCORE.SYSTEM>
0

>  <SCORE.SYSTEM.CONST>
0

>  <SCORE.SYSTEM.DIHEDRAL>
0

>  <SCORE.SYSTEM.SOLV>
0

>  <SCORE.SYSTEM.norm>
0

>  <SCORE.heavy>
42

>  <SCORE.norm>
-0.888291

>  <RMSD>
6.035

$$$$
lig.pdb
 OpenBabel11021811453D
libRbt.so/2013.1/901 2013/11/27
 42 45  0  0  0  0  0  0  0  0999 V2000
   -0.3695    4.6666    1.4740 C   0  0  2  0  0  0  0  0  0  0  0  0
    0.0716    5.2771    0.2598 O   0  0  0  0  0  0  0  0  0  0  0  0
   -1.8533    4.2792    1.3841 C   0  0  2  0  0  0  0  0  0  0  0  0
   -2.1066    3.4240    0.2099 N   0  0  0  0  0  0  0  0  0  0  0  0
   -2.7467    5.5261    1.3604 C   0  0  1  0  0  0  0  0  0  0  0  0
   -4.1038    5.1329    1.4318 O   0  0  0  0  0  0  0  0  0  0  0  0
   -2.4180    6.4390    2.5514 C   0  0  2  0  0  0  0  0  0  0  0  0
   -3.1365    7.6511    2.4249 O   0  0  0  0  0  0  0  0  0  0  0  0
   -0.9068    6.7343    2.6374 C   0  0  2  0  0  0  0  0  0  0  0  0
   -0.1419    5.5305    2.5848 O   0  0  0  0  0  0  0  0  0  0  0  0
   -0.6365    7.4649    3.9665 C   0  0  0  0  0  0  0  0  0  0  0  0
   -1.3048    8.7532    4.0292 O   0  0  0  0  0  0  0  0  0  0  0  0
    3.3526    4.1660   -2.2959 C   0  0  2  0  0  0  0  0  0  0  0  0
    4.7611    3.7916   -2.5331 N   0  0  0  0  0  0  0  0  0  0  0  0
    3.2714    5.5565   -1.6610 C   0  0  0  0  0  0  0  0  0  0  0  0
    1.8332    5.8915   -1.2841 C   0  0  2  0  0  0  0  0  0  0  0  0
    1.7509    7.2633   -0.7672 N   0  0  0  0  0  0  0  0  0  0  0  0
    1.3441    4.8517   -0.2491 C   0  0  2  0  0  0  0  0  0  0  0  0
    1.2703    3.5165   -0.9180 C   0  0  2  0  0  0  0  0  0  0  0  0
    0.7816    2.5890    0.0335 O   0  0  0  0  0  0  0  0  0  0  0  0
    2.6472    3.1179   -1.4148 C   0  0  1  0  0  0  0  0  0  0  0  0
    2.6209    1.8979   -2.1317 O   0  0  0  0  0  0  0  0  0  0  0  0
    1.4697    2.4889    1.2759 C   0  0  1  0  0  0  0  0  0  0  0  0
    0.4580    2.0496    2.3365 C   0  0  2  0  0  0  0  0  0  0  0  0
    0.7640    2.6814    3.5653 O   0  0  0  0  0  0  0  0  0  0  0  0
    0.6634    0.5294    2.3797 C   0  0  2  0  0  0  0  0  0  0  0  0
    0.2016   -0.0569    3.5970 O   0  0  0  0  0  0  0  0  0  0  0  0
    2.1805    0.4600    2.1662 C   0  0  2  0  0  0  0  0  0  0  0  0
    2.4515    1.4633    1.1974 O   0  0  0  0  0  0  0  0  0  0  0  0
    2.6847   -0.8890    1.6404 C   0  0  0  0  0  0  0  0  0  0  0  0
    3.8623   -0.7419    0.8757 O   0  0  0  0  0  0  0  0  0  0  0  0
    0.4197   -1.4626    3.6999 C   0  0  2  0  0  0  0  0  0  0  0  0
   -0.8544   -2.2622    3.3876 C   0  0  2  0  0  0  0  0  0  0  0  0
   -1.3925   -1.8997    2.0658 N   0  0  0  0  0  0  0  0  0  0  0  0
   -1.9068   -2.0818    4.4919 C   0  0  1  0  0  0  0  0  0  0  0  0
   -3.0182   -2.9049    4.1953 O   0  0  0  0  0  0  0  0  0  0  0  0
   -1.2805   -2.4991    5.8333 C   0  0  2  0  0  0  0  0  0  0  0  0
   -2.1980   -2.3109    6.8950 O   0  0  0  0  0  0  0  0  0  0  0  0
    0.0223   -1.7180    6.1019 C   0  0  1  0  0  0  0  0  0  0  0  0
    0.9195   -1.7994    4.9921 O   0  0  0  0  0  0  0  0  0  0  0  0
   -0.2180   -0.2657    6.5401 C   0  0  0  0  0  0  0  0  0  0  0  0
   -0.6928   -0.1970    7.9315 N   0  0  0  0  0  0  0  0  0  0  0  0
  1  3  1  0  0  0  0
  1  2  1  6  0  0  0
  3  4  1  6  0  0  0
  5  6  1  1  0  0  0
  5  3  1  0  0  0  0
  7  9  1  0  0  0  0
  7  5  1  0  0  0  0
  7  8  1  6  0  0  0
  9 10  1  0  0  0  0
  9 11  1  1  0  0  0
 10  1  1  0  0  0  0
 11 12  1  0  0  0  0
 13 14  1  1  0  0  0
 13 21  1  0  0  0  0
 15 13  1  0  0  0  0
 16 15  1  0  0  0  0
 16 18  1  0  0  0  0
 16 17  1  1  0  0  0
 18  2  1  6  0  0  0
 18 19  1  0  0  0  0
 19 21  1  0  0  0  0
 19 20  1  1  0  0  0
 21 22  1  6  0  0  0
 23 20  1  6  0  0  0
 23 29  1  0  0  0  0
 23 24  1  0  0  0  0
 24 26  1  0  0  0  0
 24 25  1  1  0  0  0
 26 27  1  1  0  0  0
 28 26  1  0  0  0  0
 28 30  1  6  0  0  0
 29 28  1  0  0  0  0
 30 31  1  0  0  0  0
 32 27  1  1  0  0  0
 32 40  1  0  0  0  0
 32 33  1  0  0  0  0
 33 35  1  0  0  0  0
 33 34  1  6  0  0  0
 35 37  1  0  0  0  0
 35 36  1  6  0  0  0
 37 38  1  1  0  0  0
 39 37  1  0  0  0  0
 39 41  1  6  0  0  0
 40 39  1  0  0  0  0
 42 41  1  0  0  0  0
M  END
>  <CHROM.1>
-163.12938890,-136.04930741,155.48782744,-175.67583592,-170.67080487,-69.18282883
-63.28194338,52.57309072,-85.49039567,-54.34811480,151.40688507,91.92260218
-176.24830150,-177.74027933,-100.50525489,151.44714431,-138.21243268,51.30731124
173.20026746,164.43747212,74.48903550,-174.34260685,0.18053584,2.43409071
2.07037421,1.35171294,0.78656290,-0.42113808

>  <Name>
lig.pdb

>  <RI>
0

>  <Rbt.Current_Directory>
/home/itssahil/PROJECTS/Mol_Feturizer/New_Systems/rnas/2mxs

>  <Rbt.Executable>
rbdock ($Id: //depot/dev/client3/rdock/2013.1/src/exe/rbdock.cxx#4 $)

>  <Rbt.Library>
libRbt.so (2013.1, Build901 2013/11/27)

>  <Rbt.Parameter_File>
/export/apps/rDock/src/rDock_2013.1_src/data/scripts/dock_solv.prm

>  <Rbt.Receptor>
prm/blind_docking_80.prm

>  <SCORE>
-13.0227

>  <SCORE.INTER>
-29.4856

>  <SCORE.INTER.CONST>
1

>  <SCORE.INTER.POLAR>
-5.65579

>  <SCORE.INTER.ROT>
9

>  <SCORE.INTER.SOLV>
33.3201

>  <SCORE.INTER.VDW>
-21.5112

>  <SCORE.INTER.norm>
-0.702039

>  <SCORE.INTRA>
3.34754

>  <SCORE.INTRA.DIHEDRAL>
4.86992

>  <SCORE.INTRA.DIHEDRAL.0>
30.1357

>  <SCORE.INTRA.POLAR>
-1.16198

>  <SCORE.INTRA.POLAR.0>
-0.631696

>  <SCORE.INTRA.REPUL>
0

>  <SCORE.INTRA.REPUL.0>
0

>  <SCORE.INTRA.SOLV>
0.441177

>  <SCORE.INTRA.SOLV.lig_0>
-55.904

>  <SCORE.INTRA.VDW>
4.64272

>  <SCORE.INTRA.VDW.0>
-8.21197

>  <SCORE.INTRA.norm>
0.0797034

>  <SCORE.RESTR>
13.1154

>  <SCORE.RESTR.CAVITY>
13.1154

>  <SCORE.RESTR.norm>
0.312271

>  <SCORE.SYSTEM>
0

>  <SCORE.SYSTEM.CONST>
0

>  <SCORE.SYSTEM.DIHEDRAL>
0

>  <SCORE.SYSTEM.SOLV>
0

>  <SCORE.SYSTEM.norm>
0

>  <SCORE.heavy>
42

>  <SCORE.norm>
-0.310065

>  <RMSD>
6.040

$$$$
lig.pdb
 OpenBabel11021811453D
libRbt.so/2013.1/901 2013/11/27
 42 45  0  0  0  0  0  0  0  0999 V2000
   -3.5448    2.9720    2.2920 C   0  0  2  0  0  0  0  0  0  0  0  0
   -3.6936    3.6473    3.5423 O   0  0  0  0  0  0  0  0  0  0  0  0
   -4.0498    1.5245    2.3884 C   0  0  2  0  0  0  0  0  0  0  0  0
   -5.4393    1.4805    2.8802 N   0  0  0  0  0  0  0  0  0  0  0  0
   -3.1255    0.6773    3.2725 C   0  0  1  0  0  0  0  0  0  0  0  0
   -3.5321   -0.6766    3.2152 O   0  0  0  0  0  0  0  0  0  0  0  0
   -1.6724    0.7933    2.7878 C   0  0  2  0  0  0  0  0  0  0  0  0
   -0.8188    0.1366    3.7052 O   0  0  0  0  0  0  0  0  0  0  0  0
   -1.2424    2.2666    2.6371 C   0  0  2  0  0  0  0  0  0  0  0  0
   -2.1866    3.0028    1.8603 O   0  0  0  0  0  0  0  0  0  0  0  0
    0.1345    2.2954    1.9468 C   0  0  0  0  0  0  0  0  0  0  0  0
    0.0856    1.7433    0.6039 O   0  0  0  0  0  0  0  0  0  0  0  0
   -1.2104    7.1115    2.9394 C   0  0  2  0  0  0  0  0  0  0  0  0
   -0.7784    8.4867    3.2598 N   0  0  0  0  0  0  0  0  0  0  0  0
   -2.6814    7.1011    2.5160 C   0  0  0  0  0  0  0  0  0  0  0  0
   -3.1735    5.6720    2.3199 C   0  0  2  0  0  0  0  0  0  0  0  0
   -4.5539    5.6753    1.8199 N   0  0  0  0  0  0  0  0  0  0  0  0
   -3.0464    4.9220    3.6664 C   0  0  2  0  0  0  0  0  0  0  0  0
   -1.5949    4.7915    4.0005 C   0  0  2  0  0  0  0  0  0  0  0  0
   -1.4996    4.0669    5.2131 O   0  0  0  0  0  0  0  0  0  0  0  0
   -0.9765    6.1702    4.1358 C   0  0  1  0  0  0  0  0  0  0  0  0
    0.4179    6.1066    4.3695 O   0  0  0  0  0  0  0  0  0  0  0  0
   -0.2625    3.4267    5.5074 C   0  0  1  0  0  0  0  0  0  0  0  0
    0.2656    4.0108    6.8194 C   0  0  2  0  0  0  0  0  0  0  0  0
    1.6769    4.0957    6.7595 O   0  0  0  0  0  0  0  0  0  0  0  0
   -0.2274    2.9928    7.8566 C   0  0  2  0  0  0  0  0  0  0  0  0
    0.5189    3.0367    9.0732 O   0  0  0  0  0  0  0  0  0  0  0  0
   -0.0717    1.6966    7.0517 C   0  0  2  0  0  0  0  0  0  0  0  0
   -0.4839    2.0408    5.7364 O   0  0  0  0  0  0  0  0  0  0  0  0
   -0.9326    0.5320    7.5546 C   0  0  0  0  0  0  0  0  0  0  0  0
   -0.7482   -0.6275    6.7705 O   0  0  0  0  0  0  0  0  0  0  0  0
   -0.2614    2.8707   10.2554 C   0  0  2  0  0  0  0  0  0  0  0  0
    0.3739    3.5777   11.4624 C   0  0  2  0  0  0  0  0  0  0  0  0
    0.6107    5.0019   11.1733 N   0  0  0  0  0  0  0  0  0  0  0  0
    1.6648    2.8710   11.9025 C   0  0  1  0  0  0  0  0  0  0  0  0
    2.1562    3.5109   13.0643 O   0  0  0  0  0  0  0  0  0  0  0  0
    1.3345    1.3999   12.2064 C   0  0  2  0  0  0  0  0  0  0  0  0
    2.5022    0.6901   12.5766 O   0  0  0  0  0  0  0  0  0  0  0  0
    0.6541    0.7250   10.9977 C   0  0  1  0  0  0  0  0  0  0  0  0
   -0.4628    1.4868   10.5333 O   0  0  0  0  0  0  0  0  0  0  0  0
    1.6296    0.3859    9.8609 C   0  0  0  0  0  0  0  0  0  0  0  0
    2.6137   -0.6242   10.2824 N   0  0  0  0  0  0  0  0  0  0  0  0
  1  3  1  0  0  0  0
  1  2  1  1  0  0  0
  3  4  1  1  0  0  0
  5  6  1  6  0  0  0
  5  3  1  0  0  0  0
  7  9  1  0  0  0  0
  7  5  1  0  0  0  0
  7  8  1  1  0  0  0
  9 10  1  0  0  0  0
  9 11  1  6  0  0  0
 10  1  1  0  0  0  0
 11 12  1  0  0  0  0
 13 14  1  1  0  0  0
 13 21  1  0  0  0  0
 15 13  1  0  0  0  0
 16 15  1  0  0  0  0
 16 18  1  0  0  0  0
 16 17  1  1  0  0  0
 18  2  1  6  0  0  0
 18 19  1  0  0  0  0
 19 21  1  0  0  0  0
 19 20  1  1  0  0  0
 21 22  1  6  0  0  0
 23 20  1  1  0  0  0
 23 29  1  0  0  0  0
 23 24  1  0  0  0  0
 24 26  1  0  0  0  0
 24 25  1  6  0  0  0
 26 27  1  1  0  0  0
 28 26  1  0  0  0  0
 28 30  1  1  0  0  0
 29 28  1  0  0  0  0
 30 31  1  0  0  0  0
 32 27  1  6  0  0  0
 32 40  1  0  0  0  0
 32 33  1  0  0  0  0
 33 35  1  0  0  0  0
 33 34  1  6  0  0  0
 35 37  1  0  0  0  0
 35 36  1  1  0  0  0
 37 38  1  6  0  0  0
 39 37  1  0  0  0  0
 39 41  1  6  0  0  0
 40 39  1  0  0  0  0
 42 41  1  0  0  0  0
M  END
>  <CHROM.1>
38.06866625,169.13548320,47.70465845,62.51553069,48.58141798,-55.25325129
63.02437991,-63.54536792,-146.80311637,159.17142567,119.89352848,-73.75189811
53.91729191,141.05088660,-151.94842055,179.76852285,-164.24164111,51.66274793
-179.69401053,62.89138348,64.84426881,78.42552652,-0.82601407,2.90414680
6.02813034,2.77369119,-1.12372734,-0.19201101

>  <Name>
lig.pdb

>  <RI>
0

>  <Rbt.Current_Directory>
/home/itssahil/PROJECTS/Mol_Feturizer/New_Systems/rnas/2mxs

>  <Rbt.Executable>
rbdock ($Id: //depot/dev/client3/rdock/2013.1/src/exe/rbdock.cxx#4 $)

>  <Rbt.Library>
libRbt.so (2013.1, Build901 2013/11/27)

>  <Rbt.Parameter_File>
/export/apps/rDock/src/rDock_2013.1_src/data/scripts/dock_solv.prm

>  <Rbt.Receptor>
prm/pocket_docking_4.prm

>  <SCORE>
-27.0703

>  <SCORE.INTER>
-30.933

>  <SCORE.INTER.CONST>
1

>  <SCORE.INTER.POLAR>
-4.00864

>  <SCORE.INTER.ROT>
9

>  <SCORE.INTER.SOLV>
18.0244

>  <SCORE.INTER.VDW>
-22.868

>  <SCORE.INTER.norm>
-0.7365

>  <SCORE.INTRA>
3.28319

>  <SCORE.INTRA.DIHEDRAL>
-2.79752

>  <SCORE.INTRA.DIHEDRAL.0>
30.1357

>  <SCORE.INTRA.POLAR>
-0.141796

>  <SCORE.INTRA.POLAR.0>
-0.631696

>  <SCORE.INTRA.REPUL>
0.160755

>  <SCORE.INTRA.REPUL.0>
0

>  <SCORE.INTRA.SOLV>
1.69544

>  <SCORE.INTRA.SOLV.lig_0>
-55.904

>  <SCORE.INTRA.VDW>
3.51256

>  <SCORE.INTRA.VDW.0>
-8.21197

>  <SCORE.INTRA.norm>
0.0781711

>  <SCORE.RESTR>
0.579552

>  <SCORE.RESTR.CAVITY>
0.579552

>  <SCORE.RESTR.norm>
0.0137988

>  <SCORE.SYSTEM>
0

>  <SCORE.SYSTEM.CONST>
0

>  <SCORE.SYSTEM.DIHEDRAL>
0

>  <SCORE.SYSTEM.SOLV>
0

>  <SCORE.SYSTEM.norm>
0

>  <SCORE.heavy>
42

>  <SCORE.norm>
-0.64453

>  <RMSD>
6.040

$$$$
lig.pdb
 OpenBabel11021811453D
libRbt.so/2013.1/901 2013/11/27
 42 45  0  0  0  0  0  0  0  0999 V2000
    1.7950   -0.7810    0.6869 C   0  0  2  0  0  0  0  0  0  0  0  0
    1.3692    0.5112    0.2505 O   0  0  0  0  0  0  0  0  0  0  0  0
    0.5913   -1.7128    0.8934 C   0  0  2  0  0  0  0  0  0  0  0  0
   -0.2376   -1.7842   -0.3240 N   0  0  0  0  0  0  0  0  0  0  0  0
   -0.2433   -1.2730    2.1032 C   0  0  1  0  0  0  0  0  0  0  0  0
   -1.2492   -2.2356    2.3547 O   0  0  0  0  0  0  0  0  0  0  0  0
    0.6507   -1.1349    3.3447 C   0  0  2  0  0  0  0  0  0  0  0  0
   -0.1028   -0.5788    4.4051 O   0  0  0  0  0  0  0  0  0  0  0  0
    1.8819   -0.2510    3.0594 C   0  0  2  0  0  0  0  0  0  0  0  0
    2.5648   -0.6816    1.8824 O   0  0  0  0  0  0  0  0  0  0  0  0
    2.8276   -0.3414    4.2721 C   0  0  0  0  0  0  0  0  0  0  0  0
    4.1313    0.2363    3.9944 O   0  0  0  0  0  0  0  0  0  0  0  0
    3.9957    3.0793   -1.9940 C   0  0  2  0  0  0  0  0  0  0  0  0
    4.7441    3.4461   -3.2128 N   0  0  0  0  0  0  0  0  0  0  0  0
    4.4652    1.7197   -1.4704 C   0  0  0  0  0  0  0  0  0  0  0  0
    3.6030    1.2694   -0.2970 C   0  0  2  0  0  0  0  0  0  0  0  0
    4.1210    0.0136    0.2602 N   0  0  0  0  0  0  0  0  0  0  0  0
    2.1438    1.1270   -0.7888 C   0  0  2  0  0  0  0  0  0  0  0  0
    1.6314    2.4844   -1.1500 C   0  0  2  0  0  0  0  0  0  0  0  0
    0.2834    2.3372   -1.5571 O   0  0  0  0  0  0  0  0  0  0  0  0
    2.4792    3.0703   -2.2633 C   0  0  1  0  0  0  0  0  0  0  0  0
    2.0902    4.3916   -2.5884 O   0  0  0  0  0  0  0  0  0  0  0  0
   -0.6218    3.3914   -1.2468 C   0  0  1  0  0  0  0  0  0  0  0  0
   -1.1041    3.1856    0.1907 C   0  0  2  0  0  0  0  0  0  0  0  0
   -2.4595    3.5803    0.2907 O   0  0  0  0  0  0  0  0  0  0  0  0
   -0.1582    4.0921    0.9898 C   0  0  2  0  0  0  0  0  0  0  0  0
   -0.6849    4.4526    2.2670 O   0  0  0  0  0  0  0  0  0  0  0  0
   -0.0086    5.2562    0.0026 C   0  0  2  0  0  0  0  0  0  0  0  0
    0.0660    4.6357   -1.2733 O   0  0  0  0  0  0  0  0  0  0  0  0
    1.2473    6.1094    0.2155 C   0  0  0  0  0  0  0  0  0  0  0  0
    1.0270    7.4573   -0.1418 O   0  0  0  0  0  0  0  0  0  0  0  0
    0.2963    4.8398    3.2269 C   0  0  2  0  0  0  0  0  0  0  0  0
   -0.1243    4.4646    4.6560 C   0  0  2  0  0  0  0  0  0  0  0  0
   -0.4311    3.0279    4.7543 N   0  0  0  0  0  0  0  0  0  0  0  0
   -1.3047    5.3254    5.1305 C   0  0  1  0  0  0  0  0  0  0  0  0
   -1.5908    4.9971    6.4763 O   0  0  0  0  0  0  0  0  0  0  0  0
   -0.9025    6.8059    5.0196 C   0  0  2  0  0  0  0  0  0  0  0  0
   -1.9742    7.6468    5.4055 O   0  0  0  0  0  0  0  0  0  0  0  0
   -0.4383    7.1468    3.5885 C   0  0  1  0  0  0  0  0  0  0  0  0
    0.5657    6.2368    3.1334 O   0  0  0  0  0  0  0  0  0  0  0  0
   -1.5957    7.2721    2.5867 C   0  0  0  0  0  0  0  0  0  0  0  0
   -2.6876    6.3395    2.9096 N   0  0  0  0  0  0  0  0  0  0  0  0
  1  3  1  0  0  0  0
  1  2  1  1  0  0  0
  3  4  1  6  0  0  0
  5  6  1  1  0  0  0
  5  3  1  0  0  0  0
  7  9  1  0  0  0  0
  7  5  1  0  0  0  0
  7  8  1  1  0  0  0
  9 10  1  0  0  0  0
  9 11  1  1  0  0  0
 10  1  1  0  0  0  0
 11 12  1  0  0  0  0
 13 14  1  6  0  0  0
 13 21  1  0  0  0  0
 15 13  1  0  0  0  0
 16 15  1  0  0  0  0
 16 18  1  0  0  0  0
 16 17  1  6  0  0  0
 18  2  1  1  0  0  0
 18 19  1  0  0  0  0
 19 21  1  0  0  0  0
 19 20  1  6  0  0  0
 21 22  1  1  0  0  0
 23 20  1  1  0  0  0
 23 29  1  0  0  0  0
 23 24  1  0  0  0  0
 24 26  1  0  0  0  0
 24 25  1  6  0  0  0
 26 27  1  1  0  0  0
 28 26  1  0  0  0  0
 28 30  1  1  0  0  0
 29 28  1  0  0  0  0
 30 31  1  0  0  0  0
 32 27  1  6  0  0  0
 32 40  1  0  0  0  0
 32 33  1  0  0  0  0
 33 35  1  0  0  0  0
 33 34  1  6  0  0  0
 35 37  1  0  0  0  0
 35 36  1  1  0  0  0
 37 38  1  6  0  0  0
 39 37  1  0  0  0  0
 39 41  1  6  0  0  0
 40 39  1  0  0  0  0
 42 41  1  0  0  0  0
M  END
>  <CHROM.1>
-58.87975633,-138.02254731,-55.72105054,75.82708526,-56.19086882,88.83604629
168.44709923,-35.99513001,38.86134904,145.70622779,-83.29710043,-153.98196281
-151.46729776,157.35361679,-148.12012451,-148.28903046,-45.92784102,64.86549881
-58.83105833,-157.11107002,-33.71660588,-48.77489291,0.70562784,2.84147716
1.44797709,0.49770505,-1.05370853,2.64796150

>  <Name>
lig.pdb

>  <RI>
0

>  <Rbt.Current_Directory>
/home/itssahil/PROJECTS/Mol_Feturizer/New_Systems/rnas/2mxs

>  <Rbt.Executable>
rbdock ($Id: //depot/dev/client3/rdock/2013.1/src/exe/rbdock.cxx#4 $)

>  <Rbt.Library>
libRbt.so (2013.1, Build901 2013/11/27)

>  <Rbt.Parameter_File>
/export/apps/rDock/src/rDock_2013.1_src/data/scripts/dock_solv.prm

>  <Rbt.Receptor>
prm/blind_docking_60.prm

>  <SCORE>
27.3138

>  <SCORE.INTER>
-15.3585

>  <SCORE.INTER.CONST>
1

>  <SCORE.INTER.POLAR>
-3.36878

>  <SCORE.INTER.ROT>
9

>  <SCORE.INTER.SOLV>
28.2946

>  <SCORE.INTER.VDW>
-18.0413

>  <SCORE.INTER.norm>
-0.36568

>  <SCORE.INTRA>
14.6533

>  <SCORE.INTRA.DIHEDRAL>
10.854

>  <SCORE.INTRA.DIHEDRAL.0>
30.1357

>  <SCORE.INTRA.POLAR>
-1.39396

>  <SCORE.INTRA.POLAR.0>
-0.631696

>  <SCORE.INTRA.REPUL>
0

>  <SCORE.INTRA.REPUL.0>
0

>  <SCORE.INTRA.SOLV>
1.75573

>  <SCORE.INTRA.SOLV.lig_0>
-55.904

>  <SCORE.INTRA.VDW>
13.0879

>  <SCORE.INTRA.VDW.0>
-8.21197

>  <SCORE.INTRA.norm>
0.348889

>  <SCORE.RESTR>
28.019

>  <SCORE.RESTR.CAVITY>
28.019

>  <SCORE.RESTR.norm>
0.667118

>  <SCORE.SYSTEM>
0

>  <SCORE.SYSTEM.CONST>
0

>  <SCORE.SYSTEM.DIHEDRAL>
0

>  <SCORE.SYSTEM.SOLV>
0

>  <SCORE.SYSTEM.norm>
0

>  <SCORE.heavy>
42

>  <SCORE.norm>
0.650328

>  <RMSD>
6.042

$$$$
lig.pdb
 OpenBabel11021811453D
libRbt.so/2013.1/901 2013/11/27
 42 45  0  0  0  0  0  0  0  0999 V2000
    1.5291    0.3358    0.6823 C   0  0  2  0  0  0  0  0  0  0  0  0
    1.8041    0.9923    1.9212 O   0  0  0  0  0  0  0  0  0  0  0  0
    2.8094    0.1853   -0.1532 C   0  0  2  0  0  0  0  0  0  0  0  0
    3.8650   -0.5002    0.6151 N   0  0  0  0  0  0  0  0  0  0  0  0
    3.2961    1.5477   -0.6637 C   0  0  1  0  0  0  0  0  0  0  0  0
    4.3820    1.3563   -1.5502 O   0  0  0  0  0  0  0  0  0  0  0  0
    2.1614    2.2769   -1.3988 C   0  0  2  0  0  0  0  0  0  0  0  0
    2.5797    3.5892   -1.7216 O   0  0  0  0  0  0  0  0  0  0  0  0
    0.8786    2.3331   -0.5446 C   0  0  2  0  0  0  0  0  0  0  0  0
    0.5301    1.0400   -0.0512 O   0  0  0  0  0  0  0  0  0  0  0  0
   -0.2608    2.8778   -1.4268 C   0  0  0  0  0  0  0  0  0  0  0  0
   -1.1106    3.8120   -0.7089 O   0  0  0  0  0  0  0  0  0  0  0  0
    0.4931   -1.7840    4.9385 C   0  0  2  0  0  0  0  0  0  0  0  0
   -0.0602   -2.1105    6.2680 N   0  0  0  0  0  0  0  0  0  0  0  0
    1.8048   -1.0084    5.0840 C   0  0  0  0  0  0  0  0  0  0  0  0
    2.3089   -0.5459    3.7221 C   0  0  2  0  0  0  0  0  0  0  0  0
    3.6149    0.1105    3.8611 N   0  0  0  0  0  0  0  0  0  0  0  0
    1.2499    0.3956    3.1027 C   0  0  2  0  0  0  0  0  0  0  0  0
    0.0193   -0.4024    2.8118 C   0  0  2  0  0  0  0  0  0  0  0  0
   -0.9205    0.4675    2.2081 O   0  0  0  0  0  0  0  0  0  0  0  0
   -0.5254   -0.9882    4.1007 C   0  0  1  0  0  0  0  0  0  0  0  0
   -1.6448   -1.8240    3.8734 O   0  0  0  0  0  0  0  0  0  0  0  0
   -1.4355    1.5364    2.9949 C   0  0  1  0  0  0  0  0  0  0  0  0
   -0.5141    2.7432    2.8045 C   0  0  2  0  0  0  0  0  0  0  0  0
   -0.4207    3.4576    4.0226 O   0  0  0  0  0  0  0  0  0  0  0  0
   -1.2299    3.5349    1.7018 C   0  0  2  0  0  0  0  0  0  0  0  0
   -0.8503    4.9111    1.6734 O   0  0  0  0  0  0  0  0  0  0  0  0
   -2.6899    3.2772    2.0947 C   0  0  2  0  0  0  0  0  0  0  0  0
   -2.7150    1.9174    2.5052 O   0  0  0  0  0  0  0  0  0  0  0  0
   -3.6960    3.4717    0.9543 C   0  0  0  0  0  0  0  0  0  0  0  0
   -4.9715    2.9719    1.2953 O   0  0  0  0  0  0  0  0  0  0  0  0
   -1.6405    5.7280    0.8118 C   0  0  2  0  0  0  0  0  0  0  0  0
   -0.7702    6.6410   -0.0652 C   0  0  2  0  0  0  0  0  0  0  0  0
    0.2146    5.8555   -0.8275 N   0  0  0  0  0  0  0  0  0  0  0  0
   -0.0901    7.7325    0.7749 C   0  0  1  0  0  0  0  0  0  0  0  0
    0.6247    8.5906   -0.0932 O   0  0  0  0  0  0  0  0  0  0  0  0
   -1.1795    8.5209    1.5216 C   0  0  2  0  0  0  0  0  0  0  0  0
   -0.6016    9.5154    2.3472 O   0  0  0  0  0  0  0  0  0  0  0  0
   -2.0700    7.5779    2.3566 C   0  0  1  0  0  0  0  0  0  0  0  0
   -2.5733    6.4979    1.5668 O   0  0  0  0  0  0  0  0  0  0  0  0
   -1.3929    7.0812    3.6426 C   0  0  0  0  0  0  0  0  0  0  0  0
   -2.2738    6.1748    4.3967 N   0  0  0  0  0  0  0  0  0  0  0  0
  1  3  1  0  0  0  0
  1  2  1  1  0  0  0
  3  4  1  1  0  0  0
  5  6  1  6  0  0  0
  5  3  1  0  0  0  0
  7  9  1  0  0  0  0
  7  5  1  0  0  0  0
  7  8  1  1  0  0  0
  9 10  1  0  0  0  0
  9 11  1  6  0  0  0
 10  1  1  0  0  0  0
 11 12  1  0  0  0  0
 13 14  1  1  0  0  0
 13 21  1  0  0  0  0
 15 13  1  0  0  0  0
 16 15  1  0  0  0  0
 16 18  1  0  0  0  0
 16 17  1  1  0  0  0
 18  2  1  6  0  0  0
 18 19  1  0  0  0  0
 19 21  1  0  0  0  0
 19 20  1  1  0  0  0
 21 22  1  6  0  0  0
 23 20  1  6  0  0  0
 23 29  1  0  0  0  0
 23 24  1  0  0  0  0
 24 26  1  0  0  0  0
 24 25  1  1  0  0  0
 26 27  1  1  0  0  0
 28 26  1  0  0  0  0
 28 30  1  6  0  0  0
 29 28  1  0  0  0  0
 30 31  1  0  0  0  0
 32 27  1  1  0  0  0
 32 40  1  0  0  0  0
 32 33  1  0  0  0  0
 33 35  1  0  0  0  0
 33 34  1  1  0  0  0
 35 37  1  0  0  0  0
 35 36  1  6  0  0  0
 37 38  1  1  0  0  0
 39 37  1  0  0  0  0
 39 41  1  1  0  0  0
 40 39  1  0  0  0  0
 42 41  1  0  0  0  0
M  END
>  <CHROM.1>
93.82427898,-132.96195771,90.65987211,-69.88529495,77.23604763,-153.43252263
-139.21588529,-32.14146988,104.61141326,-65.42867937,89.70477009,-42.76965062
-149.33046342,-170.50434604,-133.40557840,168.36071621,75.09559633,-48.30584588
-59.99693501,-70.67238798,-179.37230749,-173.28512822,-0.02753703,2.87171582
1.70210149,-1.14331627,0.70850204,-0.51010643

>  <Name>
lig.pdb

>  <RI>
0

>  <Rbt.Current_Directory>
/home/itssahil/PROJECTS/Mol_Feturizer/New_Systems/rnas/2mxs

>  <Rbt.Executable>
rbdock ($Id: //depot/dev/client3/rdock/2013.1/src/exe/rbdock.cxx#4 $)

>  <Rbt.Library>
libRbt.so (2013.1, Build901 2013/11/27)

>  <Rbt.Parameter_File>
/export/apps/rDock/src/rDock_2013.1_src/data/scripts/dock_solv.prm

>  <Rbt.Receptor>
prm/blind_docking_20.prm

>  <SCORE>
48.8935

>  <SCORE.INTER>
9.98086

>  <SCORE.INTER.CONST>
1

>  <SCORE.INTER.POLAR>
-3.43065

>  <SCORE.INTER.ROT>
9

>  <SCORE.INTER.SOLV>
32.9164

>  <SCORE.INTER.VDW>
-2.48273

>  <SCORE.INTER.norm>
0.237639

>  <SCORE.INTRA>
23.0051

>  <SCORE.INTRA.DIHEDRAL>
14.4143

>  <SCORE.INTRA.DIHEDRAL.0>
30.1357

>  <SCORE.INTRA.POLAR>
0.270587

>  <SCORE.INTRA.POLAR.0>
-0.631696

>  <SCORE.INTRA.REPUL>
0.00490737

>  <SCORE.INTRA.REPUL.0>
0

>  <SCORE.INTRA.SOLV>
3.67267

>  <SCORE.INTRA.SOLV.lig_0>
-55.904

>  <SCORE.INTRA.VDW>
13.0171

>  <SCORE.INTRA.VDW.0>
-8.21197

>  <SCORE.INTRA.norm>
0.547741

>  <SCORE.RESTR>
15.9076

>  <SCORE.RESTR.CAVITY>
15.9076

>  <SCORE.RESTR.norm>
0.378751

>  <SCORE.SYSTEM>
0

>  <SCORE.SYSTEM.CONST>
0

>  <SCORE.SYSTEM.DIHEDRAL>
0

>  <SCORE.SYSTEM.SOLV>
0

>  <SCORE.SYSTEM.norm>
0

>  <SCORE.heavy>
42

>  <SCORE.norm>
1.16413

>  <RMSD>
6.051

$$$$
lig.pdb
 OpenBabel11021811453D
libRbt.so/2013.1/901 2013/11/27
 42 45  0  0  0  0  0  0  0  0999 V2000
   -0.9741    2.1584    0.9230 C   0  0  2  0  0  0  0  0  0  0  0  0
   -0.1509    3.2437    0.4919 O   0  0  0  0  0  0  0  0  0  0  0  0
   -0.2120    1.2468    1.8966 C   0  0  2  0  0  0  0  0  0  0  0  0
    0.3274    2.0183    3.0316 N   0  0  0  0  0  0  0  0  0  0  0  0
    0.9021    0.4791    1.1733 C   0  0  1  0  0  0  0  0  0  0  0  0
    1.4794   -0.4585    2.0615 O   0  0  0  0  0  0  0  0  0  0  0  0
    0.3331   -0.2597   -0.0475 C   0  0  2  0  0  0  0  0  0  0  0  0
    1.3959   -0.8287   -0.7879 O   0  0  0  0  0  0  0  0  0  0  0  0
   -0.4847    0.6859   -0.9504 C   0  0  2  0  0  0  0  0  0  0  0  0
   -1.4522    1.4130   -0.1939 O   0  0  0  0  0  0  0  0  0  0  0  0
   -1.1939   -0.1670   -2.0194 C   0  0  0  0  0  0  0  0  0  0  0  0
   -2.3650   -0.8449   -1.4909 O   0  0  0  0  0  0  0  0  0  0  0  0
   -0.6646    7.3548    1.6609 C   0  0  2  0  0  0  0  0  0  0  0  0
   -1.3957    8.6376    1.6558 N   0  0  0  0  0  0  0  0  0  0  0  0
   -0.2440    6.9765    0.2386 C   0  0  0  0  0  0  0  0  0  0  0  0
    0.3860    5.5889    0.2161 C   0  0  2  0  0  0  0  0  0  0  0  0
    0.8746    5.2758   -1.1327 N   0  0  0  0  0  0  0  0  0  0  0  0
   -0.6665    4.5661    0.7034 C   0  0  2  0  0  0  0  0  0  0  0  0
   -0.9588    4.8376    2.1443 C   0  0  2  0  0  0  0  0  0  0  0  0
   -1.8914    3.8660    2.5810 O   0  0  0  0  0  0  0  0  0  0  0  0
   -1.5167    6.2401    2.2964 C   0  0  1  0  0  0  0  0  0  0  0  0
   -1.7334    6.5818    3.6526 O   0  0  0  0  0  0  0  0  0  0  0  0
   -2.4170    3.9961    3.8977 C   0  0  1  0  0  0  0  0  0  0  0  0
   -3.8021    3.3460    3.9146 C   0  0  2  0  0  0  0  0  0  0  0  0
   -4.6537    4.0809    4.7733 O   0  0  0  0  0  0  0  0  0  0  0  0
   -3.4991    1.9358    4.4385 C   0  0  2  0  0  0  0  0  0  0  0  0
   -4.6465    1.2941    4.9957 O   0  0  0  0  0  0  0  0  0  0  0  0
   -2.3891    2.2595    5.4462 C   0  0  2  0  0  0  0  0  0  0  0  0
   -1.6095    3.2622    4.8096 O   0  0  0  0  0  0  0  0  0  0  0  0
   -1.4844    1.0718    5.7945 C   0  0  0  0  0  0  0  0  0  0  0  0
   -0.6040    1.3818    6.8537 O   0  0  0  0  0  0  0  0  0  0  0  0
   -4.4408   -0.0645    5.3778 C   0  0  2  0  0  0  0  0  0  0  0  0
   -5.7596   -0.8514    5.4198 C   0  0  2  0  0  0  0  0  0  0  0  0
   -6.4687   -0.7592    4.1327 N   0  0  0  0  0  0  0  0  0  0  0  0
   -6.6461   -0.3858    6.5848 C   0  0  1  0  0  0  0  0  0  0  0  0
   -7.8020   -1.2000    6.6258 O   0  0  0  0  0  0  0  0  0  0  0  0
   -5.8480   -0.5314    7.8915 C   0  0  2  0  0  0  0  0  0  0  0  0
   -6.6066   -0.0739    8.9959 O   0  0  0  0  0  0  0  0  0  0  0  0
   -4.5071    0.2266    7.8076 C   0  0  1  0  0  0  0  0  0  0  0  0
   -3.7734   -0.1362    6.6357 O   0  0  0  0  0  0  0  0  0  0  0  0
   -4.6591    1.7491    7.9408 C   0  0  0  0  0  0  0  0  0  0  0  0
   -5.1452    2.1244    9.2785 N   0  0  0  0  0  0  0  0  0  0  0  0
  1  3  1  0  0  0  0
  1  2  1  6  0  0  0
  3  4  1  1  0  0  0
  5  6  1  1  0  0  0
  5  3  1  0  0  0  0
  7  9  1  0  0  0  0
  7  5  1  0  0  0  0
  7  8  1  6  0  0  0
  9 10  1  0  0  0  0
  9 11  1  6  0  0  0
 10  1  1  0  0  0  0
 11 12  1  0  0  0  0
 13 14  1  6  0  0  0
 13 21  1  0  0  0  0
 15 13  1  0  0  0  0
 16 15  1  0  0  0  0
 16 18  1  0  0  0  0
 16 17  1  6  0  0  0
 18  2  1  1  0  0  0
 18 19  1  0  0  0  0
 19 21  1  0  0  0  0
 19 20  1  6  0  0  0
 21 22  1  1  0  0  0
 23 20  1  6  0  0  0
 23 29  1  0  0  0  0
 23 24  1  0  0  0  0
 24 26  1  0  0  0  0
 24 25  1  1  0  0  0
 26 27  1  1  0  0  0
 28 26  1  0  0  0  0
 28 30  1  6  0  0  0
 29 28  1  0  0  0  0
 30 31  1  0  0  0  0
 32 27  1  1  0  0  0
 32 40  1  0  0  0  0
 32 33  1  0  0  0  0
 33 35  1  0  0  0  0
 33 34  1  6  0  0  0
 35 37  1  0  0  0  0
 35 36  1  1  0  0  0
 37 38  1  1  0  0  0
 39 37  1  0  0  0  0
 39 41  1  6  0  0  0
 40 39  1  0  0  0  0
 42 41  1  0  0  0  0
M  END
>  <CHROM.1>
178.12586971,-124.41242732,50.69481736,-66.18578722,169.26372108,-49.84031309
77.61181421,155.53645518,49.29447785,-174.37818636,152.72729103,78.66207916
-59.85787344,174.27974259,-156.82852950,-172.00815373,-178.24436183,59.80645182
57.07900234,74.91810193,65.42632963,64.39971549,-2.32271373,2.15963372,3.35317613
-0.15571856,-0.94863671,-2.88713966

>  <Name>
lig.pdb

>  <RI>
0

>  <Rbt.Current_Directory>
/home/itssahil/PROJECTS/Mol_Feturizer/New_Systems/rnas/2mxs

>  <Rbt.Executable>
rbdock ($Id: //depot/dev/client3/rdock/2013.1/src/exe/rbdock.cxx#4 $)

>  <Rbt.Library>
libRbt.so (2013.1, Build901 2013/11/27)

>  <Rbt.Parameter_File>
/export/apps/rDock/src/rDock_2013.1_src/data/scripts/dock_solv.prm

>  <Rbt.Receptor>
prm/pocket_docking_7.prm

>  <SCORE>
-37.9441

>  <SCORE.INTER>
-34.5673

>  <SCORE.INTER.CONST>
1

>  <SCORE.INTER.POLAR>
-5.33267

>  <SCORE.INTER.ROT>
9

>  <SCORE.INTER.SOLV>
15.4093

>  <SCORE.INTER.VDW>
-20.0057

>  <SCORE.INTER.norm>
-0.82303

>  <SCORE.INTRA>
-3.37685

>  <SCORE.INTRA.DIHEDRAL>
-9.51008

>  <SCORE.INTRA.DIHEDRAL.0>
30.1357

>  <SCORE.INTRA.POLAR>
-1.0555

>  <SCORE.INTRA.POLAR.0>
-0.631696

>  <SCORE.INTRA.REPUL>
0

>  <SCORE.INTRA.REPUL.0>
0

>  <SCORE.INTRA.SOLV>
0.34616

>  <SCORE.INTRA.SOLV.lig_0>
-55.904

>  <SCORE.INTRA.VDW>
4.79379

>  <SCORE.INTRA.VDW.0>
-8.21197

>  <SCORE.INTRA.norm>
-0.0804013

>  <SCORE.RESTR>
0

>  <SCORE.RESTR.CAVITY>
0

>  <SCORE.RESTR.norm>
0

>  <SCORE.SYSTEM>
0

>  <SCORE.SYSTEM.CONST>
0

>  <SCORE.SYSTEM.DIHEDRAL>
0

>  <SCORE.SYSTEM.SOLV>
0

>  <SCORE.SYSTEM.norm>
0

>  <SCORE.heavy>
42

>  <SCORE.norm>
-0.903431

>  <RMSD>
6.084

$$$$
lig.pdb
 OpenBabel11021811453D
libRbt.so/2013.1/901 2013/11/27
 42 45  0  0  0  0  0  0  0  0999 V2000
    1.6076    5.3552   -1.4042 C   0  0  2  0  0  0  0  0  0  0  0  0
    1.6424    5.4909    0.0178 O   0  0  0  0  0  0  0  0  0  0  0  0
    2.6805    4.3669   -1.8859 C   0  0  2  0  0  0  0  0  0  0  0  0
    2.5482    3.0674   -1.2016 N   0  0  0  0  0  0  0  0  0  0  0  0
    4.0877    4.9480   -1.6973 C   0  0  1  0  0  0  0  0  0  0  0  0
    5.0368    4.0812   -2.2886 O   0  0  0  0  0  0  0  0  0  0  0  0
    4.1841    6.3328   -2.3550 C   0  0  2  0  0  0  0  0  0  0  0  0
    5.4323    6.9172   -2.0358 O   0  0  0  0  0  0  0  0  0  0  0  0
    3.0407    7.2590   -1.8933 C   0  0  2  0  0  0  0  0  0  0  0  0
    1.7714    6.6223   -2.0362 O   0  0  0  0  0  0  0  0  0  0  0  0
    3.0819    8.5362   -2.7537 C   0  0  0  0  0  0  0  0  0  0  0  0
    2.1504    8.4771   -3.8668 O   0  0  0  0  0  0  0  0  0  0  0  0
   -1.5656    5.8234    2.8689 C   0  0  2  0  0  0  0  0  0  0  0  0
   -2.9624    5.6165    3.3008 N   0  0  0  0  0  0  0  0  0  0  0  0
   -1.5211    6.6971    1.6128 C   0  0  0  0  0  0  0  0  0  0  0  0
   -0.0968    6.7990    1.0800 C   0  0  2  0  0  0  0  0  0  0  0  0
   -0.0484    7.7167   -0.0651 N   0  0  0  0  0  0  0  0  0  0  0  0
    0.3880    5.3790    0.7058 C   0  0  2  0  0  0  0  0  0  0  0  0
    0.4981    4.5708    1.9589 C   0  0  2  0  0  0  0  0  0  0  0  0
    0.9824    3.2899    1.5993 O   0  0  0  0  0  0  0  0  0  0  0  0
   -0.8612    4.4754    2.6256 C   0  0  1  0  0  0  0  0  0  0  0  0
   -0.7995    3.7906    3.8626 O   0  0  0  0  0  0  0  0  0  0  0  0
    0.2084    2.5211    0.6847 C   0  0  1  0  0  0  0  0  0  0  0  0
   -0.3041    1.2862    1.4287 C   0  0  2  0  0  0  0  0  0  0  0  0
   -0.3244    0.1817    0.5441 O   0  0  0  0  0  0  0  0  0  0  0  0
   -1.7076    1.7240    1.8687 C   0  0  2  0  0  0  0  0  0  0  0  0
   -2.5674    0.6204    2.1540 O   0  0  0  0  0  0  0  0  0  0  0  0
   -2.1179    2.5629    0.6522 C   0  0  2  0  0  0  0  0  0  0  0  0
   -0.9373    3.2633    0.2861 O   0  0  0  0  0  0  0  0  0  0  0  0
   -3.2329    3.5777    0.9301 C   0  0  0  0  0  0  0  0  0  0  0  0
   -4.5120    3.0025    0.7678 O   0  0  0  0  0  0  0  0  0  0  0  0
   -3.5498    0.8758    3.1559 C   0  0  2  0  0  0  0  0  0  0  0  0
   -3.2792    0.0738    4.4380 C   0  0  2  0  0  0  0  0  0  0  0  0
   -1.9203    0.3316    4.9431 N   0  0  0  0  0  0  0  0  0  0  0  0
   -3.5208   -1.4267    4.2147 C   0  0  1  0  0  0  0  0  0  0  0  0
   -3.3411   -2.1010    5.4450 O   0  0  0  0  0  0  0  0  0  0  0  0
   -4.9614   -1.6175    3.7105 C   0  0  2  0  0  0  0  0  0  0  0  0
   -5.2234   -2.9837    3.4470 O   0  0  0  0  0  0  0  0  0  0  0  0
   -5.2238   -0.7657    2.4515 C   0  0  1  0  0  0  0  0  0  0  0  0
   -4.8573    0.6004    2.6582 O   0  0  0  0  0  0  0  0  0  0  0  0
   -4.5851   -1.3450    1.1806 C   0  0  0  0  0  0  0  0  0  0  0  0
   -4.8151   -0.4712    0.0188 N   0  0  0  0  0  0  0  0  0  0  0  0
  1  3  1  0  0  0  0
  1  2  1  1  0  0  0
  3  4  1  1  0  0  0
  5  6  1  6  0  0  0
  5  3  1  0  0  0  0
  7  9  1  0  0  0  0
  7  5  1  0  0  0  0
  7  8  1  1  0  0  0
  9 10  1  0  0  0  0
  9 11  1  6  0  0  0
 10  1  1  0  0  0  0
 11 12  1  0  0  0  0
 13 14  1  6  0  0  0
 13 21  1  0  0  0  0
 15 13  1  0  0  0  0
 16 15  1  0  0  0  0
 16 18  1  0  0  0  0
 16 17  1  6  0  0  0
 18  2  1  1  0  0  0
 18 19  1  0  0  0  0
 19 21  1  0  0  0  0
 19 20  1  6  0  0  0
 21 22  1  1  0  0  0
 23 20  1  1  0  0  0
 23 29  1  0  0  0  0
 23 24  1  0  0  0  0
 24 26  1  0  0  0  0
 24 25  1  6  0  0  0
 26 27  1  6  0  0  0
 28 26  1  0  0  0  0
 28 30  1  1  0  0  0
 29 28  1  0  0  0  0
 30 31  1  0  0  0  0
 32 27  1  6  0  0  0
 32 40  1  0  0  0  0
 32 33  1  0  0  0  0
 33 35  1  0  0  0  0
 33 34  1  6  0  0  0
 35 37  1  0  0  0  0
 35 36  1  1  0  0  0
 37 38  1  6  0  0  0
 39 37  1  0  0  0  0
 39 41  1  6  0  0  0
 40 39  1  0  0  0  0
 42 41  1  0  0  0  0
M  END
>  <CHROM.1>
-102.09631211,-131.27350172,-46.06205965,-165.45820563,-61.71818302,135.70324147
96.81141034,57.75503827,-119.15220601,-59.60292847,-114.52984618,75.53302948
-177.97527801,149.35335360,-111.50108055,-87.20105767,62.39154839,-179.62965400
60.90525740,59.26890767,-177.65839769,35.72835329,-0.70735525,3.20817691
0.97511647,-0.70785143,-0.60514064,3.11984219

>  <Name>
lig.pdb

>  <RI>
0

>  <Rbt.Current_Directory>
/home/itssahil/PROJECTS/Mol_Feturizer/New_Systems/rnas/2mxs

>  <Rbt.Executable>
rbdock ($Id: //depot/dev/client3/rdock/2013.1/src/exe/rbdock.cxx#4 $)

>  <Rbt.Library>
libRbt.so (2013.1, Build901 2013/11/27)

>  <Rbt.Parameter_File>
/export/apps/rDock/src/rDock_2013.1_src/data/scripts/dock_solv.prm

>  <Rbt.Receptor>
prm/pocket_docking_4.prm

>  <SCORE>
-21.1555

>  <SCORE.INTER>
-34.3518

>  <SCORE.INTER.CONST>
1

>  <SCORE.INTER.POLAR>
-3.66465

>  <SCORE.INTER.ROT>
9

>  <SCORE.INTER.SOLV>
15.6556

>  <SCORE.INTER.VDW>
-25.5042

>  <SCORE.INTER.norm>
-0.817901

>  <SCORE.INTRA>
12.7149

>  <SCORE.INTRA.DIHEDRAL>
19.6584

>  <SCORE.INTRA.DIHEDRAL.0>
30.1357

>  <SCORE.INTRA.POLAR>
-1.53803

>  <SCORE.INTRA.POLAR.0>
-0.631696

>  <SCORE.INTRA.REPUL>
0

>  <SCORE.INTRA.REPUL.0>
0

>  <SCORE.INTRA.SOLV>
2.19393

>  <SCORE.INTRA.SOLV.lig_0>
-55.904

>  <SCORE.INTRA.VDW>
7.01803

>  <SCORE.INTRA.VDW.0>
-8.21197

>  <SCORE.INTRA.norm>
0.302735

>  <SCORE.RESTR>
0.481453

>  <SCORE.RESTR.CAVITY>
0.481453

>  <SCORE.RESTR.norm>
0.0114632

>  <SCORE.SYSTEM>
0

>  <SCORE.SYSTEM.CONST>
0

>  <SCORE.SYSTEM.DIHEDRAL>
0

>  <SCORE.SYSTEM.SOLV>
0

>  <SCORE.SYSTEM.norm>
0

>  <SCORE.heavy>
42

>  <SCORE.norm>
-0.503703

>  <RMSD>
6.089

$$$$
lig.pdb
 OpenBabel11021811453D
libRbt.so/2013.1/901 2013/11/27
 42 45  0  0  0  0  0  0  0  0999 V2000
   -1.4425    4.3503    1.4456 C   0  0  2  0  0  0  0  0  0  0  0  0
   -1.1036    5.0275    0.2340 O   0  0  0  0  0  0  0  0  0  0  0  0
   -2.8980    4.6375    1.8443 C   0  0  2  0  0  0  0  0  0  0  0  0
   -3.8231    4.3041    0.7455 N   0  0  0  0  0  0  0  0  0  0  0  0
   -3.0696    6.0968    2.2853 C   0  0  1  0  0  0  0  0  0  0  0  0
   -4.3787    6.2847    2.7878 O   0  0  0  0  0  0  0  0  0  0  0  0
   -2.0494    6.4455    3.3795 C   0  0  2  0  0  0  0  0  0  0  0  0
   -2.1172    7.8307    3.6589 O   0  0  0  0  0  0  0  0  0  0  0  0
   -0.6153    6.0677    2.9567 C   0  0  2  0  0  0  0  0  0  0  0  0
   -0.5517    4.7185    2.4957 O   0  0  0  0  0  0  0  0  0  0  0  0
    0.3063    6.2441    4.1786 C   0  0  0  0  0  0  0  0  0  0  0  0
    0.0917    7.5155    4.8476 O   0  0  0  0  0  0  0  0  0  0  0  0
    2.6653    5.5638   -1.7757 C   0  0  2  0  0  0  0  0  0  0  0  0
    4.1372    5.6791   -1.7925 N   0  0  0  0  0  0  0  0  0  0  0  0
    2.0546    6.6735   -0.9162 C   0  0  0  0  0  0  0  0  0  0  0  0
    0.5492    6.4791   -0.7786 C   0  0  2  0  0  0  0  0  0  0  0  0
   -0.0410    7.6000   -0.0363 N   0  0  0  0  0  0  0  0  0  0  0  0
    0.2931    5.1229   -0.0810 C   0  0  2  0  0  0  0  0  0  0  0  0
    0.7452    4.0283   -0.9936 C   0  0  2  0  0  0  0  0  0  0  0  0
    0.4639    2.7966   -0.3547 O   0  0  0  0  0  0  0  0  0  0  0  0
    2.2294    4.1754   -1.2709 C   0  0  1  0  0  0  0  0  0  0  0  0
    2.6949    3.2128   -2.1981 O   0  0  0  0  0  0  0  0  0  0  0  0
    1.0805    2.5466    0.9040 C   0  0  1  0  0  0  0  0  0  0  0  0
    0.0171    1.9657    1.8384 C   0  0  2  0  0  0  0  0  0  0  0  0
    0.2401    2.4394    3.1532 O   0  0  0  0  0  0  0  0  0  0  0  0
    0.2466    0.4545    1.7017 C   0  0  2  0  0  0  0  0  0  0  0  0
   -0.2745   -0.2864    2.8054 O   0  0  0  0  0  0  0  0  0  0  0  0
    1.7746    0.4285    1.5721 C   0  0  2  0  0  0  0  0  0  0  0  0
    2.0833    1.5494    0.7556 O   0  0  0  0  0  0  0  0  0  0  0  0
    2.3323   -0.8376    0.9113 C   0  0  0  0  0  0  0  0  0  0  0  0
    3.7266   -0.7477    0.7092 O   0  0  0  0  0  0  0  0  0  0  0  0
   -0.1150    0.3457    4.0739 C   0  0  2  0  0  0  0  0  0  0  0  0
    0.6816   -0.5310    5.0522 C   0  0  2  0  0  0  0  0  0  0  0  0
    1.9823   -0.9127    4.4774 N   0  0  0  0  0  0  0  0  0  0  0  0
   -0.1290   -1.7646    5.4774 C   0  0  1  0  0  0  0  0  0  0  0  0
    0.6166   -2.4851    6.4396 O   0  0  0  0  0  0  0  0  0  0  0  0
   -1.4586   -1.2868    6.0855 C   0  0  2  0  0  0  0  0  0  0  0  0
   -2.2653   -2.3896    6.4562 O   0  0  0  0  0  0  0  0  0  0  0  0
   -2.2173   -0.3697    5.1042 C   0  0  1  0  0  0  0  0  0  0  0  0
   -1.3839    0.6888    4.6265 O   0  0  0  0  0  0  0  0  0  0  0  0
   -2.8906   -1.1333    3.9543 C   0  0  0  0  0  0  0  0  0  0  0  0
   -4.2788   -1.4906    4.2883 N   0  0  0  0  0  0  0  0  0  0  0  0
  1  3  1  0  0  0  0
  1  2  1  6  0  0  0
  3  4  1  6  0  0  0
  5  6  1  1  0  0  0
  5  3  1  0  0  0  0
  7  9  1  0  0  0  0
  7  5  1  0  0  0  0
  7  8  1  6  0  0  0
  9 10  1  0  0  0  0
  9 11  1  1  0  0  0
 10  1  1  0  0  0  0
 11 12  1  0  0  0  0
 13 14  1  1  0  0  0
 13 21  1  0  0  0  0
 15 13  1  0  0  0  0
 16 15  1  0  0  0  0
 16 18  1  0  0  0  0
 16 17  1  1  0  0  0
 18  2  1  6  0  0  0
 18 19  1  0  0  0  0
 19 21  1  0  0  0  0
 19 20  1  1  0  0  0
 21 22  1  6  0  0  0
 23 20  1  6  0  0  0
 23 29  1  0  0  0  0
 23 24  1  0  0  0  0
 24 26  1  0  0  0  0
 24 25  1  1  0  0  0
 26 27  1  1  0  0  0
 28 26  1  0  0  0  0
 28 30  1  6  0  0  0
 29 28  1  0  0  0  0
 30 31  1  0  0  0  0
 32 27  1  6  0  0  0
 32 40  1  0  0  0  0
 32 33  1  0  0  0  0
 33 35  1  0  0  0  0
 33 34  1  6  0  0  0
 35 37  1  0  0  0  0
 35 36  1  1  0  0  0
 37 38  1  6  0  0  0
 39 37  1  0  0  0  0
 39 41  1  6  0  0  0
 40 39  1  0  0  0  0
 42 41  1  0  0  0  0
M  END
>  <CHROM.1>
-145.07149466,165.07880926,-41.38039025,-129.88707488,-58.55299180,-69.97257035
-47.45159346,75.24095850,61.51371964,-60.10753644,135.55933479,61.01532956
67.07155959,-37.99154841,-121.76411588,174.53904638,-161.15809214,-54.59649104
52.61592376,-177.88958173,92.06721181,-141.41446654,-0.14978173,2.78528874
2.18666273,1.39621081,0.69778613,-0.44100312

>  <Name>
lig.pdb

>  <RI>
0

>  <Rbt.Current_Directory>
/home/itssahil/PROJECTS/Mol_Feturizer/New_Systems/rnas/2mxs

>  <Rbt.Executable>
rbdock ($Id: //depot/dev/client3/rdock/2013.1/src/exe/rbdock.cxx#4 $)

>  <Rbt.Library>
libRbt.so (2013.1, Build901 2013/11/27)

>  <Rbt.Parameter_File>
/export/apps/rDock/src/rDock_2013.1_src/data/scripts/dock_solv.prm

>  <Rbt.Receptor>
prm/blind_docking_20.prm

>  <SCORE>
-16.1282

>  <SCORE.INTER>
-46.3144

>  <SCORE.INTER.CONST>
1

>  <SCORE.INTER.POLAR>
-7.23203

>  <SCORE.INTER.ROT>
9

>  <SCORE.INTER.SOLV>
30.8184

>  <SCORE.INTER.VDW>
-26.6423

>  <SCORE.INTER.norm>
-1.10272

>  <SCORE.INTRA>
15.2038

>  <SCORE.INTRA.DIHEDRAL>
8.16813

>  <SCORE.INTRA.DIHEDRAL.0>
30.1357

>  <SCORE.INTRA.POLAR>
-0.332022

>  <SCORE.INTRA.POLAR.0>
-0.631696

>  <SCORE.INTRA.REPUL>
0

>  <SCORE.INTRA.REPUL.0>
0

>  <SCORE.INTRA.SOLV>
1.42411

>  <SCORE.INTRA.SOLV.lig_0>
-55.904

>  <SCORE.INTRA.VDW>
11.5365

>  <SCORE.INTRA.VDW.0>
-8.21197

>  <SCORE.INTRA.norm>
0.361994

>  <SCORE.RESTR>
14.9825

>  <SCORE.RESTR.CAVITY>
14.9825

>  <SCORE.RESTR.norm>
0.356725

>  <SCORE.SYSTEM>
0

>  <SCORE.SYSTEM.CONST>
0

>  <SCORE.SYSTEM.DIHEDRAL>
0

>  <SCORE.SYSTEM.SOLV>
0

>  <SCORE.SYSTEM.norm>
0

>  <SCORE.heavy>
42

>  <SCORE.norm>
-0.384005

>  <RMSD>
6.100

$$$$
lig.pdb
 OpenBabel11021811453D
libRbt.so/2013.1/901 2013/11/27
 42 45  0  0  0  0  0  0  0  0999 V2000
   -1.0958    4.4015    1.5185 C   0  0  2  0  0  0  0  0  0  0  0  0
   -0.7610    4.8357    0.1991 O   0  0  0  0  0  0  0  0  0  0  0  0
   -2.6194    4.3366    1.7031 C   0  0  2  0  0  0  0  0  0  0  0  0
   -3.2424    3.4924    0.6670 N   0  0  0  0  0  0  0  0  0  0  0  0
   -3.2329    5.7428    1.7101 C   0  0  1  0  0  0  0  0  0  0  0  0
   -4.6073    5.6539    2.0335 O   0  0  0  0  0  0  0  0  0  0  0  0
   -2.5227    6.6280    2.7454 C   0  0  2  0  0  0  0  0  0  0  0  0
   -2.9927    7.9570    2.6265 O   0  0  0  0  0  0  0  0  0  0  0  0
   -0.9919    6.5970    2.5609 C   0  0  2  0  0  0  0  0  0  0  0  0
   -0.5071    5.2562    2.4956 O   0  0  0  0  0  0  0  0  0  0  0  0
   -0.3505    7.3245    3.7578 C   0  0  0  0  0  0  0  0  0  0  0  0
   -0.6782    8.7396    3.7783 O   0  0  0  0  0  0  0  0  0  0  0  0
    3.0172    5.1958   -1.8321 C   0  0  2  0  0  0  0  0  0  0  0  0
    4.4859    5.3475   -1.8518 N   0  0  0  0  0  0  0  0  0  0  0  0
    2.3678    6.3951   -1.1371 C   0  0  0  0  0  0  0  0  0  0  0  0
    0.8663    6.1804   -0.9874 C   0  0  2  0  0  0  0  0  0  0  0  0
    0.2385    7.3754   -0.4098 N   0  0  0  0  0  0  0  0  0  0  0  0
    0.6366    4.9252   -0.1138 C   0  0  2  0  0  0  0  0  0  0  0  0
    1.1278    3.7293   -0.8650 C   0  0  2  0  0  0  0  0  0  0  0  0
    0.8704    2.5887   -0.0667 O   0  0  0  0  0  0  0  0  0  0  0  0
    2.6110    3.8776   -1.1468 C   0  0  1  0  0  0  0  0  0  0  0  0
    3.1124    2.8109   -1.9302 O   0  0  0  0  0  0  0  0  0  0  0  0
    1.5005    2.5155    1.2078 C   0  0  1  0  0  0  0  0  0  0  0  0
    0.4468    2.0738    2.2257 C   0  0  2  0  0  0  0  0  0  0  0  0
    0.6849    2.7261    3.4589 O   0  0  0  0  0  0  0  0  0  0  0  0
    0.6732    0.5578    2.2991 C   0  0  2  0  0  0  0  0  0  0  0  0
    0.1635   -0.0202    3.5012 O   0  0  0  0  0  0  0  0  0  0  0  0
    2.1995    0.5097    2.1580 C   0  0  2  0  0  0  0  0  0  0  0  0
    2.5005    1.5047    1.1895 O   0  0  0  0  0  0  0  0  0  0  0  0
    2.7485   -0.8377    1.6747 C   0  0  0  0  0  0  0  0  0  0  0  0
    2.3218   -1.1323    0.3616 O   0  0  0  0  0  0  0  0  0  0  0  0
    0.3912   -1.4222    3.6297 C   0  0  2  0  0  0  0  0  0  0  0  0
   -0.8818   -2.2352    3.3493 C   0  0  2  0  0  0  0  0  0  0  0  0
   -1.4382   -1.9025    2.0272 N   0  0  0  0  0  0  0  0  0  0  0  0
   -1.9217   -2.0384    4.4626 C   0  0  1  0  0  0  0  0  0  0  0  0
   -3.0318   -2.8737    4.1964 O   0  0  0  0  0  0  0  0  0  0  0  0
   -1.2767   -2.4250    5.8044 C   0  0  2  0  0  0  0  0  0  0  0  0
   -2.1822   -2.2206    6.8733 O   0  0  0  0  0  0  0  0  0  0  0  0
    0.0246   -1.6313    6.0411 C   0  0  1  0  0  0  0  0  0  0  0  0
    0.9087   -1.7300    4.9222 O   0  0  0  0  0  0  0  0  0  0  0  0
   -0.2189   -0.1718    6.4529 C   0  0  0  0  0  0  0  0  0  0  0  0
   -0.6913   -0.0788    7.8437 N   0  0  0  0  0  0  0  0  0  0  0  0
  1  3  1  0  0  0  0
  1  2  1  6  0  0  0
  3  4  1  6  0  0  0
  5  6  1  1  0  0  0
  5  3  1  0  0  0  0
  7  9  1  0  0  0  0
  7  5  1  0  0  0  0
  7  8  1  6  0  0  0
  9 10  1  0  0  0  0
  9 11  1  1  0  0  0
 10  1  1  0  0  0  0
 11 12  1  0  0  0  0
 13 14  1  1  0  0  0
 13 21  1  0  0  0  0
 15 13  1  0  0  0  0
 16 15  1  0  0  0  0
 16 18  1  0  0  0  0
 16 17  1  1  0  0  0
 18  2  1  6  0  0  0
 18 19  1  0  0  0  0
 19 21  1  0  0  0  0
 19 20  1  1  0  0  0
 21 22  1  6  0  0  0
 23 20  1  6  0  0  0
 23 29  1  0  0  0  0
 23 24  1  0  0  0  0
 24 26  1  0  0  0  0
 24 25  1  1  0  0  0
 26 27  1  1  0  0  0
 28 26  1  0  0  0  0
 28 30  1  6  0  0  0
 29 28  1  0  0  0  0
 30 31  1  0  0  0  0
 32 27  1  1  0  0  0
 32 40  1  0  0  0  0
 32 33  1  0  0  0  0
 33 35  1  0  0  0  0
 33 34  1  6  0  0  0
 35 37  1  0  0  0  0
 35 36  1  6  0  0  0
 37 38  1  1  0  0  0
 39 37  1  0  0  0  0
 39 41  1  6  0  0  0
 40 39  1  0  0  0  0
 42 41  1  0  0  0  0
M  END
>  <CHROM.1>
-141.19467213,-179.27081197,-51.63828778,58.50995505,-74.92430697,-17.78741262
-65.68857557,-171.61888994,177.91388165,-61.42794700,134.49166933,65.78834487
-168.84067519,-178.08458072,-103.81457478,64.78307026,156.57329118,-176.26271245
176.59505175,-34.13004010,73.86665103,-171.98159613,-0.05837833,2.59008449
2.13655496,1.43012566,0.73812179,-0.41854171

>  <Name>
lig.pdb

>  <RI>
0

>  <Rbt.Current_Directory>
/home/itssahil/PROJECTS/Mol_Feturizer/New_Systems/rnas/2mxs

>  <Rbt.Executable>
rbdock ($Id: //depot/dev/client3/rdock/2013.1/src/exe/rbdock.cxx#4 $)

>  <Rbt.Library>
libRbt.so (2013.1, Build901 2013/11/27)

>  <Rbt.Parameter_File>
/export/apps/rDock/src/rDock_2013.1_src/data/scripts/dock_solv.prm

>  <Rbt.Receptor>
prm/blind_docking_20.prm

>  <SCORE>
-22.465

>  <SCORE.INTER>
-43.1248

>  <SCORE.INTER.CONST>
1

>  <SCORE.INTER.POLAR>
-4.82955

>  <SCORE.INTER.ROT>
9

>  <SCORE.INTER.SOLV>
32.0488

>  <SCORE.INTER.VDW>
-32.9343

>  <SCORE.INTER.norm>
-1.02678

>  <SCORE.INTRA>
5.55697

>  <SCORE.INTRA.DIHEDRAL>
2.11152

>  <SCORE.INTRA.DIHEDRAL.0>
30.1357

>  <SCORE.INTRA.POLAR>
0.352368

>  <SCORE.INTRA.POLAR.0>
-0.631696

>  <SCORE.INTRA.REPUL>
0

>  <SCORE.INTRA.REPUL.0>
0

>  <SCORE.INTRA.SOLV>
0.886294

>  <SCORE.INTRA.SOLV.lig_0>
-55.904

>  <SCORE.INTRA.VDW>
2.86002

>  <SCORE.INTRA.VDW.0>
-8.21197

>  <SCORE.INTRA.norm>
0.132309

>  <SCORE.RESTR>
15.1028

>  <SCORE.RESTR.CAVITY>
15.1028

>  <SCORE.RESTR.norm>
0.35959

>  <SCORE.SYSTEM>
0

>  <SCORE.SYSTEM.CONST>
0

>  <SCORE.SYSTEM.DIHEDRAL>
0

>  <SCORE.SYSTEM.SOLV>
0

>  <SCORE.SYSTEM.norm>
0

>  <SCORE.heavy>
42

>  <SCORE.norm>
-0.534882

>  <RMSD>
6.115

$$$$
lig.pdb
 OpenBabel11021811453D
libRbt.so/2013.1/901 2013/11/27
 42 45  0  0  0  0  0  0  0  0999 V2000
    1.3856    3.6650   -0.8797 C   0  0  2  0  0  0  0  0  0  0  0  0
    1.4097    4.1684    0.4573 O   0  0  0  0  0  0  0  0  0  0  0  0
    2.2230    2.3825   -0.9965 C   0  0  2  0  0  0  0  0  0  0  0  0
    1.7837    1.3726   -0.0159 N   0  0  0  0  0  0  0  0  0  0  0  0
    3.7188    2.6864   -0.8418 C   0  0  1  0  0  0  0  0  0  0  0  0
    4.4659    1.5144   -1.1061 O   0  0  0  0  0  0  0  0  0  0  0  0
    4.1414    3.7912   -1.8219 C   0  0  2  0  0  0  0  0  0  0  0  0
    5.4793    4.1666   -1.5561 O   0  0  0  0  0  0  0  0  0  0  0  0
    3.2219    5.0246   -1.7145 C   0  0  2  0  0  0  0  0  0  0  0  0
    1.8468    4.6519   -1.7989 O   0  0  0  0  0  0  0  0  0  0  0  0
    3.5724    5.9851   -2.8668 C   0  0  0  0  0  0  0  0  0  0  0  0
    4.9252    6.5027   -2.7561 O   0  0  0  0  0  0  0  0  0  0  0  0
   -1.3179    6.8520    2.4296 C   0  0  2  0  0  0  0  0  0  0  0  0
   -2.6554    7.4411    2.6396 N   0  0  0  0  0  0  0  0  0  0  0  0
   -0.8426    7.1082    0.9972 C   0  0  0  0  0  0  0  0  0  0  0  0
    0.4717    6.3843    0.7301 C   0  0  2  0  0  0  0  0  0  0  0  0
    0.9689    6.7148   -0.6113 N   0  0  0  0  0  0  0  0  0  0  0  0
    0.2375    4.8656    0.9037 C   0  0  2  0  0  0  0  0  0  0  0  0
   -0.0704    4.5954    2.3417 C   0  0  2  0  0  0  0  0  0  0  0  0
   -0.2398    3.1972    2.4863 O   0  0  0  0  0  0  0  0  0  0  0  0
   -1.3270    5.3442    2.7438 C   0  0  1  0  0  0  0  0  0  0  0  0
   -1.6192    5.1914    4.1201 O   0  0  0  0  0  0  0  0  0  0  0  0
   -0.1762    2.6541    3.8008 C   0  0  1  0  0  0  0  0  0  0  0  0
   -1.6108    2.4607    4.2967 C   0  0  2  0  0  0  0  0  0  0  0  0
   -1.6668    2.7313    5.6846 O   0  0  0  0  0  0  0  0  0  0  0  0
   -1.8795    0.9867    3.9648 C   0  0  2  0  0  0  0  0  0  0  0  0
   -2.9418    0.4299    4.7395 O   0  0  0  0  0  0  0  0  0  0  0  0
   -0.4944    0.3933    4.2501 C   0  0  2  0  0  0  0  0  0  0  0  0
    0.4188    1.3633    3.7566 O   0  0  0  0  0  0  0  0  0  0  0  0
   -0.2236   -0.9453    3.5536 C   0  0  0  0  0  0  0  0  0  0  0  0
   -1.1221   -1.9461    3.9828 O   0  0  0  0  0  0  0  0  0  0  0  0
   -4.2194    1.0197    4.5071 C   0  0  2  0  0  0  0  0  0  0  0  0
   -5.2261    0.6529    5.6080 C   0  0  2  0  0  0  0  0  0  0  0  0
   -4.7053    1.0113    6.9379 N   0  0  0  0  0  0  0  0  0  0  0  0
   -5.6096   -0.8328    5.5360 C   0  0  1  0  0  0  0  0  0  0  0  0
   -6.5989   -1.0917    6.5133 O   0  0  0  0  0  0  0  0  0  0  0  0
   -6.1629   -1.1246    4.1308 C   0  0  2  0  0  0  0  0  0  0  0  0
   -6.4928   -2.4949    3.9965 O   0  0  0  0  0  0  0  0  0  0  0  0
   -5.1550   -0.7036    3.0415 C   0  0  1  0  0  0  0  0  0  0  0  0
   -4.7191    0.6453    3.2252 O   0  0  0  0  0  0  0  0  0  0  0  0
   -3.9732   -1.6740    2.8979 C   0  0  0  0  0  0  0  0  0  0  0  0
   -4.4138   -2.9846    2.3934 N   0  0  0  0  0  0  0  0  0  0  0  0
  1  3  1  0  0  0  0
  1  2  1  1  0  0  0
  3  4  1  1  0  0  0
  5  6  1  6  0  0  0
  5  3  1  0  0  0  0
  7  9  1  0  0  0  0
  7  5  1  0  0  0  0
  7  8  1  1  0  0  0
  9 10  1  0  0  0  0
  9 11  1  6  0  0  0
 10  1  1  0  0  0  0
 11 12  1  0  0  0  0
 13 14  1  6  0  0  0
 13 21  1  0  0  0  0
 15 13  1  0  0  0  0
 16 15  1  0  0  0  0
 16 18  1  0  0  0  0
 16 17  1  6  0  0  0
 18  2  1  1  0  0  0
 18 19  1  0  0  0  0
 19 21  1  0  0  0  0
 19 20  1  6  0  0  0
 21 22  1  1  0  0  0
 23 20  1  6  0  0  0
 23 29  1  0  0  0  0
 23 24  1  0  0  0  0
 24 26  1  0  0  0  0
 24 25  1  1  0  0  0
 26 27  1  1  0  0  0
 28 26  1  0  0  0  0
 28 30  1  6  0  0  0
 29 28  1  0  0  0  0
 30 31  1  0  0  0  0
 32 27  1  1  0  0  0
 32 40  1  0  0  0  0
 32 33  1  0  0  0  0
 33 35  1  0  0  0  0
 33 34  1  1  0  0  0
 35 37  1  0  0  0  0
 35 36  1  1  0  0  0
 37 38  1  1  0  0  0
 39 37  1  0  0  0  0
 39 41  1  1  0  0  0
 40 39  1  0  0  0  0
 42 41  1  0  0  0  0
M  END
>  <CHROM.1>
-96.82652810,-148.85749132,67.33644832,39.10399381,-64.99656608,-57.35257479
-64.26999941,-163.15049849,143.01276537,163.09917312,98.72317979,-55.38502344
71.72637283,64.05311835,-164.85398639,-62.11414745,-69.22261852,-167.48770781
-172.64894435,171.23007475,66.49558440,57.92562068,-0.83704250,2.45222406
2.14887242,-0.50448937,-0.66704454,-3.11774161

>  <Name>
lig.pdb

>  <RI>
0

>  <Rbt.Current_Directory>
/home/itssahil/PROJECTS/Mol_Feturizer/New_Systems/rnas/2mxs

>  <Rbt.Executable>
rbdock ($Id: //depot/dev/client3/rdock/2013.1/src/exe/rbdock.cxx#4 $)

>  <Rbt.Library>
libRbt.so (2013.1, Build901 2013/11/27)

>  <Rbt.Parameter_File>
/export/apps/rDock/src/rDock_2013.1_src/data/scripts/dock_solv.prm

>  <Rbt.Receptor>
prm/pocket_docking_6.prm

>  <SCORE>
-23.9454

>  <SCORE.INTER>
-24.2556

>  <SCORE.INTER.CONST>
1

>  <SCORE.INTER.POLAR>
-2.82107

>  <SCORE.INTER.ROT>
9

>  <SCORE.INTER.SOLV>
16.7526

>  <SCORE.INTER.VDW>
-21.951

>  <SCORE.INTER.norm>
-0.577514

>  <SCORE.INTRA>
0.310234

>  <SCORE.INTRA.DIHEDRAL>
-5.33691

>  <SCORE.INTRA.DIHEDRAL.0>
30.1357

>  <SCORE.INTRA.POLAR>
-0.48717

>  <SCORE.INTRA.POLAR.0>
-0.631696

>  <SCORE.INTRA.REPUL>
0

>  <SCORE.INTRA.REPUL.0>
0

>  <SCORE.INTRA.SOLV>
1.65613

>  <SCORE.INTRA.SOLV.lig_0>
-55.904

>  <SCORE.INTRA.VDW>
3.807

>  <SCORE.INTRA.VDW.0>
-8.21197

>  <SCORE.INTRA.norm>
0.00738652

>  <SCORE.RESTR>
0

>  <SCORE.RESTR.CAVITY>
0

>  <SCORE.RESTR.norm>
0

>  <SCORE.SYSTEM>
0

>  <SCORE.SYSTEM.CONST>
0

>  <SCORE.SYSTEM.DIHEDRAL>
0

>  <SCORE.SYSTEM.SOLV>
0

>  <SCORE.SYSTEM.norm>
0

>  <SCORE.heavy>
42

>  <SCORE.norm>
-0.570128

>  <RMSD>
6.134

$$$$
lig.pdb
 OpenBabel11021811453D
libRbt.so/2013.1/901 2013/11/27
 42 45  0  0  0  0  0  0  0  0999 V2000
   -2.8694   -0.3715    3.7383 C   0  0  2  0  0  0  0  0  0  0  0  0
   -3.2610    0.8669    4.3339 O   0  0  0  0  0  0  0  0  0  0  0  0
   -3.3367   -1.5607    4.5911 C   0  0  2  0  0  0  0  0  0  0  0  0
   -4.7895   -1.4980    4.8355 N   0  0  0  0  0  0  0  0  0  0  0  0
   -2.5584   -1.6300    5.9113 C   0  0  1  0  0  0  0  0  0  0  0  0
   -2.9044   -2.8172    6.5987 O   0  0  0  0  0  0  0  0  0  0  0  0
   -1.0466   -1.6217    5.6390 C   0  0  2  0  0  0  0  0  0  0  0  0
   -0.3500   -1.5263    6.8666 O   0  0  0  0  0  0  0  0  0  0  0  0
   -0.6443   -0.4520    4.7180 C   0  0  2  0  0  0  0  0  0  0  0  0
   -1.4578   -0.4148    3.5458 O   0  0  0  0  0  0  0  0  0  0  0  0
    0.8321   -0.6411    4.3209 C   0  0  0  0  0  0  0  0  0  0  0  0
    1.3047    0.4196    3.4480 O   0  0  0  0  0  0  0  0  0  0  0  0
   -2.2783    3.6378    1.1895 C   0  0  2  0  0  0  0  0  0  0  0  0
   -2.2656    4.9856    0.5864 N   0  0  0  0  0  0  0  0  0  0  0  0
   -3.7180    3.1724    1.4215 C   0  0  0  0  0  0  0  0  0  0  0  0
   -3.7391    1.8456    2.1711 C   0  0  2  0  0  0  0  0  0  0  0  0
   -5.1183    1.3593    2.3022 N   0  0  0  0  0  0  0  0  0  0  0  0
   -3.0634    2.0504    3.5469 C   0  0  2  0  0  0  0  0  0  0  0  0
   -1.6153    2.3483    3.3234 C   0  0  2  0  0  0  0  0  0  0  0  0
   -1.0080    2.4907    4.5944 O   0  0  0  0  0  0  0  0  0  0  0  0
   -1.4759    3.6174    2.5041 C   0  0  1  0  0  0  0  0  0  0  0  0
   -0.1255    3.9019    2.1906 O   0  0  0  0  0  0  0  0  0  0  0  0
   -1.6341    3.3566    5.5352 C   0  0  1  0  0  0  0  0  0  0  0  0
   -0.7779    3.3666    6.8033 C   0  0  2  0  0  0  0  0  0  0  0  0
   -1.6206    3.4593    7.9364 O   0  0  0  0  0  0  0  0  0  0  0  0
    0.0934    4.6141    6.6041 C   0  0  2  0  0  0  0  0  0  0  0  0
    0.6279    5.1171    7.8289 O   0  0  0  0  0  0  0  0  0  0  0  0
   -0.9186    5.5379    5.9152 C   0  0  2  0  0  0  0  0  0  0  0  0
   -1.6366    4.6869    5.0328 O   0  0  0  0  0  0  0  0  0  0  0  0
   -0.2873    6.6764    5.1054 C   0  0  0  0  0  0  0  0  0  0  0  0
    0.2609    6.2091    3.8912 O   0  0  0  0  0  0  0  0  0  0  0  0
    1.5204    6.2195    7.6797 C   0  0  2  0  0  0  0  0  0  0  0  0
    2.9896    5.7815    7.7781 C   0  0  2  0  0  0  0  0  0  0  0  0
    3.2876    4.7166    6.8059 N   0  0  0  0  0  0  0  0  0  0  0  0
    3.3454    5.3520    9.2094 C   0  0  1  0  0  0  0  0  0  0  0  0
    4.7250    5.0436    9.2585 O   0  0  0  0  0  0  0  0  0  0  0  0
    3.0284    6.5187   10.1602 C   0  0  2  0  0  0  0  0  0  0  0  0
    3.2987    6.1591   11.5026 O   0  0  0  0  0  0  0  0  0  0  0  0
    1.5619    6.9725   10.0087 C   0  0  1  0  0  0  0  0  0  0  0  0
    1.2329    7.2316    8.6420 O   0  0  0  0  0  0  0  0  0  0  0  0
    0.5575    6.0165   10.6692 C   0  0  0  0  0  0  0  0  0  0  0  0
   -0.7901    6.1774   10.0997 N   0  0  0  0  0  0  0  0  0  0  0  0
  1  3  1  0  0  0  0
  1  2  1  1  0  0  0
  3  4  1  1  0  0  0
  5  6  1  6  0  0  0
  5  3  1  0  0  0  0
  7  9  1  0  0  0  0
  7  5  1  0  0  0  0
  7  8  1  1  0  0  0
  9 10  1  0  0  0  0
  9 11  1  6  0  0  0
 10  1  1  0  0  0  0
 11 12  1  0  0  0  0
 13 14  1  1  0  0  0
 13 21  1  0  0  0  0
 15 13  1  0  0  0  0
 16 15  1  0  0  0  0
 16 18  1  0  0  0  0
 16 17  1  1  0  0  0
 18  2  1  1  0  0  0
 18 19  1  0  0  0  0
 19 21  1  0  0  0  0
 19 20  1  1  0  0  0
 21 22  1  6  0  0  0
 23 20  1  6  0  0  0
 23 29  1  0  0  0  0
 23 24  1  0  0  0  0
 24 26  1  0  0  0  0
 24 25  1  1  0  0  0
 26 27  1  1  0  0  0
 28 26  1  0  0  0  0
 28 30  1  6  0  0  0
 29 28  1  0  0  0  0
 30 31  1  0  0  0  0
 32 27  1  1  0  0  0
 32 40  1  0  0  0  0
 32 33  1  0  0  0  0
 33 35  1  0  0  0  0
 33 34  1  6  0  0  0
 35 37  1  0  0  0  0
 35 36  1  6  0  0  0
 37 38  1  1  0  0  0
 39 37  1  0  0  0  0
 39 41  1  6  0  0  0
 40 39  1  0  0  0  0
 42 41  1  0  0  0  0
M  END
>  <CHROM.1>
53.09407519,-171.09123689,177.62227046,-66.54110001,179.73585144,57.51486928
-179.98585234,174.32928021,-46.73208450,-49.86504440,-178.65050473,93.51962436
179.36360378,175.76310121,-100.76916089,74.84200440,-60.08817374,54.83667344
-65.25673720,57.17747640,-158.63360631,-177.04590926,-0.62256767,3.02859215
5.69892950,-2.88112453,-0.99901386,-0.49975557

>  <Name>
lig.pdb

>  <RI>
3.99633e+07

>  <Rbt.Current_Directory>
/home/itssahil/PROJECTS/Mol_Feturizer/New_Systems/rnas/2mxs

>  <Rbt.Executable>
rbdock ($Id: //depot/dev/client3/rdock/2013.1/src/exe/rbdock.cxx#4 $)

>  <Rbt.Library>
libRbt.so (2013.1, Build901 2013/11/27)

>  <Rbt.Parameter_File>
/export/apps/rDock/src/rDock_2013.1_src/data/scripts/dock_solv.prm

>  <Rbt.Receptor>
prm/pocket_docking_5.prm

>  <SCORE>
-41.2957

>  <SCORE.INTER>
-34.0026

>  <SCORE.INTER.CONST>
1

>  <SCORE.INTER.POLAR>
-5.76589

>  <SCORE.INTER.ROT>
9

>  <SCORE.INTER.SOLV>
14.9798

>  <SCORE.INTER.VDW>
-18.042

>  <SCORE.INTER.norm>
-0.809586

>  <SCORE.INTRA>
-7.29315

>  <SCORE.INTRA.DIHEDRAL>
-15.4224

>  <SCORE.INTRA.DIHEDRAL.0>
30.1357

>  <SCORE.INTRA.POLAR>
-0.809265

>  <SCORE.INTRA.POLAR.0>
-0.631696

>  <SCORE.INTRA.REPUL>
0

>  <SCORE.INTRA.REPUL.0>
0

>  <SCORE.INTRA.SOLV>
1.2916

>  <SCORE.INTRA.SOLV.lig_0>
-55.904

>  <SCORE.INTRA.VDW>
2.52376

>  <SCORE.INTRA.VDW.0>
-8.21197

>  <SCORE.INTRA.norm>
-0.173646

>  <SCORE.RESTR>
0

>  <SCORE.RESTR.CAVITY>
0

>  <SCORE.RESTR.norm>
0

>  <SCORE.SYSTEM>
0

>  <SCORE.SYSTEM.CONST>
0

>  <SCORE.SYSTEM.DIHEDRAL>
0

>  <SCORE.SYSTEM.SOLV>
0

>  <SCORE.SYSTEM.norm>
0

>  <SCORE.heavy>
42

>  <SCORE.norm>
-0.983232

>  <RMSD>
6.135

$$$$
lig.pdb
 OpenBabel11021811453D
libRbt.so/2013.1/901 2013/11/27
 42 45  0  0  0  0  0  0  0  0999 V2000
   -1.3319    3.9355    1.7652 C   0  0  2  0  0  0  0  0  0  0  0  0
   -0.9060    4.9381    0.8406 O   0  0  0  0  0  0  0  0  0  0  0  0
   -2.5527    3.1759    1.2247 C   0  0  2  0  0  0  0  0  0  0  0  0
   -2.2786    2.6167   -0.1120 N   0  0  0  0  0  0  0  0  0  0  0  0
   -3.7945    4.0763    1.2010 C   0  0  1  0  0  0  0  0  0  0  0  0
   -4.9265    3.3060    0.8451 O   0  0  0  0  0  0  0  0  0  0  0  0
   -4.0217    4.7060    2.5837 C   0  0  2  0  0  0  0  0  0  0  0  0
   -5.0712    5.6510    2.5014 O   0  0  0  0  0  0  0  0  0  0  0  0
   -2.7436    5.3896    3.1106 C   0  0  2  0  0  0  0  0  0  0  0  0
   -1.6208    4.5116    3.0366 O   0  0  0  0  0  0  0  0  0  0  0  0
   -2.9886    5.7987    4.5755 C   0  0  0  0  0  0  0  0  0  0  0  0
   -2.8682    4.6732    5.4860 O   0  0  0  0  0  0  0  0  0  0  0  0
    2.6227    4.7805   -1.6199 C   0  0  2  0  0  0  0  0  0  0  0  0
    4.0863    4.7453   -1.8123 N   0  0  0  0  0  0  0  0  0  0  0  0
    2.2122    6.0650   -0.8955 C   0  0  0  0  0  0  0  0  0  0  0  0
    0.7238    6.0444   -0.5681 C   0  0  2  0  0  0  0  0  0  0  0  0
    0.3202    7.3196    0.0375 N   0  0  0  0  0  0  0  0  0  0  0  0
    0.4455    4.8447    0.3672 C   0  0  2  0  0  0  0  0  0  0  0  0
    0.6939    3.5826   -0.3950 C   0  0  2  0  0  0  0  0  0  0  0  0
    0.3936    2.4986    0.4649 O   0  0  0  0  0  0  0  0  0  0  0  0
    2.1406    3.5372   -0.8493 C   0  0  1  0  0  0  0  0  0  0  0  0
    2.4111    2.4013   -1.6490 O   0  0  0  0  0  0  0  0  0  0  0  0
    1.2387    2.2926    1.5920 C   0  0  1  0  0  0  0  0  0  0  0  0
    0.3674    1.7855    2.7431 C   0  0  2  0  0  0  0  0  0  0  0  0
    0.8497    2.3152    3.9636 O   0  0  0  0  0  0  0  0  0  0  0  0
    0.5404    0.2640    2.6433 C   0  0  2  0  0  0  0  0  0  0  0  0
    0.2312   -0.4093    3.8639 O   0  0  0  0  0  0  0  0  0  0  0  0
    2.0133    0.1909    2.2224 C   0  0  2  0  0  0  0  0  0  0  0  0
    2.1765    1.2630    1.3046 O   0  0  0  0  0  0  0  0  0  0  0  0
    2.4104   -1.1196    1.5330 C   0  0  0  0  0  0  0  0  0  0  0  0
    3.7037   -1.0411    0.9723 O   0  0  0  0  0  0  0  0  0  0  0  0
   -0.6844    0.2838    4.7097 C   0  0  2  0  0  0  0  0  0  0  0  0
   -0.2324    0.2638    6.1778 C   0  0  2  0  0  0  0  0  0  0  0  0
    1.1327    0.7983    6.3155 N   0  0  0  0  0  0  0  0  0  0  0  0
   -0.3465   -1.1474    6.7738 C   0  0  1  0  0  0  0  0  0  0  0  0
   -0.0012   -1.0880    8.1442 O   0  0  0  0  0  0  0  0  0  0  0  0
   -1.7990   -1.6272    6.6129 C   0  0  2  0  0  0  0  0  0  0  0  0
   -1.9496   -2.9446    7.1091 O   0  0  0  0  0  0  0  0  0  0  0  0
   -2.2458   -1.5523    5.1383 C   0  0  1  0  0  0  0  0  0  0  0  0
   -1.9962   -0.2599    4.5810 O   0  0  0  0  0  0  0  0  0  0  0  0
   -1.6622   -2.6750    4.2677 C   0  0  0  0  0  0  0  0  0  0  0  0
   -0.2237   -2.8566    4.5203 N   0  0  0  0  0  0  0  0  0  0  0  0
  1  3  1  0  0  0  0
  1  2  1  6  0  0  0
  3  4  1  6  0  0  0
  5  6  1  1  0  0  0
  5  3  1  0  0  0  0
  7  9  1  0  0  0  0
  7  5  1  0  0  0  0
  7  8  1  6  0  0  0
  9 10  1  0  0  0  0
  9 11  1  1  0  0  0
 10  1  1  0  0  0  0
 11 12  1  0  0  0  0
 13 14  1  1  0  0  0
 13 21  1  0  0  0  0
 15 13  1  0  0  0  0
 16 15  1  0  0  0  0
 16 18  1  0  0  0  0
 16 17  1  1  0  0  0
 18  2  1  6  0  0  0
 18 19  1  0  0  0  0
 19 21  1  0  0  0  0
 19 20  1  1  0  0  0
 21 22  1  6  0  0  0
 23 20  1  6  0  0  0
 23 29  1  0  0  0  0
 23 24  1  0  0  0  0
 24 26  1  0  0  0  0
 24 25  1  1  0  0  0
 26 27  1  1  0  0  0
 28 26  1  0  0  0  0
 28 30  1  6  0  0  0
 29 28  1  0  0  0  0
 30 31  1  0  0  0  0
 32 27  1  6  0  0  0
 32 40  1  0  0  0  0
 32 33  1  0  0  0  0
 33 35  1  0  0  0  0
 33 34  1  6  0  0  0
 35 37  1  0  0  0  0
 35 36  1  1  0  0  0
 37 38  1  6  0  0  0
 39 37  1  0  0  0  0
 39 41  1  6  0  0  0
 40 39  1  0  0  0  0
 42 41  1  0  0  0  0
M  END
>  <CHROM.1>
-177.67573446,-121.82609608,169.65714631,-154.23836033,-60.93369351,74.57093853
78.34744082,-178.01107276,48.67539412,-67.48418626,144.86651072,-44.41819392
-89.87861709,25.82488935,-135.75269437,170.07389068,-140.54882188,-54.85298034
-70.52754264,-174.10645001,-45.66517944,-48.90009298,-0.35879732,2.15698697
2.52174208,1.41152675,0.56392215,-0.68064043

>  <Name>
lig.pdb

>  <RI>
0

>  <Rbt.Current_Directory>
/home/itssahil/PROJECTS/Mol_Feturizer/New_Systems/rnas/2mxs

>  <Rbt.Executable>
rbdock ($Id: //depot/dev/client3/rdock/2013.1/src/exe/rbdock.cxx#4 $)

>  <Rbt.Library>
libRbt.so (2013.1, Build901 2013/11/27)

>  <Rbt.Parameter_File>
/export/apps/rDock/src/rDock_2013.1_src/data/scripts/dock_solv.prm

>  <Rbt.Receptor>
prm/blind_docking_80.prm

>  <SCORE>
-18.7916

>  <SCORE.INTER>
-43.4372

>  <SCORE.INTER.CONST>
1

>  <SCORE.INTER.POLAR>
-6.48342

>  <SCORE.INTER.ROT>
9

>  <SCORE.INTER.SOLV>
31.0444

>  <SCORE.INTER.VDW>
-27.2949

>  <SCORE.INTER.norm>
-1.03422

>  <SCORE.INTRA>
10.8554

>  <SCORE.INTRA.DIHEDRAL>
10.2549

>  <SCORE.INTRA.DIHEDRAL.0>
30.1357

>  <SCORE.INTRA.POLAR>
-1.28469

>  <SCORE.INTRA.POLAR.0>
-0.631696

>  <SCORE.INTRA.REPUL>
0

>  <SCORE.INTRA.REPUL.0>
0

>  <SCORE.INTRA.SOLV>
1.6215

>  <SCORE.INTRA.SOLV.lig_0>
-55.904

>  <SCORE.INTRA.VDW>
9.2852

>  <SCORE.INTRA.VDW.0>
-8.21197

>  <SCORE.INTRA.norm>
0.258463

>  <SCORE.RESTR>
13.7901

>  <SCORE.RESTR.CAVITY>
13.7901

>  <SCORE.RESTR.norm>
0.328337

>  <SCORE.SYSTEM>
0

>  <SCORE.SYSTEM.CONST>
0

>  <SCORE.SYSTEM.DIHEDRAL>
0

>  <SCORE.SYSTEM.SOLV>
0

>  <SCORE.SYSTEM.norm>
0

>  <SCORE.heavy>
42

>  <SCORE.norm>
-0.44742

>  <RMSD>
6.154

$$$$
lig.pdb
 OpenBabel11021811453D
libRbt.so/2013.1/901 2013/11/27
 42 45  0  0  0  0  0  0  0  0999 V2000
    0.6431    1.1393    1.6415 C   0  0  2  0  0  0  0  0  0  0  0  0
    1.0047    2.0781    0.6269 O   0  0  0  0  0  0  0  0  0  0  0  0
    1.5649   -0.0890    1.6041 C   0  0  2  0  0  0  0  0  0  0  0  0
    2.9815    0.3096    1.6971 N   0  0  0  0  0  0  0  0  0  0  0  0
    1.3106   -0.9292    0.3459 C   0  0  1  0  0  0  0  0  0  0  0  0
    2.0630   -2.1250    0.4198 O   0  0  0  0  0  0  0  0  0  0  0  0
   -0.1819   -1.2735    0.2287 C   0  0  2  0  0  0  0  0  0  0  0  0
   -0.4200   -1.9091   -1.0125 O   0  0  0  0  0  0  0  0  0  0  0  0
   -1.0639   -0.0140    0.3480 C   0  0  2  0  0  0  0  0  0  0  0  0
   -0.7208    0.7486    1.5046 O   0  0  0  0  0  0  0  0  0  0  0  0
   -2.5339   -0.4657    0.4397 C   0  0  0  0  0  0  0  0  0  0  0  0
   -3.0064   -1.0487   -0.8041 O   0  0  0  0  0  0  0  0  0  0  0  0
    0.2025    6.2762    1.1396 C   0  0  2  0  0  0  0  0  0  0  0  0
   -0.6634    7.4678    1.0353 N   0  0  0  0  0  0  0  0  0  0  0  0
    0.4485    5.6746   -0.2463 C   0  0  0  0  0  0  0  0  0  0  0  0
    1.2229    4.3667   -0.1340 C   0  0  2  0  0  0  0  0  0  0  0  0
    1.5392    3.8484   -1.4708 N   0  0  0  0  0  0  0  0  0  0  0  0
    0.3781    3.3675    0.6903 C   0  0  2  0  0  0  0  0  0  0  0  0
    0.2731    3.8793    2.0912 C   0  0  2  0  0  0  0  0  0  0  0  0
   -0.4672    2.9309    2.8376 O   0  0  0  0  0  0  0  0  0  0  0  0
   -0.4130    5.2322    2.0901 C   0  0  1  0  0  0  0  0  0  0  0  0
   -0.4644    5.8032    3.3841 O   0  0  0  0  0  0  0  0  0  0  0  0
   -0.8335    3.2752    4.1695 C   0  0  1  0  0  0  0  0  0  0  0  0
   -2.1383    2.5468    4.4988 C   0  0  2  0  0  0  0  0  0  0  0  0
   -2.9407    3.3728    5.3213 O   0  0  0  0  0  0  0  0  0  0  0  0
   -1.6408    1.2879    5.2217 C   0  0  2  0  0  0  0  0  0  0  0  0
   -2.6439    0.6879    6.0418 O   0  0  0  0  0  0  0  0  0  0  0  0
   -0.4486    1.8748    5.9875 C   0  0  2  0  0  0  0  0  0  0  0  0
    0.1473    2.7876    5.0764 O   0  0  0  0  0  0  0  0  0  0  0  0
    0.6002    0.8412    6.4144 C   0  0  0  0  0  0  0  0  0  0  0  0
    0.8963   -0.0612    5.3699 O   0  0  0  0  0  0  0  0  0  0  0  0
   -3.7270    0.1014    5.3227 C   0  0  2  0  0  0  0  0  0  0  0  0
   -4.9656   -0.0885    6.2115 C   0  0  2  0  0  0  0  0  0  0  0  0
   -5.3648    1.1835    6.8366 N   0  0  0  0  0  0  0  0  0  0  0  0
   -4.7304   -1.1826    7.2637 C   0  0  1  0  0  0  0  0  0  0  0  0
   -5.9276   -1.3728    7.9927 O   0  0  0  0  0  0  0  0  0  0  0  0
   -4.3402   -2.4807    6.5366 C   0  0  2  0  0  0  0  0  0  0  0  0
   -4.0694   -3.5138    7.4659 O   0  0  0  0  0  0  0  0  0  0  0  0
   -3.1249   -2.2535    5.6141 C   0  0  1  0  0  0  0  0  0  0  0  0
   -3.3306   -1.1393    4.7426 O   0  0  0  0  0  0  0  0  0  0  0  0
   -1.7945   -2.1492    6.3743 C   0  0  0  0  0  0  0  0  0  0  0  0
   -0.6452   -2.2632    5.4619 N   0  0  0  0  0  0  0  0  0  0  0  0
  1  3  1  0  0  0  0
  1  2  1  6  0  0  0
  3  4  1  6  0  0  0
  5  6  1  1  0  0  0
  5  3  1  0  0  0  0
  7  9  1  0  0  0  0
  7  5  1  0  0  0  0
  7  8  1  6  0  0  0
  9 10  1  0  0  0  0
  9 11  1  1  0  0  0
 10  1  1  0  0  0  0
 11 12  1  0  0  0  0
 13 14  1  6  0  0  0
 13 21  1  0  0  0  0
 15 13  1  0  0  0  0
 16 15  1  0  0  0  0
 16 18  1  0  0  0  0
 16 17  1  6  0  0  0
 18  2  1  1  0  0  0
 18 19  1  0  0  0  0
 19 21  1  0  0  0  0
 19 20  1  1  0  0  0
 21 22  1  1  0  0  0
 23 20  1  6  0  0  0
 23 29  1  0  0  0  0
 23 24  1  0  0  0  0
 24 26  1  0  0  0  0
 24 25  1  1  0  0  0
 26 27  1  1  0  0  0
 28 26  1  0  0  0  0
 28 30  1  6  0  0  0
 29 28  1  0  0  0  0
 30 31  1  0  0  0  0
 32 27  1  1  0  0  0
 32 40  1  0  0  0  0
 32 33  1  0  0  0  0
 33 35  1  0  0  0  0
 33 34  1  1  0  0  0
 35 37  1  0  0  0  0
 35 36  1  6  0  0  0
 37 38  1  1  0  0  0
 39 37  1  0  0  0  0
 39 41  1  1  0  0  0
 40 39  1  0  0  0  0
 42 41  1  0  0  0  0
M  END
>  <CHROM.1>
160.45607464,-169.73862815,169.21688602,-104.10378035,58.48836582,-58.60214191
-68.32695579,-76.22966817,-159.81979958,-172.78560792,150.84840043,-58.51628065
57.11616810,68.44614177,-160.55204170,44.57931569,174.78160619,55.17088945
62.71381747,67.58877695,166.13965328,85.14977864,-1.12601195,1.09002189,3.24582906
-0.45939220,-0.97933825,-3.02382656

>  <Name>
lig.pdb

>  <RI>
0

>  <Rbt.Current_Directory>
/home/itssahil/PROJECTS/Mol_Feturizer/New_Systems/rnas/2mxs

>  <Rbt.Executable>
rbdock ($Id: //depot/dev/client3/rdock/2013.1/src/exe/rbdock.cxx#4 $)

>  <Rbt.Library>
libRbt.so (2013.1, Build901 2013/11/27)

>  <Rbt.Parameter_File>
/export/apps/rDock/src/rDock_2013.1_src/data/scripts/dock_solv.prm

>  <Rbt.Receptor>
prm/pocket_docking_6.prm

>  <SCORE>
-48.6991

>  <SCORE.INTER>
-50.5995

>  <SCORE.INTER.CONST>
1

>  <SCORE.INTER.POLAR>
-6.47707

>  <SCORE.INTER.ROT>
9

>  <SCORE.INTER.SOLV>
23.254

>  <SCORE.INTER.VDW>
-29.4941

>  <SCORE.INTER.norm>
-1.20475

>  <SCORE.INTRA>
1.88183

>  <SCORE.INTRA.DIHEDRAL>
-9.884

>  <SCORE.INTRA.DIHEDRAL.0>
30.1357

>  <SCORE.INTRA.POLAR>
-0.159837

>  <SCORE.INTRA.POLAR.0>
-0.631696

>  <SCORE.INTRA.REPUL>
0

>  <SCORE.INTRA.REPUL.0>
0

>  <SCORE.INTRA.SOLV>
1.36734

>  <SCORE.INTRA.SOLV.lig_0>
-55.904

>  <SCORE.INTRA.VDW>
6.68361

>  <SCORE.INTRA.VDW.0>
-8.21197

>  <SCORE.INTRA.norm>
0.0448055

>  <SCORE.RESTR>
0.0185054

>  <SCORE.RESTR.CAVITY>
0.0185054

>  <SCORE.RESTR.norm>
0.000440604

>  <SCORE.SYSTEM>
0

>  <SCORE.SYSTEM.CONST>
0

>  <SCORE.SYSTEM.DIHEDRAL>
0

>  <SCORE.SYSTEM.SOLV>
0

>  <SCORE.SYSTEM.norm>
0

>  <SCORE.heavy>
42

>  <SCORE.norm>
-1.1595

>  <RMSD>
6.166

$$$$
lig.pdb
 OpenBabel11021811453D
libRbt.so/2013.1/901 2013/11/27
 42 45  0  0  0  0  0  0  0  0999 V2000
   -0.9663    0.7908    1.5994 C   0  0  2  0  0  0  0  0  0  0  0  0
   -0.2122    1.7934    0.9155 O   0  0  0  0  0  0  0  0  0  0  0  0
   -0.5577   -0.6145    1.1327 C   0  0  2  0  0  0  0  0  0  0  0  0
    0.8955   -0.8186    1.2778 N   0  0  0  0  0  0  0  0  0  0  0  0
   -1.0078   -0.8667   -0.3121 C   0  0  1  0  0  0  0  0  0  0  0  0
   -0.7526   -2.2154   -0.6549 O   0  0  0  0  0  0  0  0  0  0  0  0
   -2.5097   -0.5795   -0.4594 C   0  0  2  0  0  0  0  0  0  0  0  0
   -2.8711   -0.6638   -1.8246 O   0  0  0  0  0  0  0  0  0  0  0  0
   -2.8760    0.8130    0.0927 C   0  0  2  0  0  0  0  0  0  0  0  0
   -2.3644    0.9958    1.4126 O   0  0  0  0  0  0  0  0  0  0  0  0
   -4.4117    0.9331    0.1087 C   0  0  0  0  0  0  0  0  0  0  0  0
   -5.0287   -0.0468    0.9860 O   0  0  0  0  0  0  0  0  0  0  0  0
   -0.2427    6.0693    1.4124 C   0  0  2  0  0  0  0  0  0  0  0  0
   -0.9311    7.3642    1.5847 N   0  0  0  0  0  0  0  0  0  0  0  0
   -0.6596    5.4167    0.0920 C   0  0  0  0  0  0  0  0  0  0  0  0
   -0.0640    4.0189   -0.0276 C   0  0  2  0  0  0  0  0  0  0  0  0
   -0.3877    3.4403   -1.3377 N   0  0  0  0  0  0  0  0  0  0  0  0
   -0.6040    3.1561    1.1366 C   0  0  2  0  0  0  0  0  0  0  0  0
   -0.0637    3.7009    2.4199 C   0  0  2  0  0  0  0  0  0  0  0  0
   -0.5354    2.8731    3.4671 O   0  0  0  0  0  0  0  0  0  0  0  0
   -0.5286    5.1334    2.6019 C   0  0  1  0  0  0  0  0  0  0  0  0
    0.0231    5.7279    3.7618 O   0  0  0  0  0  0  0  0  0  0  0  0
   -0.1350    3.1917    4.7957 C   0  0  1  0  0  0  0  0  0  0  0  0
   -1.3400    3.8039    5.5131 C   0  0  2  0  0  0  0  0  0  0  0  0
   -0.8944    4.8161    6.3961 O   0  0  0  0  0  0  0  0  0  0  0  0
   -1.9385    2.5950    6.2447 C   0  0  2  0  0  0  0  0  0  0  0  0
   -2.7650    2.9690    7.3473 O   0  0  0  0  0  0  0  0  0  0  0  0
   -0.6524    1.8519    6.6264 C   0  0  2  0  0  0  0  0  0  0  0  0
    0.1943    1.9981    5.4950 O   0  0  0  0  0  0  0  0  0  0  0  0
   -0.8458    0.3584    6.9139 C   0  0  0  0  0  0  0  0  0  0  0  0
    0.3372   -0.2338    7.4067 O   0  0  0  0  0  0  0  0  0  0  0  0
   -4.0185    3.5433    6.9827 C   0  0  2  0  0  0  0  0  0  0  0  0
   -4.7838    4.0676    8.2072 C   0  0  2  0  0  0  0  0  0  0  0  0
   -3.9622    5.0191    8.9736 N   0  0  0  0  0  0  0  0  0  0  0  0
   -5.2758    2.9110    9.0904 C   0  0  1  0  0  0  0  0  0  0  0  0
   -6.0437    3.4473   10.1503 O   0  0  0  0  0  0  0  0  0  0  0  0
   -6.1410    1.9754    8.2290 C   0  0  2  0  0  0  0  0  0  0  0  0
   -6.5863    0.8654    8.9867 O   0  0  0  0  0  0  0  0  0  0  0  0
   -5.3682    1.5009    6.9811 C   0  0  1  0  0  0  0  0  0  0  0  0
   -4.8103    2.6025    6.2609 O   0  0  0  0  0  0  0  0  0  0  0  0
   -4.3162    0.4251    7.2890 C   0  0  0  0  0  0  0  0  0  0  0  0
   -4.9404   -0.8010    7.8118 N   0  0  0  0  0  0  0  0  0  0  0  0
  1  3  1  0  0  0  0
  1  2  1  6  0  0  0
  3  4  1  6  0  0  0
  5  6  1  1  0  0  0
  5  3  1  0  0  0  0
  7  9  1  0  0  0  0
  7  5  1  0  0  0  0
  7  8  1  6  0  0  0
  9 10  1  0  0  0  0
  9 11  1  1  0  0  0
 10  1  1  0  0  0  0
 11 12  1  0  0  0  0
 13 14  1  1  0  0  0
 13 21  1  0  0  0  0
 15 13  1  0  0  0  0
 16 15  1  0  0  0  0
 16 18  1  0  0  0  0
 16 17  1  6  0  0  0
 18  2  1  6  0  0  0
 18 19  1  0  0  0  0
 19 21  1  0  0  0  0
 19 20  1  1  0  0  0
 21 22  1  1  0  0  0
 23 20  1  6  0  0  0
 23 29  1  0  0  0  0
 23 24  1  0  0  0  0
 24 26  1  0  0  0  0
 24 25  1  1  0  0  0
 26 27  1  1  0  0  0
 28 26  1  0  0  0  0
 28 30  1  6  0  0  0
 29 28  1  0  0  0  0
 30 31  1  0  0  0  0
 32 27  1  1  0  0  0
 32 40  1  0  0  0  0
 32 33  1  0  0  0  0
 33 35  1  0  0  0  0
 33 34  1  1  0  0  0
 35 37  1  0  0  0  0
 35 36  1  1  0  0  0
 37 38  1  1  0  0  0
 39 37  1  0  0  0  0
 39 41  1  1  0  0  0
 40 39  1  0  0  0  0
 42 41  1  0  0  0  0
M  END
>  <CHROM.1>
-159.43993235,172.70911700,-174.64148460,63.26374415,-59.42805030,-173.56248859
62.29956481,100.35876455,178.33944827,179.36904500,106.04865612,61.00862594
60.53829756,72.08229908,-173.46508055,-173.19534337,178.22119100,63.95146118
-174.13176030,66.01979720,63.01797193,75.10028404,-2.17757116,2.20026688
3.95259199,0.83763522,-0.97451572,-2.32858555

>  <Name>
lig.pdb

>  <RI>
4.11275e+07

>  <Rbt.Current_Directory>
/home/itssahil/PROJECTS/Mol_Feturizer/New_Systems/rnas/2mxs

>  <Rbt.Executable>
rbdock ($Id: //depot/dev/client3/rdock/2013.1/src/exe/rbdock.cxx#4 $)

>  <Rbt.Library>
libRbt.so (2013.1, Build901 2013/11/27)

>  <Rbt.Parameter_File>
/export/apps/rDock/src/rDock_2013.1_src/data/scripts/dock_solv.prm

>  <Rbt.Receptor>
prm/pocket_docking_8.prm

>  <SCORE>
-38.5257

>  <SCORE.INTER>
-31.7502

>  <SCORE.INTER.CONST>
1

>  <SCORE.INTER.POLAR>
-4.90474

>  <SCORE.INTER.ROT>
9

>  <SCORE.INTER.SOLV>
13.8116

>  <SCORE.INTER.VDW>
-19.0216

>  <SCORE.INTER.norm>
-0.755958

>  <SCORE.INTRA>
-6.77544

>  <SCORE.INTRA.DIHEDRAL>
-15.8602

>  <SCORE.INTRA.DIHEDRAL.0>
30.1357

>  <SCORE.INTRA.POLAR>
-0.754044

>  <SCORE.INTRA.POLAR.0>
-0.631696

>  <SCORE.INTRA.REPUL>
0

>  <SCORE.INTRA.REPUL.0>
0

>  <SCORE.INTRA.SOLV>
-0.21347

>  <SCORE.INTRA.SOLV.lig_0>
-55.904

>  <SCORE.INTRA.VDW>
3.82513

>  <SCORE.INTRA.VDW.0>
-8.21197

>  <SCORE.INTRA.norm>
-0.16132

>  <SCORE.RESTR>
0

>  <SCORE.RESTR.CAVITY>
0

>  <SCORE.RESTR.norm>
0

>  <SCORE.SYSTEM>
0

>  <SCORE.SYSTEM.CONST>
0

>  <SCORE.SYSTEM.DIHEDRAL>
0

>  <SCORE.SYSTEM.SOLV>
0

>  <SCORE.SYSTEM.norm>
0

>  <SCORE.heavy>
42

>  <SCORE.norm>
-0.917278

>  <RMSD>
6.179

$$$$
lig.pdb
 OpenBabel11021811453D
libRbt.so/2013.1/901 2013/11/27
 42 45  0  0  0  0  0  0  0  0999 V2000
   -0.9093    6.2346    2.1246 C   0  0  2  0  0  0  0  0  0  0  0  0
   -0.0543    5.2506    1.5395 O   0  0  0  0  0  0  0  0  0  0  0  0
   -1.0228    6.0278    3.6425 C   0  0  2  0  0  0  0  0  0  0  0  0
    0.3093    6.0045    4.2744 N   0  0  0  0  0  0  0  0  0  0  0  0
   -1.8085    4.7505    3.9662 C   0  0  1  0  0  0  0  0  0  0  0  0
   -2.0245    4.6731    5.3622 O   0  0  0  0  0  0  0  0  0  0  0  0
   -3.1629    4.7608    3.2414 C   0  0  2  0  0  0  0  0  0  0  0  0
   -3.8013    3.5115    3.4239 O   0  0  0  0  0  0  0  0  0  0  0  0
   -2.9961    5.0468    1.7352 C   0  0  2  0  0  0  0  0  0  0  0  0
   -2.1980    6.2096    1.5160 O   0  0  0  0  0  0  0  0  0  0  0  0
   -4.3970    5.2555    1.1294 C   0  0  0  0  0  0  0  0  0  0  0  0
   -5.0309    3.9990    0.7693 O   0  0  0  0  0  0  0  0  0  0  0  0
    2.1801    6.3841   -1.9610 C   0  0  2  0  0  0  0  0  0  0  0  0
    3.3372    7.0096   -2.6321 N   0  0  0  0  0  0  0  0  0  0  0  0
    1.4246    7.4214   -1.1264 C   0  0  0  0  0  0  0  0  0  0  0  0
    0.3148    6.7569   -0.3205 C   0  0  2  0  0  0  0  0  0  0  0  0
   -0.4656    7.7709    0.3996 N   0  0  0  0  0  0  0  0  0  0  0  0
    0.9567    5.7291    0.6404 C   0  0  2  0  0  0  0  0  0  0  0  0
    1.5574    4.6294   -0.1752 C   0  0  2  0  0  0  0  0  0  0  0  0
    2.1017    3.6802    0.7233 O   0  0  0  0  0  0  0  0  0  0  0  0
    2.6281    5.1972   -1.0876 C   0  0  1  0  0  0  0  0  0  0  0  0
    3.1735    4.2117   -1.9446 O   0  0  0  0  0  0  0  0  0  0  0  0
    1.8311    2.3041    0.4783 C   0  0  1  0  0  0  0  0  0  0  0  0
    1.7274    1.5997    1.8327 C   0  0  2  0  0  0  0  0  0  0  0  0
    2.2677    0.2962    1.7250 O   0  0  0  0  0  0  0  0  0  0  0  0
    0.2145    1.5991    2.0901 C   0  0  2  0  0  0  0  0  0  0  0  0
   -0.1867    0.6004    3.0283 O   0  0  0  0  0  0  0  0  0  0  0  0
   -0.2981    1.3835    0.6608 C   0  0  2  0  0  0  0  0  0  0  0  0
    0.5625    2.1707   -0.1503 O   0  0  0  0  0  0  0  0  0  0  0  0
   -1.7460    1.8333    0.4331 C   0  0  0  0  0  0  0  0  0  0  0  0
   -1.8245    3.2170    0.1640 O   0  0  0  0  0  0  0  0  0  0  0  0
    0.2286    0.8447    4.3707 C   0  0  2  0  0  0  0  0  0  0  0  0
    1.0135   -0.3421    4.9501 C   0  0  2  0  0  0  0  0  0  0  0  0
    2.1581   -0.6862    4.0901 N   0  0  0  0  0  0  0  0  0  0  0  0
    0.0976   -1.5538    5.1787 C   0  0  1  0  0  0  0  0  0  0  0  0
    0.8527   -2.5815    5.7907 O   0  0  0  0  0  0  0  0  0  0  0  0
   -1.0571   -1.1238    6.0995 C   0  0  2  0  0  0  0  0  0  0  0  0
   -1.9576   -2.1961    6.3084 O   0  0  0  0  0  0  0  0  0  0  0  0
   -1.7994    0.0985    5.5210 C   0  0  1  0  0  0  0  0  0  0  0  0
   -0.8932    1.1546    5.1944 O   0  0  0  0  0  0  0  0  0  0  0  0
   -2.7219   -0.2506    4.3438 C   0  0  0  0  0  0  0  0  0  0  0  0
   -3.7288   -1.2521    4.7302 N   0  0  0  0  0  0  0  0  0  0  0  0
  1  3  1  0  0  0  0
  1  2  1  6  0  0  0
  3  4  1  6  0  0  0
  5  6  1  1  0  0  0
  5  3  1  0  0  0  0
  7  9  1  0  0  0  0
  7  5  1  0  0  0  0
  7  8  1  6  0  0  0
  9 10  1  0  0  0  0
  9 11  1  1  0  0  0
 10  1  1  0  0  0  0
 11 12  1  0  0  0  0
 13 14  1  1  0  0  0
 13 21  1  0  0  0  0
 15 13  1  0  0  0  0
 16 15  1  0  0  0  0
 16 18  1  0  0  0  0
 16 17  1  1  0  0  0
 18  2  1  1  0  0  0
 18 19  1  0  0  0  0
 19 21  1  0  0  0  0
 19 20  1  1  0  0  0
 21 22  1  6  0  0  0
 23 20  1  1  0  0  0
 23 29  1  0  0  0  0
 23 24  1  0  0  0  0
 24 26  1  0  0  0  0
 24 25  1  6  0  0  0
 26 27  1  1  0  0  0
 28 26  1  0  0  0  0
 28 30  1  1  0  0  0
 29 28  1  0  0  0  0
 30 31  1  0  0  0  0
 32 27  1  6  0  0  0
 32 40  1  0  0  0  0
 32 33  1  0  0  0  0
 33 35  1  0  0  0  0
 33 34  1  6  0  0  0
 35 37  1  0  0  0  0
 35 36  1  1  0  0  0
 37 38  1  6  0  0  0
 39 37  1  0  0  0  0
 39 41  1  6  0  0  0
 40 39  1  0  0  0  0
 42 41  1  0  0  0  0
M  END
>  <CHROM.1>
-45.44504174,-131.76699199,-152.95161461,-75.27239951,61.05114255,-166.62196435
-84.60553146,102.79931350,-45.71657875,134.18131705,-146.42022900,177.79009827
63.22669284,69.69135951,-125.47434626,83.65392728,-49.14999622,47.48094313
-87.37424716,165.13003059,58.01857353,70.50817539,-0.37178686,3.00973517
2.20828555,1.33204203,0.49197705,-0.56526905

>  <Name>
lig.pdb

>  <RI>
0

>  <Rbt.Current_Directory>
/home/itssahil/PROJECTS/Mol_Feturizer/New_Systems/rnas/2mxs

>  <Rbt.Executable>
rbdock ($Id: //depot/dev/client3/rdock/2013.1/src/exe/rbdock.cxx#4 $)

>  <Rbt.Library>
libRbt.so (2013.1, Build901 2013/11/27)

>  <Rbt.Parameter_File>
/export/apps/rDock/src/rDock_2013.1_src/data/scripts/dock_solv.prm

>  <Rbt.Receptor>
prm/blind_docking_20.prm

>  <SCORE>
1.84717

>  <SCORE.INTER>
-35.2158

>  <SCORE.INTER.CONST>
1

>  <SCORE.INTER.POLAR>
-4.04862

>  <SCORE.INTER.ROT>
9

>  <SCORE.INTER.SOLV>
24.3992

>  <SCORE.INTER.VDW>
-27.7148

>  <SCORE.INTER.norm>
-0.838471

>  <SCORE.INTRA>
19.9295

>  <SCORE.INTRA.DIHEDRAL>
11.928

>  <SCORE.INTRA.DIHEDRAL.0>
30.1357

>  <SCORE.INTRA.POLAR>
-1.85641

>  <SCORE.INTRA.POLAR.0>
-0.631696

>  <SCORE.INTRA.REPUL>
0

>  <SCORE.INTRA.REPUL.0>
0

>  <SCORE.INTRA.SOLV>
3.76255

>  <SCORE.INTRA.SOLV.lig_0>
-55.904

>  <SCORE.INTRA.VDW>
18.3961

>  <SCORE.INTRA.VDW.0>
-8.21197

>  <SCORE.INTRA.norm>
0.474513

>  <SCORE.RESTR>
17.1334

>  <SCORE.RESTR.CAVITY>
17.1334

>  <SCORE.RESTR.norm>
0.407938

>  <SCORE.SYSTEM>
0

>  <SCORE.SYSTEM.CONST>
0

>  <SCORE.SYSTEM.DIHEDRAL>
0

>  <SCORE.SYSTEM.SOLV>
0

>  <SCORE.SYSTEM.norm>
0

>  <SCORE.heavy>
42

>  <SCORE.norm>
0.0439801

>  <RMSD>
6.214

$$$$
lig.pdb
 OpenBabel11021811453D
libRbt.so/2013.1/901 2013/11/27
 42 45  0  0  0  0  0  0  0  0999 V2000
    2.3981    0.5576   -0.4765 C   0  0  2  0  0  0  0  0  0  0  0  0
    1.7204    1.8139   -0.4143 O   0  0  0  0  0  0  0  0  0  0  0  0
    1.3956   -0.5991   -0.6063 C   0  0  2  0  0  0  0  0  0  0  0  0
    0.4990   -0.3953   -1.7591 N   0  0  0  0  0  0  0  0  0  0  0  0
    0.5945   -0.7804    0.6894 C   0  0  1  0  0  0  0  0  0  0  0  0
   -0.2049   -1.9433    0.5884 O   0  0  0  0  0  0  0  0  0  0  0  0
    1.5453   -0.9190    1.8880 C   0  0  2  0  0  0  0  0  0  0  0  0
    0.7919   -0.9258    3.0853 O   0  0  0  0  0  0  0  0  0  0  0  0
    2.5770    0.2266    1.9268 C   0  0  2  0  0  0  0  0  0  0  0  0
    3.2301    0.3758    0.6665 O   0  0  0  0  0  0  0  0  0  0  0  0
    3.6162   -0.1014    3.0157 C   0  0  0  0  0  0  0  0  0  0  0  0
    3.0113   -0.2248    4.3307 O   0  0  0  0  0  0  0  0  0  0  0  0
    3.2653    5.3420   -2.3369 C   0  0  2  0  0  0  0  0  0  0  0  0
    3.6320    6.1307   -3.5301 N   0  0  0  0  0  0  0  0  0  0  0  0
    4.0707    4.0411   -2.2910 C   0  0  0  0  0  0  0  0  0  0  0  0
    3.5988    3.1578   -1.1421 C   0  0  2  0  0  0  0  0  0  0  0  0
    4.4407    1.9587   -1.0457 N   0  0  0  0  0  0  0  0  0  0  0  0
    2.1115    2.8045   -1.3760 C   0  0  2  0  0  0  0  0  0  0  0  0
    1.3036    4.0573   -1.2610 C   0  0  2  0  0  0  0  0  0  0  0  0
   -0.0565    3.7056   -1.4365 O   0  0  0  0  0  0  0  0  0  0  0  0
    1.7526    5.0525   -2.3142 C   0  0  1  0  0  0  0  0  0  0  0  0
    1.0774    6.2909   -2.1975 O   0  0  0  0  0  0  0  0  0  0  0  0
   -1.0397    4.5322   -0.8226 C   0  0  1  0  0  0  0  0  0  0  0  0
   -0.9064    4.3702    0.6931 C   0  0  2  0  0  0  0  0  0  0  0  0
   -2.1907    4.4283    1.2848 O   0  0  0  0  0  0  0  0  0  0  0  0
   -0.0185    5.5619    1.0762 C   0  0  2  0  0  0  0  0  0  0  0  0
   -0.1337    5.9173    2.4543 O   0  0  0  0  0  0  0  0  0  0  0  0
   -0.5469    6.6138    0.0931 C   0  0  2  0  0  0  0  0  0  0  0  0
   -0.7665    5.8970   -1.1137 O   0  0  0  0  0  0  0  0  0  0  0  0
    0.4248    7.7671   -0.1826 C   0  0  0  0  0  0  0  0  0  0  0  0
    1.7696    7.3504   -0.0777 O   0  0  0  0  0  0  0  0  0  0  0  0
   -1.4425    6.3150    2.8581 C   0  0  2  0  0  0  0  0  0  0  0  0
   -1.4504    7.7314    3.4530 C   0  0  2  0  0  0  0  0  0  0  0  0
   -0.8631    8.7004    2.5126 N   0  0  0  0  0  0  0  0  0  0  0  0
   -0.7379    7.7653    4.8134 C   0  0  1  0  0  0  0  0  0  0  0  0
   -0.8515    9.0690    5.3503 O   0  0  0  0  0  0  0  0  0  0  0  0
   -1.4182    6.7471    5.7442 C   0  0  2  0  0  0  0  0  0  0  0  0
   -0.7704    6.7072    7.0024 O   0  0  0  0  0  0  0  0  0  0  0  0
   -1.4413    5.3433    5.1051 C   0  0  1  0  0  0  0  0  0  0  0  0
   -1.9878    5.3785    3.7847 O   0  0  0  0  0  0  0  0  0  0  0  0
   -0.0794    4.6344    5.1436 C   0  0  0  0  0  0  0  0  0  0  0  0
    0.0755    3.7089    4.0098 N   0  0  0  0  0  0  0  0  0  0  0  0
  1  3  1  0  0  0  0
  1  2  1  1  0  0  0
  3  4  1  6  0  0  0
  5  6  1  6  0  0  0
  5  3  1  0  0  0  0
  7  9  1  0  0  0  0
  7  5  1  0  0  0  0
  7  8  1  1  0  0  0
  9 10  1  0  0  0  0
  9 11  1  1  0  0  0
 10  1  1  0  0  0  0
 11 12  1  0  0  0  0
 13 14  1  6  0  0  0
 13 21  1  0  0  0  0
 15 13  1  0  0  0  0
 16 15  1  0  0  0  0
 16 18  1  0  0  0  0
 16 17  1  6  0  0  0
 18  2  1  1  0  0  0
 18 19  1  0  0  0  0
 19 21  1  0  0  0  0
 19 20  1  6  0  0  0
 21 22  1  1  0  0  0
 23 20  1  6  0  0  0
 23 29  1  0  0  0  0
 23 24  1  0  0  0  0
 24 26  1  0  0  0  0
 24 25  1  1  0  0  0
 26 27  1  1  0  0  0
 28 26  1  0  0  0  0
 28 30  1  6  0  0  0
 29 28  1  0  0  0  0
 30 31  1  0  0  0  0
 32 27  1  1  0  0  0
 32 40  1  0  0  0  0
 32 33  1  0  0  0  0
 33 35  1  0  0  0  0
 33 34  1  6  0  0  0
 35 37  1  0  0  0  0
 35 36  1  1  0  0  0
 37 38  1  1  0  0  0
 39 37  1  0  0  0  0
 39 41  1  6  0  0  0
 40 39  1  0  0  0  0
 42 41  1  0  0  0  0
M  END
>  <CHROM.1>
-62.47010621,-125.19096151,-68.39315643,-172.05476834,98.91357910,177.89259675
-60.30858312,2.84464809,46.24458977,153.09978176,-67.49486821,84.62750604
172.35372229,-61.08247620,-122.12841693,30.40152148,75.65160269,-170.86214202
64.30008374,-173.60084622,-150.67781397,86.64730144,0.76020706,3.90483585
1.14166955,0.42638939,-1.13831524,2.56920310

>  <Name>
lig.pdb

>  <RI>
0

>  <Rbt.Current_Directory>
/home/itssahil/PROJECTS/Mol_Feturizer/New_Systems/rnas/2mxs

>  <Rbt.Executable>
rbdock ($Id: //depot/dev/client3/rdock/2013.1/src/exe/rbdock.cxx#4 $)

>  <Rbt.Library>
libRbt.so (2013.1, Build901 2013/11/27)

>  <Rbt.Parameter_File>
/export/apps/rDock/src/rDock_2013.1_src/data/scripts/dock_solv.prm

>  <Rbt.Receptor>
prm/blind_docking_20.prm

>  <SCORE>
-5.62552

>  <SCORE.INTER>
-37.4893

>  <SCORE.INTER.CONST>
1

>  <SCORE.INTER.POLAR>
-4.72575

>  <SCORE.INTER.ROT>
9

>  <SCORE.INTER.SOLV>
30.8142

>  <SCORE.INTER.VDW>
-29.1118

>  <SCORE.INTER.norm>
-0.892603

>  <SCORE.INTRA>
19.352

>  <SCORE.INTRA.DIHEDRAL>
8.68184

>  <SCORE.INTRA.DIHEDRAL.0>
30.1357

>  <SCORE.INTRA.POLAR>
-2.08811

>  <SCORE.INTRA.POLAR.0>
-0.631696

>  <SCORE.INTRA.REPUL>
0.0454221

>  <SCORE.INTRA.REPUL.0>
0

>  <SCORE.INTRA.SOLV>
4.37927

>  <SCORE.INTRA.SOLV.lig_0>
-55.904

>  <SCORE.INTRA.VDW>
19.6939

>  <SCORE.INTRA.VDW.0>
-8.21197

>  <SCORE.INTRA.norm>
0.460761

>  <SCORE.RESTR>
12.5118

>  <SCORE.RESTR.CAVITY>
12.5118

>  <SCORE.RESTR.norm>
0.297901

>  <SCORE.SYSTEM>
0

>  <SCORE.SYSTEM.CONST>
0

>  <SCORE.SYSTEM.DIHEDRAL>
0

>  <SCORE.SYSTEM.SOLV>
0

>  <SCORE.SYSTEM.norm>
0

>  <SCORE.heavy>
42

>  <SCORE.norm>
-0.133941

>  <RMSD>
6.217

$$$$
lig.pdb
 OpenBabel11021811453D
libRbt.so/2013.1/901 2013/11/27
 42 45  0  0  0  0  0  0  0  0999 V2000
   -1.9188    3.2032    1.9913 C   0  0  2  0  0  0  0  0  0  0  0  0
   -1.6689    4.2581    1.0605 O   0  0  0  0  0  0  0  0  0  0  0  0
   -3.3707    3.2471    2.4911 C   0  0  2  0  0  0  0  0  0  0  0  0
   -4.3196    3.2270    1.3625 N   0  0  0  0  0  0  0  0  0  0  0  0
   -3.6069    4.4693    3.3877 C   0  0  1  0  0  0  0  0  0  0  0  0
   -4.9029    4.3955    3.9503 O   0  0  0  0  0  0  0  0  0  0  0  0
   -2.5643    4.5117    4.5150 C   0  0  2  0  0  0  0  0  0  0  0  0
   -2.6993    5.7234    5.2326 O   0  0  0  0  0  0  0  0  0  0  0  0
   -1.1295    4.3888    3.9633 C   0  0  2  0  0  0  0  0  0  0  0  0
   -1.0081    3.2696    3.0858 O   0  0  0  0  0  0  0  0  0  0  0  0
   -0.1701    4.2205    5.1569 C   0  0  0  0  0  0  0  0  0  0  0  0
   -0.6046    3.1736    6.0655 O   0  0  0  0  0  0  0  0  0  0  0  0
    1.8088    5.2352   -1.2809 C   0  0  2  0  0  0  0  0  0  0  0  0
    3.2644    5.2361   -1.5287 N   0  0  0  0  0  0  0  0  0  0  0  0
    1.4904    5.9743    0.0212 C   0  0  0  0  0  0  0  0  0  0  0  0
    0.0083    5.8568    0.3567 C   0  0  2  0  0  0  0  0  0  0  0  0
   -0.3053    6.6496    1.5521 N   0  0  0  0  0  0  0  0  0  0  0  0
   -0.3327    4.3605    0.5474 C   0  0  2  0  0  0  0  0  0  0  0  0
   -0.1752    3.6677   -0.7681 C   0  0  2  0  0  0  0  0  0  0  0  0
   -0.5318    2.3103   -0.5809 O   0  0  0  0  0  0  0  0  0  0  0  0
    1.2594    3.7967   -1.2443 C   0  0  1  0  0  0  0  0  0  0  0  0
    1.4465    3.2299   -2.5276 O   0  0  0  0  0  0  0  0  0  0  0  0
    0.4791    1.4155   -0.1290 C   0  0  1  0  0  0  0  0  0  0  0  0
    0.5215    1.4911    1.3987 C   0  0  2  0  0  0  0  0  0  0  0  0
    1.8601    1.3540    1.8372 O   0  0  0  0  0  0  0  0  0  0  0  0
   -0.3660    0.3097    1.8130 C   0  0  2  0  0  0  0  0  0  0  0  0
   -0.1131   -0.1312    3.1473 O   0  0  0  0  0  0  0  0  0  0  0  0
    0.0069   -0.6991    0.7196 C   0  0  2  0  0  0  0  0  0  0  0  0
    0.1201    0.0806   -0.4626 O   0  0  0  0  0  0  0  0  0  0  0  0
   -1.0355   -1.8001    0.4920 C   0  0  0  0  0  0  0  0  0  0  0  0
   -1.0169   -2.7564    1.5304 O   0  0  0  0  0  0  0  0  0  0  0  0
   -0.6356    0.7216    4.1642 C   0  0  2  0  0  0  0  0  0  0  0  0
   -0.0406    0.3967    5.5428 C   0  0  2  0  0  0  0  0  0  0  0  0
    1.4305    0.4471    5.5061 N   0  0  0  0  0  0  0  0  0  0  0  0
   -0.5442   -0.9599    6.0582 C   0  0  1  0  0  0  0  0  0  0  0  0
   -0.0345   -1.1651    7.3616 O   0  0  0  0  0  0  0  0  0  0  0  0
   -2.0817   -0.9282    6.0887 C   0  0  2  0  0  0  0  0  0  0  0  0
   -2.6003   -2.1739    6.5172 O   0  0  0  0  0  0  0  0  0  0  0  0
   -2.6543   -0.5527    4.7064 C   0  0  1  0  0  0  0  0  0  0  0  0
   -2.0589    0.6445    4.2010 O   0  0  0  0  0  0  0  0  0  0  0  0
   -2.5883   -1.7004    3.6880 C   0  0  0  0  0  0  0  0  0  0  0  0
   -3.5248   -2.7811    4.0365 N   0  0  0  0  0  0  0  0  0  0  0  0
  1  3  1  0  0  0  0
  1  2  1  6  0  0  0
  3  4  1  6  0  0  0
  5  6  1  1  0  0  0
  5  3  1  0  0  0  0
  7  9  1  0  0  0  0
  7  5  1  0  0  0  0
  7  8  1  6  0  0  0
  9 10  1  0  0  0  0
  9 11  1  1  0  0  0
 10  1  1  0  0  0  0
 11 12  1  0  0  0  0
 13 14  1  1  0  0  0
 13 21  1  0  0  0  0
 15 13  1  0  0  0  0
 16 15  1  0  0  0  0
 16 18  1  0  0  0  0
 16 17  1  1  0  0  0
 18  2  1  6  0  0  0
 18 19  1  0  0  0  0
 19 21  1  0  0  0  0
 19 20  1  1  0  0  0
 21 22  1  6  0  0  0
 23 20  1  1  0  0  0
 23 29  1  0  0  0  0
 23 24  1  0  0  0  0
 24 26  1  0  0  0  0
 24 25  1  1  0  0  0
 26 27  1  1  0  0  0
 28 26  1  0  0  0  0
 28 30  1  6  0  0  0
 29 28  1  0  0  0  0
 30 31  1  0  0  0  0
 32 27  1  6  0  0  0
 32 40  1  0  0  0  0
 32 33  1  0  0  0  0
 33 35  1  0  0  0  0
 33 34  1  6  0  0  0
 35 37  1  0  0  0  0
 35 36  1  1  0  0  0
 37 38  1  6  0  0  0
 39 37  1  0  0  0  0
 39 41  1  6  0  0  0
 40 39  1  0  0  0  0
 42 41  1  0  0  0  0
M  END
>  <CHROM.1>
-144.57804758,177.96966574,-60.15989493,49.17023919,-38.26880952,-178.12345511
50.34042752,169.20235638,35.85984591,-86.35845319,85.60319509,72.69462213
-54.00795575,74.95843779,-165.65885470,-74.40235881,-173.59786759,83.41355596
179.37304972,70.59150646,69.52556390,-48.68406865,-0.83642472,2.00995634
2.53353392,0.96285245,1.04743615,-0.23976363

>  <Name>
lig.pdb

>  <RI>
0

>  <Rbt.Current_Directory>
/home/itssahil/PROJECTS/Mol_Feturizer/New_Systems/rnas/2mxs

>  <Rbt.Executable>
rbdock ($Id: //depot/dev/client3/rdock/2013.1/src/exe/rbdock.cxx#4 $)

>  <Rbt.Library>
libRbt.so (2013.1, Build901 2013/11/27)

>  <Rbt.Parameter_File>
/export/apps/rDock/src/rDock_2013.1_src/data/scripts/dock_solv.prm

>  <Rbt.Receptor>
prm/pocket_docking_4.prm

>  <SCORE>
-40.7832

>  <SCORE.INTER>
-39.2992

>  <SCORE.INTER.CONST>
1

>  <SCORE.INTER.POLAR>
-4.97253

>  <SCORE.INTER.ROT>
9

>  <SCORE.INTER.SOLV>
19.7624

>  <SCORE.INTER.VDW>
-25.8118

>  <SCORE.INTER.norm>
-0.935694

>  <SCORE.INTRA>
-1.48436

>  <SCORE.INTRA.DIHEDRAL>
-8.33224

>  <SCORE.INTRA.DIHEDRAL.0>
30.1357

>  <SCORE.INTRA.POLAR>
-0.148495

>  <SCORE.INTRA.POLAR.0>
-0.631696

>  <SCORE.INTRA.REPUL>
0

>  <SCORE.INTRA.REPUL.0>
0

>  <SCORE.INTRA.SOLV>
3.10064

>  <SCORE.INTRA.SOLV.lig_0>
-55.904

>  <SCORE.INTRA.VDW>
1.63633

>  <SCORE.INTRA.VDW.0>
-8.21197

>  <SCORE.INTRA.norm>
-0.0353418

>  <SCORE.RESTR>
0.000335302

>  <SCORE.RESTR.CAVITY>
0.000335302

>  <SCORE.RESTR.norm>
7.98339e-06

>  <SCORE.SYSTEM>
0

>  <SCORE.SYSTEM.CONST>
0

>  <SCORE.SYSTEM.DIHEDRAL>
0

>  <SCORE.SYSTEM.SOLV>
0

>  <SCORE.SYSTEM.norm>
0

>  <SCORE.heavy>
42

>  <SCORE.norm>
-0.971028

>  <RMSD>
6.265

$$$$
lig.pdb
 OpenBabel11021811453D
libRbt.so/2013.1/901 2013/11/27
 42 45  0  0  0  0  0  0  0  0999 V2000
   -1.0902    4.0253    1.8262 C   0  0  2  0  0  0  0  0  0  0  0  0
   -0.6362    5.2082    1.1657 O   0  0  0  0  0  0  0  0  0  0  0  0
   -2.6250    3.9670    1.8503 C   0  0  2  0  0  0  0  0  0  0  0  0
   -3.1806    4.0902    0.4900 N   0  0  0  0  0  0  0  0  0  0  0  0
   -3.2016    5.0422    2.7804 C   0  0  1  0  0  0  0  0  0  0  0  0
   -4.6000    4.8616    2.8968 O   0  0  0  0  0  0  0  0  0  0  0  0
   -2.5580    4.9431    4.1717 C   0  0  2  0  0  0  0  0  0  0  0  0
   -2.9832    6.0358    4.9634 O   0  0  0  0  0  0  0  0  0  0  0  0
   -1.0185    4.9304    4.0830 C   0  0  2  0  0  0  0  0  0  0  0  0
   -0.5635    3.9520    3.1487 O   0  0  0  0  0  0  0  0  0  0  0  0
   -0.4608    4.6116    5.4832 C   0  0  0  0  0  0  0  0  0  0  0  0
    0.9817    4.4398    5.4722 O   0  0  0  0  0  0  0  0  0  0  0  0
    2.7713    4.8584   -1.4416 C   0  0  2  0  0  0  0  0  0  0  0  0
    4.2134    4.9738   -1.7368 N   0  0  0  0  0  0  0  0  0  0  0  0
    2.1953    6.2245   -1.0606 C   0  0  0  0  0  0  0  0  0  0  0  0
    0.7428    6.0904   -0.6187 C   0  0  2  0  0  0  0  0  0  0  0  0
    0.1704    7.4155   -0.3499 N   0  0  0  0  0  0  0  0  0  0  0  0
    0.6930    5.1740    0.6260 C   0  0  2  0  0  0  0  0  0  0  0  0
    1.1040    3.7961    0.2161 C   0  0  2  0  0  0  0  0  0  0  0  0
    1.0114    2.9655    1.3589 O   0  0  0  0  0  0  0  0  0  0  0  0
    2.5204    3.8262   -0.3262 C   0  0  1  0  0  0  0  0  0  0  0  0
    2.9321    2.5607   -0.8080 O   0  0  0  0  0  0  0  0  0  0  0  0
    1.7906    1.7742    1.3777 C   0  0  1  0  0  0  0  0  0  0  0  0
    1.4400    1.0063    2.6539 C   0  0  2  0  0  0  0  0  0  0  0  0
    2.6018    0.3689    3.1507 O   0  0  0  0  0  0  0  0  0  0  0  0
    0.3790    0.0131    2.1612 C   0  0  2  0  0  0  0  0  0  0  0  0
    0.2377   -1.1177    3.0215 O   0  0  0  0  0  0  0  0  0  0  0  0
    0.9373   -0.3030    0.7682 C   0  0  2  0  0  0  0  0  0  0  0  0
    1.4197    0.9429    0.2852 O   0  0  0  0  0  0  0  0  0  0  0  0
   -0.0988   -0.8524   -0.2193 C   0  0  0  0  0  0  0  0  0  0  0  0
   -1.0448    0.1310   -0.5813 O   0  0  0  0  0  0  0  0  0  0  0  0
   -1.0272   -1.7717    2.9407 C   0  0  2  0  0  0  0  0  0  0  0  0
   -2.1877   -0.8073    3.2293 C   0  0  2  0  0  0  0  0  0  0  0  0
   -2.1330    0.3635    2.3382 N   0  0  0  0  0  0  0  0  0  0  0  0
   -2.2063   -0.3889    4.7072 C   0  0  1  0  0  0  0  0  0  0  0  0
   -3.3407    0.4257    4.9316 O   0  0  0  0  0  0  0  0  0  0  0  0
   -2.2858   -1.6589    5.5712 C   0  0  2  0  0  0  0  0  0  0  0  0
   -2.2624   -1.3307    6.9482 O   0  0  0  0  0  0  0  0  0  0  0  0
   -1.1391   -2.6325    5.2297 C   0  0  1  0  0  0  0  0  0  0  0  0
   -1.0715   -2.8892    3.8251 O   0  0  0  0  0  0  0  0  0  0  0  0
    0.2192   -2.1970    5.7993 C   0  0  0  0  0  0  0  0  0  0  0  0
    0.1089   -1.8161    7.2167 N   0  0  0  0  0  0  0  0  0  0  0  0
  1  3  1  0  0  0  0
  1  2  1  1  0  0  0
  3  4  1  6  0  0  0
  5  6  1  1  0  0  0
  5  3  1  0  0  0  0
  7  9  1  0  0  0  0
  7  5  1  0  0  0  0
  7  8  1  1  0  0  0
  9 10  1  0  0  0  0
  9 11  1  1  0  0  0
 10  1  1  0  0  0  0
 11 12  1  0  0  0  0
 13 14  1  1  0  0  0
 13 21  1  0  0  0  0
 15 13  1  0  0  0  0
 16 15  1  0  0  0  0
 16 18  1  0  0  0  0
 16 17  1  1  0  0  0
 18  2  1  6  0  0  0
 18 19  1  0  0  0  0
 19 21  1  0  0  0  0
 19 20  1  1  0  0  0
 21 22  1  6  0  0  0
 23 20  1  6  0  0  0
 23 29  1  0  0  0  0
 23 24  1  0  0  0  0
 24 26  1  0  0  0  0
 24 25  1  6  0  0  0
 26 27  1  1  0  0  0
 28 26  1  0  0  0  0
 28 30  1  6  0  0  0
 29 28  1  0  0  0  0
 30 31  1  0  0  0  0
 32 27  1  1  0  0  0
 32 40  1  0  0  0  0
 32 33  1  0  0  0  0
 33 35  1  0  0  0  0
 33 34  1  6  0  0  0
 35 37  1  0  0  0  0
 35 36  1  6  0  0  0
 37 38  1  1  0  0  0
 39 37  1  0  0  0  0
 39 41  1  6  0  0  0
 40 39  1  0  0  0  0
 42 41  1  0  0  0  0
M  END
>  <CHROM.1>
149.50287378,-157.34527572,-81.94652459,73.87285481,67.34480689,49.58042880
173.99981568,58.85198515,166.83179677,-157.16433742,-175.80038746,124.92748740
48.80260961,156.18777849,-56.64900513,68.76853978,73.46885069,36.66197758
-176.34075760,175.95529041,47.58920499,177.90222786,-0.32559481,2.18358033
2.39242394,1.17463581,0.78075729,-0.36672243

>  <Name>
lig.pdb

>  <RI>
0

>  <Rbt.Current_Directory>
/home/itssahil/PROJECTS/Mol_Feturizer/New_Systems/rnas/2mxs

>  <Rbt.Executable>
rbdock ($Id: //depot/dev/client3/rdock/2013.1/src/exe/rbdock.cxx#4 $)

>  <Rbt.Library>
libRbt.so (2013.1, Build901 2013/11/27)

>  <Rbt.Parameter_File>
/export/apps/rDock/src/rDock_2013.1_src/data/scripts/dock_solv.prm

>  <Rbt.Receptor>
prm/blind_docking_20.prm

>  <SCORE>
-6.46058

>  <SCORE.INTER>
-41.9223

>  <SCORE.INTER.CONST>
1

>  <SCORE.INTER.POLAR>
-5.75498

>  <SCORE.INTER.ROT>
9

>  <SCORE.INTER.SOLV>
23.3183

>  <SCORE.INTER.VDW>
-26.1377

>  <SCORE.INTER.norm>
-0.998149

>  <SCORE.INTRA>
11.7393

>  <SCORE.INTRA.DIHEDRAL>
-4.95928

>  <SCORE.INTRA.DIHEDRAL.0>
30.1357

>  <SCORE.INTRA.POLAR>
-0.591408

>  <SCORE.INTRA.POLAR.0>
-0.631696

>  <SCORE.INTRA.REPUL>
0

>  <SCORE.INTRA.REPUL.0>
0

>  <SCORE.INTRA.SOLV>
1.14586

>  <SCORE.INTRA.SOLV.lig_0>
-55.904

>  <SCORE.INTRA.VDW>
15.6568

>  <SCORE.INTRA.VDW.0>
-8.21197

>  <SCORE.INTRA.norm>
0.279507

>  <SCORE.RESTR>
23.7224

>  <SCORE.RESTR.CAVITY>
23.7224

>  <SCORE.RESTR.norm>
0.564819

>  <SCORE.SYSTEM>
0

>  <SCORE.SYSTEM.CONST>
0

>  <SCORE.SYSTEM.DIHEDRAL>
0

>  <SCORE.SYSTEM.SOLV>
0

>  <SCORE.SYSTEM.norm>
0

>  <SCORE.heavy>
42

>  <SCORE.norm>
-0.153823

>  <RMSD>
6.274

$$$$
lig.pdb
 OpenBabel11021811453D
libRbt.so/2013.1/901 2013/11/27
 42 45  0  0  0  0  0  0  0  0999 V2000
    0.0527    1.8848    4.7612 C   0  0  2  0  0  0  0  0  0  0  0  0
    0.4252    2.5558    3.5560 O   0  0  0  0  0  0  0  0  0  0  0  0
    0.4164    0.3940    4.6923 C   0  0  2  0  0  0  0  0  0  0  0  0
    1.8450    0.2120    4.3754 N   0  0  0  0  0  0  0  0  0  0  0  0
   -0.4705   -0.3422    3.6799 C   0  0  1  0  0  0  0  0  0  0  0  0
   -0.2137   -1.7315    3.7536 O   0  0  0  0  0  0  0  0  0  0  0  0
   -1.9536   -0.0820    3.9835 C   0  0  2  0  0  0  0  0  0  0  0  0
   -2.7473   -0.6356    2.9515 O   0  0  0  0  0  0  0  0  0  0  0  0
   -2.2476    1.4261    4.1163 C   0  0  2  0  0  0  0  0  0  0  0  0
   -1.3388    2.0512    5.0220 O   0  0  0  0  0  0  0  0  0  0  0  0
   -3.6903    1.5894    4.6313 C   0  0  0  0  0  0  0  0  0  0  0  0
   -4.0421    2.9829    4.8424 O   0  0  0  0  0  0  0  0  0  0  0  0
   -0.7277    6.5046    2.2877 C   0  0  2  0  0  0  0  0  0  0  0  0
   -1.7333    7.5309    1.9476 N   0  0  0  0  0  0  0  0  0  0  0  0
   -0.8654    5.2963    1.3581 C   0  0  0  0  0  0  0  0  0  0  0  0
    0.0730    4.1761    1.7911 C   0  0  2  0  0  0  0  0  0  0  0  0
    0.0056    3.0614    0.8379 N   0  0  0  0  0  0  0  0  0  0  0  0
   -0.3153    3.7390    3.2227 C   0  0  2  0  0  0  0  0  0  0  0  0
   -0.0284    4.8702    4.1574 C   0  0  2  0  0  0  0  0  0  0  0  0
   -0.3511    4.4352    5.4655 O   0  0  0  0  0  0  0  0  0  0  0  0
   -0.8543    6.0800    3.7628 C   0  0  1  0  0  0  0  0  0  0  0  0
   -0.5598    7.2088    4.5642 O   0  0  0  0  0  0  0  0  0  0  0  0
   -0.0568    5.3125    6.5474 C   0  0  1  0  0  0  0  0  0  0  0  0
   -0.5483    4.6480    7.8352 C   0  0  2  0  0  0  0  0  0  0  0  0
   -1.0459    5.6399    8.7133 O   0  0  0  0  0  0  0  0  0  0  0  0
    0.7225    3.9678    8.3620 C   0  0  2  0  0  0  0  0  0  0  0  0
    0.6622    3.6907    9.7614 O   0  0  0  0  0  0  0  0  0  0  0  0
    1.7703    5.0118    7.9565 C   0  0  2  0  0  0  0  0  0  0  0  0
    1.3519    5.4592    6.6747 O   0  0  0  0  0  0  0  0  0  0  0  0
    3.1994    4.4666    7.8516 C   0  0  0  0  0  0  0  0  0  0  0  0
    4.1039    5.4590    7.4156 O   0  0  0  0  0  0  0  0  0  0  0  0
   -0.5417    3.0579   10.1907 C   0  0  2  0  0  0  0  0  0  0  0  0
   -0.5950    2.9099   11.7189 C   0  0  2  0  0  0  0  0  0  0  0  0
   -0.4099    4.2122   12.3805 N   0  0  0  0  0  0  0  0  0  0  0  0
    0.4303    1.8778   12.2120 C   0  0  1  0  0  0  0  0  0  0  0  0
    0.2767    1.7209   13.6093 O   0  0  0  0  0  0  0  0  0  0  0  0
    0.1606    0.5437   11.4955 C   0  0  2  0  0  0  0  0  0  0  0  0
    1.1081   -0.4341   11.8833 O   0  0  0  0  0  0  0  0  0  0  0  0
    0.1712    0.7269    9.9639 C   0  0  1  0  0  0  0  0  0  0  0  0
   -0.6948    1.7893    9.5580 O   0  0  0  0  0  0  0  0  0  0  0  0
    1.5828    0.8822    9.3791 C   0  0  0  0  0  0  0  0  0  0  0  0
    1.5446    1.0133    7.9136 N   0  0  0  0  0  0  0  0  0  0  0  0
  1  3  1  0  0  0  0
  1  2  1  6  0  0  0
  3  4  1  6  0  0  0
  5  6  1  1  0  0  0
  5  3  1  0  0  0  0
  7  9  1  0  0  0  0
  7  5  1  0  0  0  0
  7  8  1  6  0  0  0
  9 10  1  0  0  0  0
  9 11  1  1  0  0  0
 10  1  1  0  0  0  0
 11 12  1  0  0  0  0
 13 14  1  6  0  0  0
 13 21  1  0  0  0  0
 15 13  1  0  0  0  0
 16 15  1  0  0  0  0
 16 18  1  0  0  0  0
 16 17  1  6  0  0  0
 18  2  1  1  0  0  0
 18 19  1  0  0  0  0
 19 21  1  0  0  0  0
 19 20  1  1  0  0  0
 21 22  1  1  0  0  0
 23 20  1  6  0  0  0
 23 29  1  0  0  0  0
 23 24  1  0  0  0  0
 24 26  1  0  0  0  0
 24 25  1  1  0  0  0
 26 27  1  1  0  0  0
 28 26  1  0  0  0  0
 28 30  1  6  0  0  0
 29 28  1  0  0  0  0
 30 31  1  0  0  0  0
 32 27  1  1  0  0  0
 32 40  1  0  0  0  0
 32 33  1  0  0  0  0
 33 35  1  0  0  0  0
 33 34  1  1  0  0  0
 35 37  1  0  0  0  0
 35 36  1  1  0  0  0
 37 38  1  6  0  0  0
 39 37  1  0  0  0  0
 39 41  1  1  0  0  0
 40 39  1  0  0  0  0
 42 41  1  0  0  0  0
M  END
>  <CHROM.1>
-170.76493923,154.24569128,-135.32441932,-69.17968823,175.51577740,-63.99289083
177.59252336,-49.18792254,-58.53678563,175.01127717,177.62435564,-59.53765921
59.49342311,48.01745285,-174.63196967,177.26046457,59.82428548,55.26442596
177.89947654,165.30456892,178.29443859,148.10504560,-0.13788504,2.97663176
6.46486570,2.37015285,-1.33321677,-0.61290723

>  <Name>
lig.pdb

>  <RI>
3.99633e+07

>  <Rbt.Current_Directory>
/home/itssahil/PROJECTS/Mol_Feturizer/New_Systems/rnas/2mxs

>  <Rbt.Executable>
rbdock ($Id: //depot/dev/client3/rdock/2013.1/src/exe/rbdock.cxx#4 $)

>  <Rbt.Library>
libRbt.so (2013.1, Build901 2013/11/27)

>  <Rbt.Parameter_File>
/export/apps/rDock/src/rDock_2013.1_src/data/scripts/dock_solv.prm

>  <Rbt.Receptor>
prm/pocket_docking_5.prm

>  <SCORE>
-32.1648

>  <SCORE.INTER>
-28.3894

>  <SCORE.INTER.CONST>
1

>  <SCORE.INTER.POLAR>
-4.21636

>  <SCORE.INTER.ROT>
9

>  <SCORE.INTER.SOLV>
14.5116

>  <SCORE.INTER.VDW>
-19.3089

>  <SCORE.INTER.norm>
-0.675937

>  <SCORE.INTRA>
-3.77541

>  <SCORE.INTRA.DIHEDRAL>
-18.0977

>  <SCORE.INTRA.DIHEDRAL.0>
30.1357

>  <SCORE.INTRA.POLAR>
0.53395

>  <SCORE.INTRA.POLAR.0>
-0.631696

>  <SCORE.INTRA.REPUL>
0

>  <SCORE.INTRA.REPUL.0>
0

>  <SCORE.INTRA.SOLV>
-0.94667

>  <SCORE.INTRA.SOLV.lig_0>
-55.904

>  <SCORE.INTRA.VDW>
3.93133

>  <SCORE.INTRA.VDW.0>
-8.21197

>  <SCORE.INTRA.norm>
-0.0898907

>  <SCORE.RESTR>
0

>  <SCORE.RESTR.CAVITY>
0

>  <SCORE.RESTR.norm>
0

>  <SCORE.SYSTEM>
0

>  <SCORE.SYSTEM.CONST>
0

>  <SCORE.SYSTEM.DIHEDRAL>
0

>  <SCORE.SYSTEM.SOLV>
0

>  <SCORE.SYSTEM.norm>
0

>  <SCORE.heavy>
42

>  <SCORE.norm>
-0.765828

>  <RMSD>
6.277

$$$$
lig.pdb
 OpenBabel11021811453D
libRbt.so/2013.1/901 2013/11/27
 42 45  0  0  0  0  0  0  0  0999 V2000
    0.4168    1.6697    3.8854 C   0  0  2  0  0  0  0  0  0  0  0  0
    0.9476    1.7835    2.5637 O   0  0  0  0  0  0  0  0  0  0  0  0
    0.8489    0.3473    4.5366 C   0  0  2  0  0  0  0  0  0  0  0  0
    2.3160    0.2009    4.5139 N   0  0  0  0  0  0  0  0  0  0  0  0
    0.1656   -0.8480    3.8599 C   0  0  1  0  0  0  0  0  0  0  0  0
    0.4652   -2.0291    4.5787 O   0  0  0  0  0  0  0  0  0  0  0  0
   -1.3566   -0.6433    3.8291 C   0  0  2  0  0  0  0  0  0  0  0  0
   -1.9525   -1.6739    3.0648 O   0  0  0  0  0  0  0  0  0  0  0  0
   -1.7306    0.7300    3.2353 C   0  0  2  0  0  0  0  0  0  0  0  0
   -1.0041    1.7818    3.8700 O   0  0  0  0  0  0  0  0  0  0  0  0
   -3.2423    0.9446    3.4401 C   0  0  0  0  0  0  0  0  0  0  0  0
   -3.6202    0.8782    4.8412 O   0  0  0  0  0  0  0  0  0  0  0  0
    0.0146    4.8410   -0.3194 C   0  0  2  0  0  0  0  0  0  0  0  0
   -0.9186    5.5713   -1.2003 N   0  0  0  0  0  0  0  0  0  0  0  0
    0.0726    3.3632   -0.7143 C   0  0  0  0  0  0  0  0  0  0  0  0
    0.9231    2.5759    0.2756 C   0  0  2  0  0  0  0  0  0  0  0  0
    1.0535    1.1814   -0.1651 N   0  0  0  0  0  0  0  0  0  0  0  0
    0.2714    2.6835    1.6738 C   0  0  2  0  0  0  0  0  0  0  0  0
    0.3596    4.1050    2.1291 C   0  0  2  0  0  0  0  0  0  0  0  0
   -0.2039    4.1733    3.4262 O   0  0  0  0  0  0  0  0  0  0  0  0
   -0.3888    4.9990    1.1587 C   0  0  1  0  0  0  0  0  0  0  0  0
   -0.2674    6.3682    1.4956 O   0  0  0  0  0  0  0  0  0  0  0  0
    0.0010    5.3660    4.1761 C   0  0  1  0  0  0  0  0  0  0  0  0
   -1.3718    5.9729    4.4734 C   0  0  2  0  0  0  0  0  0  0  0  0
   -1.2778    7.3845    4.4349 O   0  0  0  0  0  0  0  0  0  0  0  0
   -1.6749    5.4332    5.8776 C   0  0  2  0  0  0  0  0  0  0  0  0
   -2.6476    6.2140    6.5726 O   0  0  0  0  0  0  0  0  0  0  0  0
   -0.2671    5.4679    6.4852 C   0  0  2  0  0  0  0  0  0  0  0  0
    0.5876    5.0466    5.4315 O   0  0  0  0  0  0  0  0  0  0  0  0
   -0.0731    4.5355    7.6867 C   0  0  0  0  0  0  0  0  0  0  0  0
    1.2453    4.5998    8.1873 O   0  0  0  0  0  0  0  0  0  0  0  0
   -3.1507    5.6135    7.7644 C   0  0  2  0  0  0  0  0  0  0  0  0
   -4.4320    4.8080    7.5005 C   0  0  2  0  0  0  0  0  0  0  0  0
   -4.2143    3.8036    6.4461 N   0  0  0  0  0  0  0  0  0  0  0  0
   -5.6091    5.7345    7.1602 C   0  0  1  0  0  0  0  0  0  0  0  0
   -6.7752    4.9475    7.0132 O   0  0  0  0  0  0  0  0  0  0  0  0
   -5.7876    6.7372    8.3128 C   0  0  2  0  0  0  0  0  0  0  0  0
   -6.8362    7.6453    8.0294 O   0  0  0  0  0  0  0  0  0  0  0  0
   -4.4754    7.4990    8.5910 C   0  0  1  0  0  0  0  0  0  0  0  0
   -3.3767    6.6017    8.7671 O   0  0  0  0  0  0  0  0  0  0  0  0
   -4.1685    8.5839    7.5481 C   0  0  0  0  0  0  0  0  0  0  0  0
   -2.7184    8.7521    7.3602 N   0  0  0  0  0  0  0  0  0  0  0  0
  1  3  1  0  0  0  0
  1  2  1  6  0  0  0
  3  4  1  6  0  0  0
  5  6  1  1  0  0  0
  5  3  1  0  0  0  0
  7  9  1  0  0  0  0
  7  5  1  0  0  0  0
  7  8  1  6  0  0  0
  9 10  1  0  0  0  0
  9 11  1  1  0  0  0
 10  1  1  0  0  0  0
 11 12  1  0  0  0  0
 13 14  1  6  0  0  0
 13 21  1  0  0  0  0
 15 13  1  0  0  0  0
 16 15  1  0  0  0  0
 16 18  1  0  0  0  0
 16 17  1  6  0  0  0
 18  2  1  1  0  0  0
 18 19  1  0  0  0  0
 19 21  1  0  0  0  0
 19 20  1  1  0  0  0
 21 22  1  1  0  0  0
 23 20  1  6  0  0  0
 23 29  1  0  0  0  0
 23 24  1  0  0  0  0
 24 26  1  0  0  0  0
 24 25  1  1  0  0  0
 26 27  1  1  0  0  0
 28 26  1  0  0  0  0
 28 30  1  1  0  0  0
 29 28  1  0  0  0  0
 30 31  1  0  0  0  0
 32 27  1  6  0  0  0
 32 40  1  0  0  0  0
 32 33  1  0  0  0  0
 33 35  1  0  0  0  0
 33 34  1  6  0  0  0
 35 37  1  0  0  0  0
 35 36  1  1  0  0  0
 37 38  1  6  0  0  0
 39 37  1  0  0  0  0
 39 41  1  6  0  0  0
 40 39  1  0  0  0  0
 42 41  1  0  0  0  0
M  END
>  <CHROM.1>
-175.44630115,158.24018953,-93.93170100,-152.72862690,-61.10566701,58.05924371
58.02492985,168.63113450,-62.19834100,167.87823688,119.26777252,-66.87437690
-58.96710735,168.40433709,-92.92094556,179.18042063,61.08842905,-66.21330022
-176.00781559,64.19725430,-148.25251030,-60.92964080,-1.52580898,3.89324304
4.57317279,0.45422734,-0.98431357,2.89949673

>  <Name>
lig.pdb

>  <RI>
0

>  <Rbt.Current_Directory>
/home/itssahil/PROJECTS/Mol_Feturizer/New_Systems/rnas/2mxs

>  <Rbt.Executable>
rbdock ($Id: //depot/dev/client3/rdock/2013.1/src/exe/rbdock.cxx#4 $)

>  <Rbt.Library>
libRbt.so (2013.1, Build901 2013/11/27)

>  <Rbt.Parameter_File>
/export/apps/rDock/src/rDock_2013.1_src/data/scripts/dock_solv.prm

>  <Rbt.Receptor>
prm/pocket_docking_7.prm

>  <SCORE>
-32.0444

>  <SCORE.INTER>
-31.8757

>  <SCORE.INTER.CONST>
1

>  <SCORE.INTER.POLAR>
-4.97741

>  <SCORE.INTER.ROT>
9

>  <SCORE.INTER.SOLV>
14.4533

>  <SCORE.INTER.VDW>
-19.0769

>  <SCORE.INTER.norm>
-0.758944

>  <SCORE.INTRA>
-0.168786

>  <SCORE.INTRA.DIHEDRAL>
-5.7674

>  <SCORE.INTRA.DIHEDRAL.0>
30.1357

>  <SCORE.INTRA.POLAR>
-0.276576

>  <SCORE.INTRA.POLAR.0>
-0.631696

>  <SCORE.INTRA.REPUL>
0.0262694

>  <SCORE.INTRA.REPUL.0>
0

>  <SCORE.INTRA.SOLV>
0.377903

>  <SCORE.INTRA.SOLV.lig_0>
-55.904

>  <SCORE.INTRA.VDW>
3.33497

>  <SCORE.INTRA.VDW.0>
-8.21197

>  <SCORE.INTRA.norm>
-0.00401872

>  <SCORE.RESTR>
0

>  <SCORE.RESTR.CAVITY>
0

>  <SCORE.RESTR.norm>
0

>  <SCORE.SYSTEM>
0

>  <SCORE.SYSTEM.CONST>
0

>  <SCORE.SYSTEM.DIHEDRAL>
0

>  <SCORE.SYSTEM.SOLV>
0

>  <SCORE.SYSTEM.norm>
0

>  <SCORE.heavy>
42

>  <SCORE.norm>
-0.762963

>  <RMSD>
6.284

$$$$
lig.pdb
 OpenBabel11021811453D
libRbt.so/2013.1/901 2013/11/27
 42 45  0  0  0  0  0  0  0  0999 V2000
   -1.3569    5.4702    4.1105 C   0  0  2  0  0  0  0  0  0  0  0  0
   -2.6450    5.9807    4.4593 O   0  0  0  0  0  0  0  0  0  0  0  0
   -0.9119    5.9990    2.7386 C   0  0  2  0  0  0  0  0  0  0  0  0
   -0.9530    7.4725    2.7008 N   0  0  0  0  0  0  0  0  0  0  0  0
   -1.7630    5.3951    1.6141 C   0  0  1  0  0  0  0  0  0  0  0  0
   -1.2301    5.7825    0.3621 O   0  0  0  0  0  0  0  0  0  0  0  0
   -1.7661    3.8622    1.7136 C   0  0  2  0  0  0  0  0  0  0  0  0
   -2.6786    3.3333    0.7708 O   0  0  0  0  0  0  0  0  0  0  0  0
   -2.1465    3.3883    3.1310 C   0  0  2  0  0  0  0  0  0  0  0  0
   -1.3585    4.0449    4.1235 O   0  0  0  0  0  0  0  0  0  0  0  0
   -1.9152    1.8670    3.2055 C   0  0  0  0  0  0  0  0  0  0  0  0
   -0.5164    1.5164    3.0300 O   0  0  0  0  0  0  0  0  0  0  0  0
   -5.9655    4.1949    6.5368 C   0  0  2  0  0  0  0  0  0  0  0  0
   -6.7632    3.0342    6.9805 N   0  0  0  0  0  0  0  0  0  0  0  0
   -5.9211    4.2566    5.0079 C   0  0  0  0  0  0  0  0  0  0  0  0
   -4.9859    5.3663    4.5424 C   0  0  2  0  0  0  0  0  0  0  0  0
   -5.0255    5.4820    3.0792 N   0  0  0  0  0  0  0  0  0  0  0  0
   -3.5625    5.0559    5.0611 C   0  0  2  0  0  0  0  0  0  0  0  0
   -3.5705    5.1540    6.5530 C   0  0  2  0  0  0  0  0  0  0  0  0
   -2.2512    4.9079    7.0039 O   0  0  0  0  0  0  0  0  0  0  0  0
   -4.5434    4.1406    7.1258 C   0  0  1  0  0  0  0  0  0  0  0  0
   -4.6541    4.2464    8.5327 O   0  0  0  0  0  0  0  0  0  0  0  0
   -1.8541    5.4891    8.2414 C   0  0  1  0  0  0  0  0  0  0  0  0
   -0.4367    5.0039    8.5524 C   0  0  2  0  0  0  0  0  0  0  0  0
   -0.3013    4.8183    9.9488 O   0  0  0  0  0  0  0  0  0  0  0  0
    0.4305    6.1507    8.0160 C   0  0  2  0  0  0  0  0  0  0  0  0
    1.7342    6.1775    8.5978 O   0  0  0  0  0  0  0  0  0  0  0  0
   -0.4596    7.3471    8.3744 C   0  0  2  0  0  0  0  0  0  0  0  0
   -1.7817    6.9027    8.1043 O   0  0  0  0  0  0  0  0  0  0  0  0
   -0.1817    8.6114    7.5529 C   0  0  0  0  0  0  0  0  0  0  0  0
   -1.0238    9.6772    7.9377 O   0  0  0  0  0  0  0  0  0  0  0  0
    2.6648    7.0291    7.9323 C   0  0  2  0  0  0  0  0  0  0  0  0
    3.9977    6.3155    7.6600 C   0  0  2  0  0  0  0  0  0  0  0  0
    3.7826    5.0676    6.9087 N   0  0  0  0  0  0  0  0  0  0  0  0
    4.7669    6.0608    8.9650 C   0  0  1  0  0  0  0  0  0  0  0  0
    6.0179    5.4828    8.6463 O   0  0  0  0  0  0  0  0  0  0  0  0
    4.9713    7.4074    9.6797 C   0  0  2  0  0  0  0  0  0  0  0  0
    5.6402    7.2234   10.9139 O   0  0  0  0  0  0  0  0  0  0  0  0
    3.6245    8.1270    9.8987 C   0  0  1  0  0  0  0  0  0  0  0  0
    2.8785    8.2223    8.6831 O   0  0  0  0  0  0  0  0  0  0  0  0
    2.7900    7.5234   11.0381 C   0  0  0  0  0  0  0  0  0  0  0  0
    2.8063    6.0524   10.9935 N   0  0  0  0  0  0  0  0  0  0  0  0
  1  3  1  0  0  0  0
  1  2  1  6  0  0  0
  3  4  1  1  0  0  0
  5  6  1  6  0  0  0
  5  3  1  0  0  0  0
  7  9  1  0  0  0  0
  7  5  1  0  0  0  0
  7  8  1  6  0  0  0
  9 10  1  0  0  0  0
  9 11  1  6  0  0  0
 10  1  1  0  0  0  0
 11 12  1  0  0  0  0
 13 14  1  6  0  0  0
 13 21  1  0  0  0  0
 15 13  1  0  0  0  0
 16 15  1  0  0  0  0
 16 18  1  0  0  0  0
 16 17  1  6  0  0  0
 18  2  1  6  0  0  0
 18 19  1  0  0  0  0
 19 21  1  0  0  0  0
 19 20  1  1  0  0  0
 21 22  1  1  0  0  0
 23 20  1  6  0  0  0
 23 29  1  0  0  0  0
 23 24  1  0  0  0  0
 24 26  1  0  0  0  0
 24 25  1  1  0  0  0
 26 27  1  1  0  0  0
 28 26  1  0  0  0  0
 28 30  1  6  0  0  0
 29 28  1  0  0  0  0
 30 31  1  0  0  0  0
 32 27  1  1  0  0  0
 32 40  1  0  0  0  0
 32 33  1  0  0  0  0
 33 35  1  0  0  0  0
 33 34  1  1  0  0  0
 35 37  1  0  0  0  0
 35 36  1  6  0  0  0
 37 38  1  1  0  0  0
 39 37  1  0  0  0  0
 39 41  1  1  0  0  0
 40 39  1  0  0  0  0
 42 41  1  0  0  0  0
M  END
>  <CHROM.1>
-143.01509598,138.12007985,19.71354914,-82.87790676,53.62388415,59.48376401
63.58395707,-64.09525982,144.23780957,153.06361338,176.22465728,174.32309082
174.31750607,167.01237622,-131.24773165,-179.48772820,-66.09137040,-49.25720707
-178.10261950,63.71923100,-43.07237622,63.22135276,-0.60748146,5.57541269
6.40243391,-2.44077372,0.17375631,1.35669518

>  <Name>
lig.pdb

>  <RI>
0

>  <Rbt.Current_Directory>
/home/itssahil/PROJECTS/Mol_Feturizer/New_Systems/rnas/2mxs

>  <Rbt.Executable>
rbdock ($Id: //depot/dev/client3/rdock/2013.1/src/exe/rbdock.cxx#4 $)

>  <Rbt.Library>
libRbt.so (2013.1, Build901 2013/11/27)

>  <Rbt.Parameter_File>
/export/apps/rDock/src/rDock_2013.1_src/data/scripts/dock_solv.prm

>  <Rbt.Receptor>
prm/pocket_docking_6.prm

>  <SCORE>
-31.1218

>  <SCORE.INTER>
-33.9192

>  <SCORE.INTER.CONST>
1

>  <SCORE.INTER.POLAR>
-6.00242

>  <SCORE.INTER.ROT>
9

>  <SCORE.INTER.SOLV>
14.7705

>  <SCORE.INTER.VDW>
-17.1282

>  <SCORE.INTER.norm>
-0.807599

>  <SCORE.INTRA>
2.79741

>  <SCORE.INTRA.DIHEDRAL>
1.04956

>  <SCORE.INTRA.DIHEDRAL.0>
30.1357

>  <SCORE.INTRA.POLAR>
-0.368943

>  <SCORE.INTRA.POLAR.0>
-0.631696

>  <SCORE.INTRA.REPUL>
0

>  <SCORE.INTRA.REPUL.0>
0

>  <SCORE.INTRA.SOLV>
0.580643

>  <SCORE.INTRA.SOLV.lig_0>
-55.904

>  <SCORE.INTRA.VDW>
3.23671

>  <SCORE.INTRA.VDW.0>
-8.21197

>  <SCORE.INTRA.norm>
0.0666049

>  <SCORE.RESTR>
0

>  <SCORE.RESTR.CAVITY>
0

>  <SCORE.RESTR.norm>
0

>  <SCORE.SYSTEM>
0

>  <SCORE.SYSTEM.CONST>
0

>  <SCORE.SYSTEM.DIHEDRAL>
0

>  <SCORE.SYSTEM.SOLV>
0

>  <SCORE.SYSTEM.norm>
0

>  <SCORE.heavy>
42

>  <SCORE.norm>
-0.740994

>  <RMSD>
6.305

$$$$
lig.pdb
 OpenBabel11021811453D
libRbt.so/2013.1/901 2013/11/27
 42 45  0  0  0  0  0  0  0  0999 V2000
    1.1802    0.9048   -1.1473 C   0  0  2  0  0  0  0  0  0  0  0  0
    1.7327    2.2178   -1.0372 O   0  0  0  0  0  0  0  0  0  0  0  0
   -0.2975    0.9660   -1.5624 C   0  0  2  0  0  0  0  0  0  0  0  0
   -0.4668    1.7445   -2.8033 N   0  0  0  0  0  0  0  0  0  0  0  0
   -1.1631    1.5368   -0.4316 C   0  0  1  0  0  0  0  0  0  0  0  0
   -2.5283    1.4365   -0.7889 O   0  0  0  0  0  0  0  0  0  0  0  0
   -0.9191    0.7585    0.8700 C   0  0  2  0  0  0  0  0  0  0  0  0
   -1.6023    1.3960    1.9322 O   0  0  0  0  0  0  0  0  0  0  0  0
    0.5846    0.6636    1.1988 C   0  0  2  0  0  0  0  0  0  0  0  0
    1.3293    0.1903    0.0770 O   0  0  0  0  0  0  0  0  0  0  0  0
    0.7556   -0.3063    2.3835 C   0  0  0  0  0  0  0  0  0  0  0  0
    0.0433    0.1437    3.5669 O   0  0  0  0  0  0  0  0  0  0  0  0
    6.0000    2.7766   -1.1320 C   0  0  2  0  0  0  0  0  0  0  0  0
    7.3002    2.8287   -1.8299 N   0  0  0  0  0  0  0  0  0  0  0  0
    5.3741    1.3872   -1.2761 C   0  0  0  0  0  0  0  0  0  0  0  0
    3.9713    1.3659   -0.6806 C   0  0  2  0  0  0  0  0  0  0  0  0
    3.4181    0.0069   -0.7350 N   0  0  0  0  0  0  0  0  0  0  0  0
    3.0963    2.3794   -1.4543 C   0  0  2  0  0  0  0  0  0  0  0  0
    3.6136    3.7557   -1.1827 C   0  0  2  0  0  0  0  0  0  0  0  0
    2.7747    4.6693   -1.8654 O   0  0  0  0  0  0  0  0  0  0  0  0
    5.0485    3.8654   -1.6627 C   0  0  1  0  0  0  0  0  0  0  0  0
    5.6173    5.1241   -1.3543 O   0  0  0  0  0  0  0  0  0  0  0  0
    1.3827    4.6407   -1.5681 C   0  0  1  0  0  0  0  0  0  0  0  0
    1.2309    4.5578   -0.0477 C   0  0  2  0  0  0  0  0  0  0  0  0
    0.1123    3.7504    0.2677 O   0  0  0  0  0  0  0  0  0  0  0  0
    1.0353    6.0282    0.3457 C   0  0  2  0  0  0  0  0  0  0  0  0
    0.4033    6.1816    1.6168 O   0  0  0  0  0  0  0  0  0  0  0  0
    0.2059    6.5149   -0.8491 C   0  0  2  0  0  0  0  0  0  0  0  0
    0.7820    5.8644   -1.9730 O   0  0  0  0  0  0  0  0  0  0  0  0
    0.2497    8.0307   -1.0745 C   0  0  0  0  0  0  0  0  0  0  0  0
    1.4224    8.4214   -1.7565 O   0  0  0  0  0  0  0  0  0  0  0  0
   -0.1990    4.9942    2.1283 C   0  0  2  0  0  0  0  0  0  0  0  0
   -1.7291    5.0276    1.9950 C   0  0  2  0  0  0  0  0  0  0  0  0
   -2.1306    5.2728    0.5997 N   0  0  0  0  0  0  0  0  0  0  0  0
   -2.3462    6.0623    2.9479 C   0  0  1  0  0  0  0  0  0  0  0  0
   -3.7549    5.9878    2.8443 O   0  0  0  0  0  0  0  0  0  0  0  0
   -1.9013    5.7289    4.3820 C   0  0  2  0  0  0  0  0  0  0  0  0
   -2.4093    6.6809    5.2986 O   0  0  0  0  0  0  0  0  0  0  0  0
   -0.3637    5.6534    4.4802 C   0  0  1  0  0  0  0  0  0  0  0  0
    0.1820    4.7832    3.4860 O   0  0  0  0  0  0  0  0  0  0  0  0
    0.3153    7.0309    4.4720 C   0  0  0  0  0  0  0  0  0  0  0  0
    0.0165    7.7833    5.7013 N   0  0  0  0  0  0  0  0  0  0  0  0
  1  3  1  0  0  0  0
  1  2  1  1  0  0  0
  3  4  1  6  0  0  0
  5  6  1  6  0  0  0
  5  3  1  0  0  0  0
  7  9  1  0  0  0  0
  7  5  1  0  0  0  0
  7  8  1  1  0  0  0
  9 10  1  0  0  0  0
  9 11  1  1  0  0  0
 10  1  1  0  0  0  0
 11 12  1  0  0  0  0
 13 14  1  6  0  0  0
 13 21  1  0  0  0  0
 15 13  1  0  0  0  0
 16 15  1  0  0  0  0
 16 18  1  0  0  0  0
 16 17  1  6  0  0  0
 18  2  1  1  0  0  0
 18 19  1  0  0  0  0
 19 21  1  0  0  0  0
 19 20  1  6  0  0  0
 21 22  1  1  0  0  0
 23 20  1  1  0  0  0
 23 29  1  0  0  0  0
 23 24  1  0  0  0  0
 24 26  1  0  0  0  0
 24 25  1  6  0  0  0
 26 27  1  1  0  0  0
 28 26  1  0  0  0  0
 28 30  1  6  0  0  0
 29 28  1  0  0  0  0
 30 31  1  0  0  0  0
 32 27  1  1  0  0  0
 32 40  1  0  0  0  0
 32 33  1  0  0  0  0
 33 35  1  0  0  0  0
 33 34  1  6  0  0  0
 35 37  1  0  0  0  0
 35 36  1  1  0  0  0
 37 38  1  1  0  0  0
 39 37  1  0  0  0  0
 39 41  1  6  0  0  0
 40 39  1  0  0  0  0
 42 41  1  0  0  0  0
M  END
>  <CHROM.1>
-54.84931676,-143.49609624,86.42602002,-69.31491565,-171.71849726,-172.15586230
-59.96256115,-25.70175277,159.29490166,57.02937938,44.83137228,-54.67956327
97.00020397,-13.91275349,-104.48237598,80.67380780,-149.32978872,176.97011426
72.71026501,67.50414623,68.11790827,-48.94697866,0.86125997,3.79636934,0.55083442
0.59291321,-0.64606490,-2.96363694

>  <Name>
lig.pdb

>  <RI>
0

>  <Rbt.Current_Directory>
/home/itssahil/PROJECTS/Mol_Feturizer/New_Systems/rnas/2mxs

>  <Rbt.Executable>
rbdock ($Id: //depot/dev/client3/rdock/2013.1/src/exe/rbdock.cxx#4 $)

>  <Rbt.Library>
libRbt.so (2013.1, Build901 2013/11/27)

>  <Rbt.Parameter_File>
/export/apps/rDock/src/rDock_2013.1_src/data/scripts/dock_solv.prm

>  <Rbt.Receptor>
prm/blind_docking_60.prm

>  <SCORE>
121.968

>  <SCORE.INTER>
60.2877

>  <SCORE.INTER.CONST>
1

>  <SCORE.INTER.POLAR>
-3.57605

>  <SCORE.INTER.ROT>
9

>  <SCORE.INTER.SOLV>
27.3597

>  <SCORE.INTER.VDW>
33.3921

>  <SCORE.INTER.norm>
1.43542

>  <SCORE.INTRA>
33.8767

>  <SCORE.INTRA.DIHEDRAL>
5.92104

>  <SCORE.INTRA.DIHEDRAL.0>
30.1357

>  <SCORE.INTRA.POLAR>
-1.83077

>  <SCORE.INTRA.POLAR.0>
-0.631696

>  <SCORE.INTRA.REPUL>
0

>  <SCORE.INTRA.REPUL.0>
0

>  <SCORE.INTRA.SOLV>
4.55488

>  <SCORE.INTRA.SOLV.lig_0>
-55.904

>  <SCORE.INTRA.VDW>
34.8634

>  <SCORE.INTRA.VDW.0>
-8.21197

>  <SCORE.INTRA.norm>
0.806589

>  <SCORE.RESTR>
27.8039

>  <SCORE.RESTR.CAVITY>
27.8039

>  <SCORE.RESTR.norm>
0.661998

>  <SCORE.SYSTEM>
0

>  <SCORE.SYSTEM.CONST>
0

>  <SCORE.SYSTEM.DIHEDRAL>
0

>  <SCORE.SYSTEM.SOLV>
0

>  <SCORE.SYSTEM.norm>
0

>  <SCORE.heavy>
42

>  <SCORE.norm>
2.90401

>  <RMSD>
6.323

$$$$
lig.pdb
 OpenBabel11021811453D
libRbt.so/2013.1/901 2013/11/27
 42 45  0  0  0  0  0  0  0  0999 V2000
   -0.7389    4.4169    1.4952 C   0  0  2  0  0  0  0  0  0  0  0  0
   -0.6398    5.1010    0.2448 O   0  0  0  0  0  0  0  0  0  0  0  0
   -2.0288    3.5854    1.5634 C   0  0  2  0  0  0  0  0  0  0  0  0
   -2.1244    2.6623    0.4175 N   0  0  0  0  0  0  0  0  0  0  0  0
   -3.2637    4.4920    1.6450 C   0  0  1  0  0  0  0  0  0  0  0  0
   -4.4153    3.6987    1.8598 O   0  0  0  0  0  0  0  0  0  0  0  0
   -3.1131    5.4937    2.7998 C   0  0  2  0  0  0  0  0  0  0  0  0
   -4.1828    6.4188    2.7600 O   0  0  0  0  0  0  0  0  0  0  0  0
   -1.7691    6.2461    2.7242 C   0  0  2  0  0  0  0  0  0  0  0  0
   -0.6769    5.3385    2.5809 O   0  0  0  0  0  0  0  0  0  0  0  0
   -1.6023    7.0602    4.0213 C   0  0  0  0  0  0  0  0  0  0  0  0
   -0.7744    8.2379    3.8263 O   0  0  0  0  0  0  0  0  0  0  0  0
    2.6495    5.4461   -2.5107 C   0  0  2  0  0  0  0  0  0  0  0  0
    4.0856    5.5764   -2.8280 N   0  0  0  0  0  0  0  0  0  0  0  0
    2.1782    6.6405   -1.6774 C   0  0  0  0  0  0  0  0  0  0  0  0
    0.7354    6.4452   -1.2270 C   0  0  2  0  0  0  0  0  0  0  0  0
    0.2613    7.6374   -0.5132 N   0  0  0  0  0  0  0  0  0  0  0  0
    0.6657    5.1761   -0.3461 C   0  0  2  0  0  0  0  0  0  0  0  0
    0.9706    3.9885   -1.2018 C   0  0  2  0  0  0  0  0  0  0  0  0
    0.8606    2.8359   -0.3870 O   0  0  0  0  0  0  0  0  0  0  0  0
    2.3674    4.1205   -1.7788 C   0  0  1  0  0  0  0  0  0  0  0  0
    2.6781    3.0625   -2.6661 O   0  0  0  0  0  0  0  0  0  0  0  0
    1.7298    2.7323    0.7358 C   0  0  1  0  0  0  0  0  0  0  0  0
    0.9117    2.1959    1.9124 C   0  0  2  0  0  0  0  0  0  0  0  0
    1.3624    2.8002    3.1101 O   0  0  0  0  0  0  0  0  0  0  0  0
    1.2022    0.6900    1.8578 C   0  0  2  0  0  0  0  0  0  0  0  0
    0.9581    0.0339    3.1023 O   0  0  0  0  0  0  0  0  0  0  0  0
    2.6724    0.7186    1.4221 C   0  0  2  0  0  0  0  0  0  0  0  0
    2.7426    1.7703    0.4695 O   0  0  0  0  0  0  0  0  0  0  0  0
    3.1643   -0.5783    0.7690 C   0  0  0  0  0  0  0  0  0  0  0  0
    4.4819   -0.4467    0.2794 O   0  0  0  0  0  0  0  0  0  0  0  0
   -0.0450    0.6462    3.9103 C   0  0  2  0  0  0  0  0  0  0  0  0
    0.1799    0.3715    5.4050 C   0  0  2  0  0  0  0  0  0  0  0  0
    1.5295    0.7893    5.8196 N   0  0  0  0  0  0  0  0  0  0  0  0
   -0.0804   -1.1043    5.7427 C   0  0  1  0  0  0  0  0  0  0  0  0
    0.0570   -1.2788    7.1396 O   0  0  0  0  0  0  0  0  0  0  0  0
   -1.5107   -1.4590    5.3019 C   0  0  2  0  0  0  0  0  0  0  0  0
   -1.7882   -2.8246    5.5521 O   0  0  0  0  0  0  0  0  0  0  0  0
   -1.7272   -1.1295    3.8105 C   0  0  1  0  0  0  0  0  0  0  0  0
   -1.3438    0.2145    3.5106 O   0  0  0  0  0  0  0  0  0  0  0  0
   -1.0660   -2.1401    2.8616 C   0  0  0  0  0  0  0  0  0  0  0  0
   -1.8334   -3.3942    2.7947 N   0  0  0  0  0  0  0  0  0  0  0  0
  1  3  1  0  0  0  0
  1  2  1  6  0  0  0
  3  4  1  6  0  0  0
  5  6  1  1  0  0  0
  5  3  1  0  0  0  0
  7  9  1  0  0  0  0
  7  5  1  0  0  0  0
  7  8  1  6  0  0  0
  9 10  1  0  0  0  0
  9 11  1  1  0  0  0
 10  1  1  0  0  0  0
 11 12  1  0  0  0  0
 13 14  1  1  0  0  0
 13 21  1  0  0  0  0
 15 13  1  0  0  0  0
 16 15  1  0  0  0  0
 16 18  1  0  0  0  0
 16 17  1  1  0  0  0
 18  2  1  6  0  0  0
 18 19  1  0  0  0  0
 19 21  1  0  0  0  0
 19 20  1  1  0  0  0
 21 22  1  6  0  0  0
 23 20  1  6  0  0  0
 23 29  1  0  0  0  0
 23 24  1  0  0  0  0
 24 26  1  0  0  0  0
 24 25  1  1  0  0  0
 26 27  1  1  0  0  0
 28 26  1  0  0  0  0
 28 30  1  6  0  0  0
 29 28  1  0  0  0  0
 30 31  1  0  0  0  0
 32 27  1  6  0  0  0
 32 40  1  0  0  0  0
 32 33  1  0  0  0  0
 33 35  1  0  0  0  0
 33 34  1  6  0  0  0
 35 37  1  0  0  0  0
 35 36  1  1  0  0  0
 37 38  1  6  0  0  0
 39 37  1  0  0  0  0
 39 41  1  6  0  0  0
 40 39  1  0  0  0  0
 42 41  1  0  0  0  0
M  END
>  <CHROM.1>
-152.53282511,-141.18953020,154.62893419,-55.67298602,69.16882833,-34.88450308
-152.60522682,165.75444191,51.51070889,-60.96961065,138.10065983,-176.57123044
149.33906773,28.54863162,-152.75218530,174.50320959,-65.02364872,27.03276677
58.23379881,163.14441324,75.83082244,-50.67097099,0.08463902,2.65694251,1.83224593
1.37546629,0.70513647,-0.48914535

>  <Name>
lig.pdb

>  <RI>
0

>  <Rbt.Current_Directory>
/home/itssahil/PROJECTS/Mol_Feturizer/New_Systems/rnas/2mxs

>  <Rbt.Executable>
rbdock ($Id: //depot/dev/client3/rdock/2013.1/src/exe/rbdock.cxx#4 $)

>  <Rbt.Library>
libRbt.so (2013.1, Build901 2013/11/27)

>  <Rbt.Parameter_File>
/export/apps/rDock/src/rDock_2013.1_src/data/scripts/dock_solv.prm

>  <Rbt.Receptor>
prm/blind_docking_20.prm

>  <SCORE>
-3.09128

>  <SCORE.INTER>
-26.876

>  <SCORE.INTER.CONST>
1

>  <SCORE.INTER.POLAR>
-6.31021

>  <SCORE.INTER.ROT>
9

>  <SCORE.INTER.SOLV>
30.0322

>  <SCORE.INTER.VDW>
-16.494

>  <SCORE.INTER.norm>
-0.639904

>  <SCORE.INTRA>
7.69687

>  <SCORE.INTRA.DIHEDRAL>
7.14079

>  <SCORE.INTRA.DIHEDRAL.0>
30.1357

>  <SCORE.INTRA.POLAR>
-0.52152

>  <SCORE.INTRA.POLAR.0>
-0.631696

>  <SCORE.INTRA.REPUL>
0

>  <SCORE.INTRA.REPUL.0>
0

>  <SCORE.INTRA.SOLV>
0.0528672

>  <SCORE.INTRA.SOLV.lig_0>
-55.904

>  <SCORE.INTRA.VDW>
5.87321

>  <SCORE.INTRA.VDW.0>
-8.21197

>  <SCORE.INTRA.norm>
0.183259

>  <SCORE.RESTR>
16.0878

>  <SCORE.RESTR.CAVITY>
16.0878

>  <SCORE.RESTR.norm>
0.383043

>  <SCORE.SYSTEM>
0

>  <SCORE.SYSTEM.CONST>
0

>  <SCORE.SYSTEM.DIHEDRAL>
0

>  <SCORE.SYSTEM.SOLV>
0

>  <SCORE.SYSTEM.norm>
0

>  <SCORE.heavy>
42

>  <SCORE.norm>
-0.0736018

>  <RMSD>
6.350

$$$$
lig.pdb
 OpenBabel11021811453D
libRbt.so/2013.1/901 2013/11/27
 42 45  0  0  0  0  0  0  0  0999 V2000
   -2.0403    0.3149    2.9169 C   0  0  2  0  0  0  0  0  0  0  0  0
   -1.3731    1.5717    3.0458 O   0  0  0  0  0  0  0  0  0  0  0  0
   -3.5252    0.4431    3.2888 C   0  0  2  0  0  0  0  0  0  0  0  0
   -4.1794    1.5017    2.4976 N   0  0  0  0  0  0  0  0  0  0  0  0
   -3.6958    0.6943    4.7926 C   0  0  1  0  0  0  0  0  0  0  0  0
   -5.0710    0.6543    5.1224 O   0  0  0  0  0  0  0  0  0  0  0  0
   -2.9475   -0.3776    5.5993 C   0  0  2  0  0  0  0  0  0  0  0  0
   -2.9837   -0.0405    6.9728 O   0  0  0  0  0  0  0  0  0  0  0  0
   -1.4837   -0.5163    5.1342 C   0  0  2  0  0  0  0  0  0  0  0  0
   -1.4053   -0.6781    3.7183 O   0  0  0  0  0  0  0  0  0  0  0  0
   -0.8736   -1.7462    5.8330 C   0  0  0  0  0  0  0  0  0  0  0  0
    0.4672   -2.0382    5.3563 O   0  0  0  0  0  0  0  0  0  0  0  0
   -0.7055    4.6312    0.0920 C   0  0  2  0  0  0  0  0  0  0  0  0
   -1.0814    5.3899   -1.1177 N   0  0  0  0  0  0  0  0  0  0  0  0
   -0.5322    3.1477   -0.2430 C   0  0  0  0  0  0  0  0  0  0  0  0
   -0.2830    2.3369    1.0233 C   0  0  2  0  0  0  0  0  0  0  0  0
   -0.0207    0.9330    0.6829 N   0  0  0  0  0  0  0  0  0  0  0  0
   -1.5110    2.4890    1.9508 C   0  0  2  0  0  0  0  0  0  0  0  0
   -1.5863    3.9107    2.4074 C   0  0  2  0  0  0  0  0  0  0  0  0
   -2.6907    4.0185    3.2867 O   0  0  0  0  0  0  0  0  0  0  0  0
   -1.7502    4.8240    1.2072 C   0  0  1  0  0  0  0  0  0  0  0  0
   -1.7429    6.1908    1.5746 O   0  0  0  0  0  0  0  0  0  0  0  0
   -2.4944    3.6458    4.6466 C   0  0  1  0  0  0  0  0  0  0  0  0
   -1.5564    4.6741    5.2824 C   0  0  2  0  0  0  0  0  0  0  0  0
   -0.7113    4.0243    6.2132 O   0  0  0  0  0  0  0  0  0  0  0  0
   -2.5371    5.6498    5.9468 C   0  0  2  0  0  0  0  0  0  0  0  0
   -1.9344    6.4149    6.9909 O   0  0  0  0  0  0  0  0  0  0  0  0
   -3.6179    4.6656    6.4107 C   0  0  2  0  0  0  0  0  0  0  0  0
   -3.7285    3.7290    5.3482 O   0  0  0  0  0  0  0  0  0  0  0  0
   -4.9904    5.3028    6.6575 C   0  0  0  0  0  0  0  0  0  0  0  0
   -5.9298    4.3534    7.1150 O   0  0  0  0  0  0  0  0  0  0  0  0
   -2.7626    7.4448    7.5271 C   0  0  2  0  0  0  0  0  0  0  0  0
   -2.0530    8.8073    7.5240 C   0  0  2  0  0  0  0  0  0  0  0  0
   -1.5793    9.1509    6.1728 N   0  0  0  0  0  0  0  0  0  0  0  0
   -0.9069    8.8378    8.5463 C   0  0  1  0  0  0  0  0  0  0  0  0
   -0.3489   10.1375    8.5605 O   0  0  0  0  0  0  0  0  0  0  0  0
   -1.4808    8.4918    9.9308 C   0  0  2  0  0  0  0  0  0  0  0  0
   -0.4549    8.4638   10.9060 O   0  0  0  0  0  0  0  0  0  0  0  0
   -2.2297    7.1436    9.8975 C   0  0  1  0  0  0  0  0  0  0  0  0
   -3.1945    7.1069    8.8433 O   0  0  0  0  0  0  0  0  0  0  0  0
   -1.2925    5.9274    9.8600 C   0  0  0  0  0  0  0  0  0  0  0  0
   -2.0506    4.6688    9.7738 N   0  0  0  0  0  0  0  0  0  0  0  0
  1  3  1  0  0  0  0
  1  2  1  1  0  0  0
  3  4  1  6  0  0  0
  5  6  1  1  0  0  0
  5  3  1  0  0  0  0
  7  9  1  0  0  0  0
  7  5  1  0  0  0  0
  7  8  1  1  0  0  0
  9 10  1  0  0  0  0
  9 11  1  1  0  0  0
 10  1  1  0  0  0  0
 11 12  1  0  0  0  0
 13 14  1  6  0  0  0
 13 21  1  0  0  0  0
 15 13  1  0  0  0  0
 16 15  1  0  0  0  0
 16 18  1  0  0  0  0
 16 17  1  6  0  0  0
 18  2  1  1  0  0  0
 18 19  1  0  0  0  0
 19 21  1  0  0  0  0
 19 20  1  1  0  0  0
 21 22  1  1  0  0  0
 23 20  1  6  0  0  0
 23 29  1  0  0  0  0
 23 24  1  0  0  0  0
 24 26  1  0  0  0  0
 24 25  1  1  0  0  0
 26 27  1  1  0  0  0
 28 26  1  0  0  0  0
 28 30  1  6  0  0  0
 29 28  1  0  0  0  0
 30 31  1  0  0  0  0
 32 27  1  1  0  0  0
 32 40  1  0  0  0  0
 32 33  1  0  0  0  0
 33 35  1  0  0  0  0
 33 34  1  6  0  0  0
 35 37  1  0  0  0  0
 35 36  1  1  0  0  0
 37 38  1  1  0  0  0
 39 37  1  0  0  0  0
 39 41  1  6  0  0  0
 40 39  1  0  0  0  0
 42 41  1  0  0  0  0
M  END
>  <CHROM.1>
-95.92376049,-81.65249986,-68.05699832,179.93425091,166.32466358,80.03483146
174.28648939,-59.50703977,58.89707929,82.88313097,68.32633755,64.35116179
-60.27984817,172.83867185,-127.50923441,-178.45204212,-178.38351399,-64.01658361
-176.14146791,-53.05005757,-177.68592219,172.89813971,-2.06876626,3.95816022
5.19241652,1.49190680,-1.36876925,-2.48450780

>  <Name>
lig.pdb

>  <RI>
0

>  <Rbt.Current_Directory>
/home/itssahil/PROJECTS/Mol_Feturizer/New_Systems/rnas/2mxs

>  <Rbt.Executable>
rbdock ($Id: //depot/dev/client3/rdock/2013.1/src/exe/rbdock.cxx#4 $)

>  <Rbt.Library>
libRbt.so (2013.1, Build901 2013/11/27)

>  <Rbt.Parameter_File>
/export/apps/rDock/src/rDock_2013.1_src/data/scripts/dock_solv.prm

>  <Rbt.Receptor>
prm/pocket_docking_7.prm

>  <SCORE>
-33.8135

>  <SCORE.INTER>
-29.6878

>  <SCORE.INTER.CONST>
1

>  <SCORE.INTER.POLAR>
-5.79401

>  <SCORE.INTER.ROT>
9

>  <SCORE.INTER.SOLV>
12.5087

>  <SCORE.INTER.VDW>
-14.2481

>  <SCORE.INTER.norm>
-0.706852

>  <SCORE.INTRA>
-4.12572

>  <SCORE.INTRA.DIHEDRAL>
-9.22272

>  <SCORE.INTRA.DIHEDRAL.0>
30.1357

>  <SCORE.INTRA.POLAR>
-0.0745603

>  <SCORE.INTRA.POLAR.0>
-0.631696

>  <SCORE.INTRA.REPUL>
0

>  <SCORE.INTRA.REPUL.0>
0

>  <SCORE.INTRA.SOLV>
-0.820553

>  <SCORE.INTRA.SOLV.lig_0>
-55.904

>  <SCORE.INTRA.VDW>
1.14942

>  <SCORE.INTRA.VDW.0>
-8.21197

>  <SCORE.INTRA.norm>
-0.0982315

>  <SCORE.RESTR>
0

>  <SCORE.RESTR.CAVITY>
0

>  <SCORE.RESTR.norm>
0

>  <SCORE.SYSTEM>
0

>  <SCORE.SYSTEM.CONST>
0

>  <SCORE.SYSTEM.DIHEDRAL>
0

>  <SCORE.SYSTEM.SOLV>
0

>  <SCORE.SYSTEM.norm>
0

>  <SCORE.heavy>
42

>  <SCORE.norm>
-0.805083

>  <RMSD>
6.351

$$$$
lig.pdb
 OpenBabel11021811453D
libRbt.so/2013.1/901 2013/11/27
 42 45  0  0  0  0  0  0  0  0999 V2000
    2.4492    0.2175    0.5455 C   0  0  2  0  0  0  0  0  0  0  0  0
    3.1414    1.4636    0.6431 O   0  0  0  0  0  0  0  0  0  0  0  0
    1.0000    0.4315    0.0831 C   0  0  2  0  0  0  0  0  0  0  0  0
    0.9542    1.1913   -1.1798 N   0  0  0  0  0  0  0  0  0  0  0  0
    0.1716    1.1239    1.1730 C   0  0  1  0  0  0  0  0  0  0  0  0
   -1.1856    1.1663    0.7756 O   0  0  0  0  0  0  0  0  0  0  0  0
    0.2899    0.3574    2.4990 C   0  0  2  0  0  0  0  0  0  0  0  0
   -0.3480    1.0941    3.5245 O   0  0  0  0  0  0  0  0  0  0  0  0
    1.7636    0.1049    2.8767 C   0  0  2  0  0  0  0  0  0  0  0  0
    2.4825   -0.4771    1.7898 O   0  0  0  0  0  0  0  0  0  0  0  0
    1.7913   -0.8468    4.0878 C   0  0  0  0  0  0  0  0  0  0  0  0
    1.0332   -0.3252    5.2119 O   0  0  0  0  0  0  0  0  0  0  0  0
    4.9413    3.7484   -2.5305 C   0  0  2  0  0  0  0  0  0  0  0  0
    4.9630    4.2978   -3.9009 N   0  0  0  0  0  0  0  0  0  0  0  0
    4.9036    2.2187   -2.5712 C   0  0  0  0  0  0  0  0  0  0  0  0
    4.7389    1.6482   -1.1675 C   0  0  2  0  0  0  0  0  0  0  0  0
    4.8025    0.1818   -1.2056 N   0  0  0  0  0  0  0  0  0  0  0  0
    3.3980    2.1554   -0.5877 C   0  0  2  0  0  0  0  0  0  0  0  0
    3.4941    3.6354   -0.3976 C   0  0  2  0  0  0  0  0  0  0  0  0
    2.2738    4.0725    0.1719 O   0  0  0  0  0  0  0  0  0  0  0  0
    3.7463    4.3063   -1.7346 C   0  0  1  0  0  0  0  0  0  0  0  0
    3.9299    5.7033   -1.6020 O   0  0  0  0  0  0  0  0  0  0  0  0
    1.2492    4.5127   -0.7132 C   0  0  1  0  0  0  0  0  0  0  0  0
   -0.0608    3.8532   -0.2766 C   0  0  2  0  0  0  0  0  0  0  0  0
   -0.8363    3.5501   -1.4210 O   0  0  0  0  0  0  0  0  0  0  0  0
   -0.6974    4.9351    0.6061 C   0  0  2  0  0  0  0  0  0  0  0  0
   -2.1094    4.7754    0.7455 O   0  0  0  0  0  0  0  0  0  0  0  0
   -0.2635    6.1916   -0.1588 C   0  0  2  0  0  0  0  0  0  0  0  0
    1.0671    5.9160   -0.5736 O   0  0  0  0  0  0  0  0  0  0  0  0
   -0.2681    7.4757    0.6787 C   0  0  0  0  0  0  0  0  0  0  0  0
   -0.4130    8.6237   -0.1302 O   0  0  0  0  0  0  0  0  0  0  0  0
   -2.5053    3.6839    1.5737 C   0  0  2  0  0  0  0  0  0  0  0  0
   -3.9347    3.8618    2.1076 C   0  0  2  0  0  0  0  0  0  0  0  0
   -4.8869    4.0685    1.0037 N   0  0  0  0  0  0  0  0  0  0  0  0
   -4.0056    5.0038    3.1325 C   0  0  1  0  0  0  0  0  0  0  0  0
   -5.3202    5.0642    3.6511 O   0  0  0  0  0  0  0  0  0  0  0  0
   -3.0032    4.7074    4.2609 C   0  0  2  0  0  0  0  0  0  0  0  0
   -2.9974    5.7543    5.2140 O   0  0  0  0  0  0  0  0  0  0  0  0
   -1.5851    4.4849    3.6962 C   0  0  1  0  0  0  0  0  0  0  0  0
   -1.5856    3.5113    2.6495 O   0  0  0  0  0  0  0  0  0  0  0  0
   -0.8887    5.7855    3.2695 C   0  0  0  0  0  0  0  0  0  0  0  0
    0.0161    6.2789    4.3203 N   0  0  0  0  0  0  0  0  0  0  0  0
  1  3  1  0  0  0  0
  1  2  1  1  0  0  0
  3  4  1  6  0  0  0
  5  6  1  6  0  0  0
  5  3  1  0  0  0  0
  7  9  1  0  0  0  0
  7  5  1  0  0  0  0
  7  8  1  1  0  0  0
  9 10  1  0  0  0  0
  9 11  1  1  0  0  0
 10  1  1  0  0  0  0
 11 12  1  0  0  0  0
 13 14  1  6  0  0  0
 13 21  1  0  0  0  0
 15 13  1  0  0  0  0
 16 15  1  0  0  0  0
 16 18  1  0  0  0  0
 16 17  1  6  0  0  0
 18  2  1  1  0  0  0
 18 19  1  0  0  0  0
 19 21  1  0  0  0  0
 19 20  1  6  0  0  0
 21 22  1  1  0  0  0
 23 20  1  1  0  0  0
 23 29  1  0  0  0  0
 23 24  1  0  0  0  0
 24 26  1  0  0  0  0
 24 25  1  6  0  0  0
 26 27  1  6  0  0  0
 28 26  1  0  0  0  0
 28 30  1  1  0  0  0
 29 28  1  0  0  0  0
 30 31  1  0  0  0  0
 32 27  1  1  0  0  0
 32 40  1  0  0  0  0
 32 33  1  0  0  0  0
 33 35  1  0  0  0  0
 33 34  1  6  0  0  0
 35 37  1  0  0  0  0
 35 36  1  1  0  0  0
 37 38  1  1  0  0  0
 39 37  1  0  0  0  0
 39 41  1  6  0  0  0
 40 39  1  0  0  0  0
 42 41  1  0  0  0  0
M  END
>  <CHROM.1>
-87.67164092,-67.74305269,173.34157020,179.08840663,-29.97169259,-169.81995715
-56.55897631,144.53587146,-60.68633516,-92.74118818,133.24323536,-68.18189478
-78.60970569,72.50993316,158.70072272,-155.54991028,66.64317496,-31.52598234
79.30427742,62.06369105,97.46066940,87.96965439,0.48486778,3.34545838,0.96924139
-0.00539907,-0.63292587,2.60840582

>  <Name>
lig.pdb

>  <RI>
0

>  <Rbt.Current_Directory>
/home/itssahil/PROJECTS/Mol_Feturizer/New_Systems/rnas/2mxs

>  <Rbt.Executable>
rbdock ($Id: //depot/dev/client3/rdock/2013.1/src/exe/rbdock.cxx#4 $)

>  <Rbt.Library>
libRbt.so (2013.1, Build901 2013/11/27)

>  <Rbt.Parameter_File>
/export/apps/rDock/src/rDock_2013.1_src/data/scripts/dock_solv.prm

>  <Rbt.Receptor>
prm/blind_docking_80.prm

>  <SCORE>
34.624

>  <SCORE.INTER>
6.09448

>  <SCORE.INTER.CONST>
1

>  <SCORE.INTER.POLAR>
-4.56128

>  <SCORE.INTER.ROT>
9

>  <SCORE.INTER.SOLV>
30.7679

>  <SCORE.INTER.VDW>
-0.588716

>  <SCORE.INTER.norm>
0.145107

>  <SCORE.INTRA>
14.0056

>  <SCORE.INTRA.DIHEDRAL>
6.09972

>  <SCORE.INTRA.DIHEDRAL.0>
30.1357

>  <SCORE.INTRA.POLAR>
-0.719823

>  <SCORE.INTRA.POLAR.0>
-0.631696

>  <SCORE.INTRA.REPUL>
0.00256504

>  <SCORE.INTRA.REPUL.0>
0

>  <SCORE.INTRA.SOLV>
3.0462

>  <SCORE.INTRA.SOLV.lig_0>
-55.904

>  <SCORE.INTRA.VDW>
11.8672

>  <SCORE.INTRA.VDW.0>
-8.21197

>  <SCORE.INTRA.norm>
0.333466

>  <SCORE.RESTR>
14.524

>  <SCORE.RESTR.CAVITY>
14.524

>  <SCORE.RESTR.norm>
0.345808

>  <SCORE.SYSTEM>
0

>  <SCORE.SYSTEM.CONST>
0

>  <SCORE.SYSTEM.DIHEDRAL>
0

>  <SCORE.SYSTEM.SOLV>
0

>  <SCORE.SYSTEM.norm>
0

>  <SCORE.heavy>
42

>  <SCORE.norm>
0.824381

>  <RMSD>
6.387

$$$$
lig.pdb
 OpenBabel11021811453D
libRbt.so/2013.1/901 2013/11/27
 42 45  0  0  0  0  0  0  0  0999 V2000
   -1.4035   -0.0836    2.2049 C   0  0  2  0  0  0  0  0  0  0  0  0
   -0.1928    0.2000    1.5011 O   0  0  0  0  0  0  0  0  0  0  0  0
   -1.2975   -1.4166    2.9609 C   0  0  2  0  0  0  0  0  0  0  0  0
   -0.1227   -1.4276    3.8520 N   0  0  0  0  0  0  0  0  0  0  0  0
   -1.2603   -2.6003    1.9857 C   0  0  1  0  0  0  0  0  0  0  0  0
   -1.3172   -3.8114    2.7149 O   0  0  0  0  0  0  0  0  0  0  0  0
   -2.4526   -2.5315    1.0196 C   0  0  2  0  0  0  0  0  0  0  0  0
   -2.3147   -3.5360    0.0330 O   0  0  0  0  0  0  0  0  0  0  0  0
   -2.5552   -1.1482    0.3455 C   0  0  2  0  0  0  0  0  0  0  0  0
   -2.5145   -0.0989    1.3121 O   0  0  0  0  0  0  0  0  0  0  0  0
   -3.8854   -1.0906   -0.4294 C   0  0  0  0  0  0  0  0  0  0  0  0
   -5.0310   -1.3333    0.4301 O   0  0  0  0  0  0  0  0  0  0  0  0
    1.0664    3.9088   -0.2850 C   0  0  2  0  0  0  0  0  0  0  0  0
    0.8576    5.0802   -1.1593 N   0  0  0  0  0  0  0  0  0  0  0  0
    0.9904    2.6158   -1.1009 C   0  0  0  0  0  0  0  0  0  0  0  0
    1.0640    1.3988   -0.1864 C   0  0  2  0  0  0  0  0  0  0  0  0
    1.0895    0.1662   -0.9838 N   0  0  0  0  0  0  0  0  0  0  0  0
   -0.1429    1.4395    0.7797 C   0  0  2  0  0  0  0  0  0  0  0  0
    0.0159    2.6178    1.6863 C   0  0  2  0  0  0  0  0  0  0  0  0
   -1.0756    2.6125    2.5880 O   0  0  0  0  0  0  0  0  0  0  0  0
    0.0423    3.8933    0.8654 C   0  0  1  0  0  0  0  0  0  0  0  0
    0.2752    5.0363    1.6667 O   0  0  0  0  0  0  0  0  0  0  0  0
   -0.9011    3.2596    3.8441 C   0  0  1  0  0  0  0  0  0  0  0  0
   -2.1917    3.0795    4.6461 C   0  0  2  0  0  0  0  0  0  0  0  0
   -2.4333    4.2447    5.4120 O   0  0  0  0  0  0  0  0  0  0  0  0
   -1.8750    1.8520    5.5109 C   0  0  2  0  0  0  0  0  0  0  0  0
   -2.7043    1.7627    6.6698 O   0  0  0  0  0  0  0  0  0  0  0  0
   -0.3902    2.1059    5.7992 C   0  0  2  0  0  0  0  0  0  0  0  0
    0.1301    2.6105    4.5772 O   0  0  0  0  0  0  0  0  0  0  0  0
    0.4003    0.8542    6.1978 C   0  0  0  0  0  0  0  0  0  0  0  0
   -0.0316    0.3400    7.4396 O   0  0  0  0  0  0  0  0  0  0  0  0
   -4.1038    1.7255    6.3978 C   0  0  2  0  0  0  0  0  0  0  0  0
   -4.9341    1.6479    7.6881 C   0  0  2  0  0  0  0  0  0  0  0  0
   -4.5954    2.7539    8.5991 N   0  0  0  0  0  0  0  0  0  0  0  0
   -4.7669    0.2834    8.3736 C   0  0  1  0  0  0  0  0  0  0  0  0
   -5.6170    0.2386    9.5033 O   0  0  0  0  0  0  0  0  0  0  0  0
   -5.1583   -0.8156    7.3712 C   0  0  2  0  0  0  0  0  0  0  0  0
   -4.9808   -2.0997    7.9405 O   0  0  0  0  0  0  0  0  0  0  0  0
   -4.3463   -0.6878    6.0659 C   0  0  1  0  0  0  0  0  0  0  0  0
   -4.4179    0.6365    5.5326 O   0  0  0  0  0  0  0  0  0  0  0  0
   -2.8958   -1.1742    6.2012 C   0  0  0  0  0  0  0  0  0  0  0  0
   -2.8394   -2.5725    6.6572 N   0  0  0  0  0  0  0  0  0  0  0  0
  1  3  1  0  0  0  0
  1  2  1  6  0  0  0
  3  4  1  6  0  0  0
  5  6  1  1  0  0  0
  5  3  1  0  0  0  0
  7  9  1  0  0  0  0
  7  5  1  0  0  0  0
  7  8  1  6  0  0  0
  9 10  1  0  0  0  0
  9 11  1  1  0  0  0
 10  1  1  0  0  0  0
 11 12  1  0  0  0  0
 13 14  1  6  0  0  0
 13 21  1  0  0  0  0
 15 13  1  0  0  0  0
 16 15  1  0  0  0  0
 16 18  1  0  0  0  0
 16 17  1  6  0  0  0
 18  2  1  1  0  0  0
 18 19  1  0  0  0  0
 19 21  1  0  0  0  0
 19 20  1  1  0  0  0
 21 22  1  1  0  0  0
 23 20  1  6  0  0  0
 23 29  1  0  0  0  0
 23 24  1  0  0  0  0
 24 26  1  0  0  0  0
 24 25  1  1  0  0  0
 26 27  1  1  0  0  0
 28 26  1  0  0  0  0
 28 30  1  6  0  0  0
 29 28  1  0  0  0  0
 30 31  1  0  0  0  0
 32 27  1  1  0  0  0
 32 40  1  0  0  0  0
 32 33  1  0  0  0  0
 33 35  1  0  0  0  0
 33 34  1  1  0  0  0
 35 37  1  0  0  0  0
 35 36  1  1  0  0  0
 37 38  1  1  0  0  0
 39 37  1  0  0  0  0
 39 41  1  1  0  0  0
 40 39  1  0  0  0  0
 42 41  1  0  0  0  0
M  END
>  <CHROM.1>
-165.68840962,-178.32112804,98.99473918,-167.45343126,179.18634798,-58.45981081
57.47901821,-79.28219094,-83.50484048,155.17396930,-178.25259664,-62.10528494
62.08403693,57.46622763,-179.26376363,-66.08501021,41.65830427,60.01168870
60.50899246,162.46473191,57.04759736,-64.88203175,-1.88988169,0.68430945
3.65056146,0.48719033,-1.01037446,-2.38153034

>  <Name>
lig.pdb

>  <RI>
4.11275e+07

>  <Rbt.Current_Directory>
/home/itssahil/PROJECTS/Mol_Feturizer/New_Systems/rnas/2mxs

>  <Rbt.Executable>
rbdock ($Id: //depot/dev/client3/rdock/2013.1/src/exe/rbdock.cxx#4 $)

>  <Rbt.Library>
libRbt.so (2013.1, Build901 2013/11/27)

>  <Rbt.Parameter_File>
/export/apps/rDock/src/rDock_2013.1_src/data/scripts/dock_solv.prm

>  <Rbt.Receptor>
prm/pocket_docking_8.prm

>  <SCORE>
-36.3282

>  <SCORE.INTER>
-29.989

>  <SCORE.INTER.CONST>
1

>  <SCORE.INTER.POLAR>
-4.33683

>  <SCORE.INTER.ROT>
9

>  <SCORE.INTER.SOLV>
16.9891

>  <SCORE.INTER.VDW>
-20.7996

>  <SCORE.INTER.norm>
-0.714024

>  <SCORE.INTRA>
-6.33913

>  <SCORE.INTRA.DIHEDRAL>
-16.9398

>  <SCORE.INTRA.DIHEDRAL.0>
30.1357

>  <SCORE.INTRA.POLAR>
-0.161946

>  <SCORE.INTRA.POLAR.0>
-0.631696

>  <SCORE.INTRA.REPUL>
0

>  <SCORE.INTRA.REPUL.0>
0

>  <SCORE.INTRA.SOLV>
0.279323

>  <SCORE.INTRA.SOLV.lig_0>
-55.904

>  <SCORE.INTRA.VDW>
2.54171

>  <SCORE.INTRA.VDW.0>
-8.21197

>  <SCORE.INTRA.norm>
-0.150932

>  <SCORE.RESTR>
0

>  <SCORE.RESTR.CAVITY>
0

>  <SCORE.RESTR.norm>
0

>  <SCORE.SYSTEM>
0

>  <SCORE.SYSTEM.CONST>
0

>  <SCORE.SYSTEM.DIHEDRAL>
0

>  <SCORE.SYSTEM.SOLV>
0

>  <SCORE.SYSTEM.norm>
0

>  <SCORE.heavy>
42

>  <SCORE.norm>
-0.864956

>  <RMSD>
6.400

$$$$
lig.pdb
 OpenBabel11021811453D
libRbt.so/2013.1/901 2013/11/27
 42 45  0  0  0  0  0  0  0  0999 V2000
    1.5378    1.7291    0.9760 C   0  0  2  0  0  0  0  0  0  0  0  0
    2.9213    1.6926    0.6208 O   0  0  0  0  0  0  0  0  0  0  0  0
    1.2194    0.6731    2.0452 C   0  0  2  0  0  0  0  0  0  0  0  0
    2.0976    0.8278    3.2197 N   0  0  0  0  0  0  0  0  0  0  0  0
    1.3193   -0.7438    1.4656 C   0  0  1  0  0  0  0  0  0  0  0  0
    0.8734   -1.6782    2.4298 O   0  0  0  0  0  0  0  0  0  0  0  0
    0.4540   -0.8641    0.2021 C   0  0  2  0  0  0  0  0  0  0  0  0
    0.6820   -2.1220   -0.4039 O   0  0  0  0  0  0  0  0  0  0  0  0
    0.7621    0.2635   -0.8038 C   0  0  2  0  0  0  0  0  0  0  0  0
    0.7164    1.5435   -0.1740 O   0  0  0  0  0  0  0  0  0  0  0  0
   -0.2868    0.2002   -1.9303 C   0  0  0  0  0  0  0  0  0  0  0  0
   -1.4818    0.9614   -1.6096 O   0  0  0  0  0  0  0  0  0  0  0  0
    5.0449    3.7032   -2.5381 C   0  0  2  0  0  0  0  0  0  0  0  0
    5.1646    4.2166   -3.9174 N   0  0  0  0  0  0  0  0  0  0  0  0
    4.8461    2.1855   -2.5508 C   0  0  0  0  0  0  0  0  0  0  0  0
    4.5812    1.6670   -1.1423 C   0  0  2  0  0  0  0  0  0  0  0  0
    4.4897    0.2016   -1.1504 N   0  0  0  0  0  0  0  0  0  0  0  0
    3.2855    2.3258   -0.6144 C   0  0  2  0  0  0  0  0  0  0  0  0
    3.5327    3.7912   -0.4497 C   0  0  2  0  0  0  0  0  0  0  0  0
    2.3498    4.3674    0.0730 O   0  0  0  0  0  0  0  0  0  0  0  0
    3.8934    4.4017   -1.7907 C   0  0  1  0  0  0  0  0  0  0  0  0
    4.2205    5.7742   -1.6792 O   0  0  0  0  0  0  0  0  0  0  0  0
    1.2338    4.4985   -0.8012 C   0  0  1  0  0  0  0  0  0  0  0  0
   -0.0200    4.0950   -0.0224 C   0  0  2  0  0  0  0  0  0  0  0  0
   -0.9172    3.4300   -0.8917 O   0  0  0  0  0  0  0  0  0  0  0  0
   -0.5552    5.4477    0.4663 C   0  0  2  0  0  0  0  0  0  0  0  0
   -1.9432    5.4063    0.7986 O   0  0  0  0  0  0  0  0  0  0  0  0
   -0.2082    6.3238   -0.7437 C   0  0  2  0  0  0  0  0  0  0  0  0
    1.0684    5.8634   -1.1641 O   0  0  0  0  0  0  0  0  0  0  0  0
   -0.1201    7.8230   -0.4353 C   0  0  0  0  0  0  0  0  0  0  0  0
    0.9602    8.4304   -1.1114 O   0  0  0  0  0  0  0  0  0  0  0  0
   -2.3355    4.2749    1.5733 C   0  0  2  0  0  0  0  0  0  0  0  0
   -3.7654    4.4224    2.1153 C   0  0  2  0  0  0  0  0  0  0  0  0
   -4.7184    4.6791    1.0227 N   0  0  0  0  0  0  0  0  0  0  0  0
   -3.8395    5.5134    3.1941 C   0  0  1  0  0  0  0  0  0  0  0  0
   -5.1541    5.5445    3.7151 O   0  0  0  0  0  0  0  0  0  0  0  0
   -2.8359    5.1660    4.3068 C   0  0  2  0  0  0  0  0  0  0  0  0
   -2.8331    6.1657    5.3093 O   0  0  0  0  0  0  0  0  0  0  0  0
   -1.4173    4.9753    3.7318 C   0  0  1  0  0  0  0  0  0  0  0  0
   -1.4150    4.0534    2.6394 O   0  0  0  0  0  0  0  0  0  0  0  0
   -0.7250    6.2972    3.3683 C   0  0  0  0  0  0  0  0  0  0  0  0
   -0.5528    7.1554    4.5516 N   0  0  0  0  0  0  0  0  0  0  0  0
  1  3  1  0  0  0  0
  1  2  1  6  0  0  0
  3  4  1  1  0  0  0
  5  6  1  1  0  0  0
  5  3  1  0  0  0  0
  7  9  1  0  0  0  0
  7  5  1  0  0  0  0
  7  8  1  6  0  0  0
  9 10  1  0  0  0  0
  9 11  1  6  0  0  0
 10  1  1  0  0  0  0
 11 12  1  0  0  0  0
 13 14  1  6  0  0  0
 13 21  1  0  0  0  0
 15 13  1  0  0  0  0
 16 15  1  0  0  0  0
 16 18  1  0  0  0  0
 16 17  1  6  0  0  0
 18  2  1  1  0  0  0
 18 19  1  0  0  0  0
 19 21  1  0  0  0  0
 19 20  1  6  0  0  0
 21 22  1  1  0  0  0
 23 20  1  1  0  0  0
 23 29  1  0  0  0  0
 23 24  1  0  0  0  0
 24 26  1  0  0  0  0
 24 25  1  6  0  0  0
 26 27  1  6  0  0  0
 28 26  1  0  0  0  0
 28 30  1  1  0  0  0
 29 28  1  0  0  0  0
 30 31  1  0  0  0  0
 32 27  1  1  0  0  0
 32 40  1  0  0  0  0
 32 33  1  0  0  0  0
 33 35  1  0  0  0  0
 33 34  1  6  0  0  0
 35 37  1  0  0  0  0
 35 36  1  1  0  0  0
 37 38  1  1  0  0  0
 39 37  1  0  0  0  0
 39 41  1  6  0  0  0
 40 39  1  0  0  0  0
 42 41  1  0  0  0  0
M  END
>  <CHROM.1>
-154.41214414,162.22705677,89.12427828,153.03278525,83.33223408,-179.88819756
87.23937394,-99.39946656,67.33486913,-72.95143986,137.67204736,-68.40825983
77.67507023,45.06652677,169.30067060,139.58103771,-43.14230167,67.38411287
-176.34589488,176.21309568,61.45669927,177.45364080,0.50768280,3.44894169
0.53316811,0.42835035,-0.64877654,3.03045844

>  <Name>
lig.pdb

>  <RI>
0

>  <Rbt.Current_Directory>
/home/itssahil/PROJECTS/Mol_Feturizer/New_Systems/rnas/2mxs

>  <Rbt.Executable>
rbdock ($Id: //depot/dev/client3/rdock/2013.1/src/exe/rbdock.cxx#4 $)

>  <Rbt.Library>
libRbt.so (2013.1, Build901 2013/11/27)

>  <Rbt.Parameter_File>
/export/apps/rDock/src/rDock_2013.1_src/data/scripts/dock_solv.prm

>  <Rbt.Receptor>
prm/blind_docking_20.prm

>  <SCORE>
23.8319

>  <SCORE.INTER>
4.85316

>  <SCORE.INTER.CONST>
1

>  <SCORE.INTER.POLAR>
-1.96789

>  <SCORE.INTER.ROT>
9

>  <SCORE.INTER.SOLV>
33.3715

>  <SCORE.INTER.VDW>
-10.9288

>  <SCORE.INTER.norm>
0.115551

>  <SCORE.INTRA>
4.77998

>  <SCORE.INTRA.DIHEDRAL>
2.3806

>  <SCORE.INTRA.DIHEDRAL.0>
30.1357

>  <SCORE.INTRA.POLAR>
-1.24646

>  <SCORE.INTRA.POLAR.0>
-0.631696

>  <SCORE.INTRA.REPUL>
0

>  <SCORE.INTRA.REPUL.0>
0

>  <SCORE.INTRA.SOLV>
1.67167

>  <SCORE.INTRA.SOLV.lig_0>
-55.904

>  <SCORE.INTRA.VDW>
6.9918

>  <SCORE.INTRA.VDW.0>
-8.21197

>  <SCORE.INTRA.norm>
0.113809

>  <SCORE.RESTR>
14.1987

>  <SCORE.RESTR.CAVITY>
14.1987

>  <SCORE.RESTR.norm>
0.338065

>  <SCORE.SYSTEM>
0

>  <SCORE.SYSTEM.CONST>
0

>  <SCORE.SYSTEM.DIHEDRAL>
0

>  <SCORE.SYSTEM.SOLV>
0

>  <SCORE.SYSTEM.norm>
0

>  <SCORE.heavy>
42

>  <SCORE.norm>
0.567425

>  <RMSD>
6.436

$$$$
lig.pdb
 OpenBabel11021811453D
libRbt.so/2013.1/901 2013/11/27
 42 45  0  0  0  0  0  0  0  0999 V2000
    0.7856    0.7828   -1.6021 C   0  0  2  0  0  0  0  0  0  0  0  0
    1.1346    2.1036   -1.1834 O   0  0  0  0  0  0  0  0  0  0  0  0
   -0.7254    0.5452   -1.4600 C   0  0  2  0  0  0  0  0  0  0  0  0
   -1.4934    1.5766   -2.1817 N   0  0  0  0  0  0  0  0  0  0  0  0
   -1.1361    0.4853    0.0169 C   0  0  1  0  0  0  0  0  0  0  0  0
   -2.4983    0.1149    0.1109 O   0  0  0  0  0  0  0  0  0  0  0  0
   -0.2762   -0.5430    0.7671 C   0  0  2  0  0  0  0  0  0  0  0  0
   -0.5597   -0.4702    2.1512 O   0  0  0  0  0  0  0  0  0  0  0  0
    1.2285   -0.3031    0.5291 C   0  0  2  0  0  0  0  0  0  0  0  0
    1.5192   -0.1910   -0.8637 O   0  0  0  0  0  0  0  0  0  0  0  0
    2.0037   -1.4919    1.1284 C   0  0  0  0  0  0  0  0  0  0  0  0
    3.4141   -1.1926    1.3058 O   0  0  0  0  0  0  0  0  0  0  0  0
    4.7872    4.2853   -1.8391 C   0  0  2  0  0  0  0  0  0  0  0  0
    5.9755    4.6419   -2.6397 N   0  0  0  0  0  0  0  0  0  0  0  0
    4.7993    2.7914   -1.5054 C   0  0  0  0  0  0  0  0  0  0  0  0
    3.5090    2.3880   -0.8017 C   0  0  2  0  0  0  0  0  0  0  0  0
    3.5710    0.9776   -0.3985 N   0  0  0  0  0  0  0  0  0  0  0  0
    2.3241    2.6668   -1.7555 C   0  0  2  0  0  0  0  0  0  0  0  0
    2.2136    4.1446   -1.9539 C   0  0  2  0  0  0  0  0  0  0  0  0
    1.0994    4.3801   -2.7950 O   0  0  0  0  0  0  0  0  0  0  0  0
    3.4919    4.6727   -2.5771 C   0  0  1  0  0  0  0  0  0  0  0  0
    3.4756    6.0816   -2.7106 O   0  0  0  0  0  0  0  0  0  0  0  0
    0.2026    5.4242   -2.4308 C   0  0  1  0  0  0  0  0  0  0  0  0
   -0.3766    5.0845   -1.0559 C   0  0  2  0  0  0  0  0  0  0  0  0
   -1.7254    5.5093   -0.9982 O   0  0  0  0  0  0  0  0  0  0  0  0
    0.5380    5.8720   -0.1080 C   0  0  2  0  0  0  0  0  0  0  0  0
   -0.0611    6.1135    1.1653 O   0  0  0  0  0  0  0  0  0  0  0  0
    0.7802    7.1277   -0.9547 C   0  0  2  0  0  0  0  0  0  0  0  0
    0.9217    6.6420   -2.2823 O   0  0  0  0  0  0  0  0  0  0  0  0
    2.0405    7.9137   -0.5751 C   0  0  0  0  0  0  0  0  0  0  0  0
    2.5896    8.5855   -1.6888 O   0  0  0  0  0  0  0  0  0  0  0  0
    0.0172    5.0190    2.0763 C   0  0  2  0  0  0  0  0  0  0  0  0
   -1.3380    4.3141    2.2393 C   0  0  2  0  0  0  0  0  0  0  0  0
   -1.8694    3.8869    0.9342 N   0  0  0  0  0  0  0  0  0  0  0  0
   -2.3395    5.2047    2.9899 C   0  0  1  0  0  0  0  0  0  0  0  0
   -3.5349    4.4744    3.1856 O   0  0  0  0  0  0  0  0  0  0  0  0
   -1.7254    5.5906    4.3463 C   0  0  2  0  0  0  0  0  0  0  0  0
   -2.5929    6.4498    5.0630 O   0  0  0  0  0  0  0  0  0  0  0  0
   -0.3445    6.2524    4.1598 C   0  0  1  0  0  0  0  0  0  0  0  0
    0.5123    5.4532    3.3409 O   0  0  0  0  0  0  0  0  0  0  0  0
   -0.4269    7.7023    3.6600 C   0  0  0  0  0  0  0  0  0  0  0  0
   -1.2266    8.5384    4.5698 N   0  0  0  0  0  0  0  0  0  0  0  0
  1  3  1  0  0  0  0
  1  2  1  1  0  0  0
  3  4  1  6  0  0  0
  5  6  1  6  0  0  0
  5  3  1  0  0  0  0
  7  9  1  0  0  0  0
  7  5  1  0  0  0  0
  7  8  1  1  0  0  0
  9 10  1  0  0  0  0
  9 11  1  6  0  0  0
 10  1  1  0  0  0  0
 11 12  1  0  0  0  0
 13 14  1  6  0  0  0
 13 21  1  0  0  0  0
 15 13  1  0  0  0  0
 16 15  1  0  0  0  0
 16 18  1  0  0  0  0
 16 17  1  6  0  0  0
 18  2  1  1  0  0  0
 18 19  1  0  0  0  0
 19 21  1  0  0  0  0
 19 20  1  6  0  0  0
 21 22  1  1  0  0  0
 23 20  1  1  0  0  0
 23 29  1  0  0  0  0
 23 24  1  0  0  0  0
 24 26  1  0  0  0  0
 24 25  1  6  0  0  0
 26 27  1  1  0  0  0
 28 26  1  0  0  0  0
 28 30  1  1  0  0  0
 29 28  1  0  0  0  0
 30 31  1  0  0  0  0
 32 27  1  6  0  0  0
 32 40  1  0  0  0  0
 32 33  1  0  0  0  0
 33 35  1  0  0  0  0
 33 34  1  6  0  0  0
 35 37  1  0  0  0  0
 35 36  1  1  0  0  0
 37 38  1  6  0  0  0
 39 37  1  0  0  0  0
 39 41  1  6  0  0  0
 40 39  1  0  0  0  0
 42 41  1  0  0  0  0
M  END
>  <CHROM.1>
-93.95496716,-154.39540418,-70.79231912,-173.04838570,-65.89727266,60.41668213
-163.32546904,-133.17921489,146.33176784,135.04107247,-60.48688123,-55.94334752
-82.24831589,81.20521095,-105.97993423,150.14768894,60.36320105,175.74445123
-78.64976177,74.76948113,57.30331858,-54.68159578,0.65938567,3.81508813,0.19144099
0.80749653,-0.78466465,-3.07416135

>  <Name>
lig.pdb

>  <RI>
0

>  <Rbt.Current_Directory>
/home/itssahil/PROJECTS/Mol_Feturizer/New_Systems/rnas/2mxs

>  <Rbt.Executable>
rbdock ($Id: //depot/dev/client3/rdock/2013.1/src/exe/rbdock.cxx#4 $)

>  <Rbt.Library>
libRbt.so (2013.1, Build901 2013/11/27)

>  <Rbt.Parameter_File>
/export/apps/rDock/src/rDock_2013.1_src/data/scripts/dock_solv.prm

>  <Rbt.Receptor>
prm/blind_docking_60.prm

>  <SCORE>
58.813

>  <SCORE.INTER>
23.3755

>  <SCORE.INTER.CONST>
1

>  <SCORE.INTER.POLAR>
-4.81091

>  <SCORE.INTER.ROT>
9

>  <SCORE.INTER.SOLV>
28.5055

>  <SCORE.INTER.VDW>
12.5182

>  <SCORE.INTER.norm>
0.55656

>  <SCORE.INTRA>
10.6949

>  <SCORE.INTRA.DIHEDRAL>
6.5864

>  <SCORE.INTRA.DIHEDRAL.0>
30.1357

>  <SCORE.INTRA.POLAR>
-1.01715

>  <SCORE.INTRA.POLAR.0>
-0.631696

>  <SCORE.INTRA.REPUL>
0.0476489

>  <SCORE.INTRA.REPUL.0>
0

>  <SCORE.INTRA.SOLV>
4.22245

>  <SCORE.INTRA.SOLV.lig_0>
-55.904

>  <SCORE.INTRA.VDW>
8.5105

>  <SCORE.INTRA.VDW.0>
-8.21197

>  <SCORE.INTRA.norm>
0.25464

>  <SCORE.RESTR>
24.7426

>  <SCORE.RESTR.CAVITY>
24.7426

>  <SCORE.RESTR.norm>
0.58911

>  <SCORE.SYSTEM>
0

>  <SCORE.SYSTEM.CONST>
0

>  <SCORE.SYSTEM.DIHEDRAL>
0

>  <SCORE.SYSTEM.SOLV>
0

>  <SCORE.SYSTEM.norm>
0

>  <SCORE.heavy>
42

>  <SCORE.norm>
1.40031

>  <RMSD>
6.448

$$$$
lig.pdb
 OpenBabel11021811453D
libRbt.so/2013.1/901 2013/11/27
 42 45  0  0  0  0  0  0  0  0999 V2000
    0.0223    1.8839    4.9883 C   0  0  2  0  0  0  0  0  0  0  0  0
    1.2320    1.5469    4.3067 O   0  0  0  0  0  0  0  0  0  0  0  0
    0.2944    2.1838    6.4701 C   0  0  2  0  0  0  0  0  0  0  0  0
    1.3237    3.2294    6.6179 N   0  0  0  0  0  0  0  0  0  0  0  0
    0.6918    0.9089    7.2252 C   0  0  1  0  0  0  0  0  0  0  0  0
    0.7849    1.1920    8.6082 O   0  0  0  0  0  0  0  0  0  0  0  0
   -0.3564   -0.1913    7.0003 C   0  0  2  0  0  0  0  0  0  0  0  0
    0.1046   -1.4011    7.5707 O   0  0  0  0  0  0  0  0  0  0  0  0
   -0.6458   -0.3985    5.4998 C   0  0  2  0  0  0  0  0  0  0  0  0
   -0.9396    0.8405    4.8550 O   0  0  0  0  0  0  0  0  0  0  0  0
   -1.8502   -1.3504    5.3713 C   0  0  0  0  0  0  0  0  0  0  0  0
   -1.8950   -2.0053    4.0754 O   0  0  0  0  0  0  0  0  0  0  0  0
    1.9773   -0.3201    0.5002 C   0  0  2  0  0  0  0  0  0  0  0  0
    1.5356   -0.9172   -0.7760 N   0  0  0  0  0  0  0  0  0  0  0  0
    1.4154   -1.1145    1.6818 C   0  0  0  0  0  0  0  0  0  0  0  0
    1.7489   -0.4249    2.9995 C   0  0  2  0  0  0  0  0  0  0  0  0
    1.2921   -1.2433    4.1297 N   0  0  0  0  0  0  0  0  0  0  0  0
    1.0954    0.9766    2.9970 C   0  0  2  0  0  0  0  0  0  0  0  0
    1.7585    1.8063    1.9447 C   0  0  2  0  0  0  0  0  0  0  0  0
    1.1751    3.0957    1.9874 O   0  0  0  0  0  0  0  0  0  0  0  0
    1.5614    1.1605    0.5863 C   0  0  1  0  0  0  0  0  0  0  0  0
    2.2412    1.8606   -0.4388 O   0  0  0  0  0  0  0  0  0  0  0  0
    0.1655    3.3987    1.0306 C   0  0  1  0  0  0  0  0  0  0  0  0
   -1.1851    3.3634    1.7490 C   0  0  2  0  0  0  0  0  0  0  0  0
   -2.1681    2.8451    0.8726 O   0  0  0  0  0  0  0  0  0  0  0  0
   -1.4140    4.8408    2.0954 C   0  0  2  0  0  0  0  0  0  0  0  0
   -2.7883    5.1470    2.3329 O   0  0  0  0  0  0  0  0  0  0  0  0
   -0.8125    5.5023    0.8493 C   0  0  2  0  0  0  0  0  0  0  0  0
    0.3410    4.7271    0.5545 O   0  0  0  0  0  0  0  0  0  0  0  0
   -0.3930    6.9634    1.0484 C   0  0  0  0  0  0  0  0  0  0  0  0
   -0.1170    7.5975   -0.1824 O   0  0  0  0  0  0  0  0  0  0  0  0
   -3.4789    4.1941    3.1385 C   0  0  2  0  0  0  0  0  0  0  0  0
   -4.6856    4.8199    3.8544 C   0  0  2  0  0  0  0  0  0  0  0  0
   -5.5935    5.4638    2.8906 N   0  0  0  0  0  0  0  0  0  0  0  0
   -4.2344    5.8029    4.9452 C   0  0  1  0  0  0  0  0  0  0  0  0
   -5.3796    6.2798    5.6249 O   0  0  0  0  0  0  0  0  0  0  0  0
   -3.3108    5.0552    5.9218 C   0  0  2  0  0  0  0  0  0  0  0  0
   -2.8305    5.9295    6.9265 O   0  0  0  0  0  0  0  0  0  0  0  0
   -2.1340    4.3951    5.1741 C   0  0  1  0  0  0  0  0  0  0  0  0
   -2.5911    3.5962    4.0805 O   0  0  0  0  0  0  0  0  0  0  0  0
   -1.0507    5.3940    4.7414 C   0  0  0  0  0  0  0  0  0  0  0  0
    0.1808    4.7030    4.3264 N   0  0  0  0  0  0  0  0  0  0  0  0
  1  3  1  0  0  0  0
  1  2  1  1  0  0  0
  3  4  1  6  0  0  0
  5  6  1  1  0  0  0
  5  3  1  0  0  0  0
  7  9  1  0  0  0  0
  7  5  1  0  0  0  0
  7  8  1  6  0  0  0
  9 10  1  0  0  0  0
  9 11  1  1  0  0  0
 10  1  1  0  0  0  0
 11 12  1  0  0  0  0
 13 14  1  6  0  0  0
 13 21  1  0  0  0  0
 15 13  1  0  0  0  0
 16 15  1  0  0  0  0
 16 18  1  0  0  0  0
 16 17  1  1  0  0  0
 18  2  1  1  0  0  0
 18 19  1  0  0  0  0
 19 21  1  0  0  0  0
 19 20  1  6  0  0  0
 21 22  1  6  0  0  0
 23 20  1  1  0  0  0
 23 29  1  0  0  0  0
 23 24  1  0  0  0  0
 24 26  1  0  0  0  0
 24 25  1  6  0  0  0
 26 27  1  6  0  0  0
 28 26  1  0  0  0  0
 28 30  1  1  0  0  0
 29 28  1  0  0  0  0
 30 31  1  0  0  0  0
 32 27  1  1  0  0  0
 32 40  1  0  0  0  0
 32 33  1  0  0  0  0
 33 35  1  0  0  0  0
 33 34  1  6  0  0  0
 35 37  1  0  0  0  0
 35 36  1  1  0  0  0
 37 38  1  1  0  0  0
 39 37  1  0  0  0  0
 39 41  1  6  0  0  0
 40 39  1  0  0  0  0
 42 41  1  0  0  0  0
M  END
>  <CHROM.1>
-120.34226973,167.41764617,128.47919755,178.29293032,-54.34613037,68.60257474
-158.16161615,153.94961292,-109.07928848,-99.29156987,104.75338744,77.79634146
161.62551969,43.78410548,155.17701484,-167.49119966,86.23856526,158.64055622
-176.84524761,-60.23472032,166.52441161,-76.64856940,-0.69292592,2.65712263
3.57888990,0.53814887,-0.90967531,2.15118066

>  <Name>
lig.pdb

>  <RI>
0

>  <Rbt.Current_Directory>
/home/itssahil/PROJECTS/Mol_Feturizer/New_Systems/rnas/2mxs

>  <Rbt.Executable>
rbdock ($Id: //depot/dev/client3/rdock/2013.1/src/exe/rbdock.cxx#4 $)

>  <Rbt.Library>
libRbt.so (2013.1, Build901 2013/11/27)

>  <Rbt.Parameter_File>
/export/apps/rDock/src/rDock_2013.1_src/data/scripts/dock_solv.prm

>  <Rbt.Receptor>
prm/blind_docking_80.prm

>  <SCORE>
39.7571

>  <SCORE.INTER>
-21.218

>  <SCORE.INTER.CONST>
1

>  <SCORE.INTER.POLAR>
-6.36964

>  <SCORE.INTER.ROT>
9

>  <SCORE.INTER.SOLV>
26.363

>  <SCORE.INTER.VDW>
-11.3008

>  <SCORE.INTER.norm>
-0.50519

>  <SCORE.INTRA>
40.6082

>  <SCORE.INTRA.DIHEDRAL>
12.597

>  <SCORE.INTRA.DIHEDRAL.0>
30.1357

>  <SCORE.INTRA.POLAR>
0.33263

>  <SCORE.INTRA.POLAR.0>
-0.631696

>  <SCORE.INTRA.REPUL>
0.358696

>  <SCORE.INTRA.REPUL.0>
0

>  <SCORE.INTRA.SOLV>
2.48351

>  <SCORE.INTRA.SOLV.lig_0>
-55.904

>  <SCORE.INTRA.VDW>
30.1435

>  <SCORE.INTRA.VDW.0>
-8.21197

>  <SCORE.INTRA.norm>
0.966861

>  <SCORE.RESTR>
20.3669

>  <SCORE.RESTR.CAVITY>
20.3669

>  <SCORE.RESTR.norm>
0.484926

>  <SCORE.SYSTEM>
0

>  <SCORE.SYSTEM.CONST>
0

>  <SCORE.SYSTEM.DIHEDRAL>
0

>  <SCORE.SYSTEM.SOLV>
0

>  <SCORE.SYSTEM.norm>
0

>  <SCORE.heavy>
42

>  <SCORE.norm>
0.946598

>  <RMSD>
6.449

$$$$
lig.pdb
 OpenBabel11021811453D
libRbt.so/2013.1/901 2013/11/27
 42 45  0  0  0  0  0  0  0  0999 V2000
    2.6703    0.5020    0.5366 C   0  0  2  0  0  0  0  0  0  0  0  0
    2.9437    1.9043    0.5574 O   0  0  0  0  0  0  0  0  0  0  0  0
    1.1821    0.2388    0.2618 C   0  0  2  0  0  0  0  0  0  0  0  0
    0.7468    0.9068   -0.9786 N   0  0  0  0  0  0  0  0  0  0  0  0
    0.3179    0.6718    1.4531 C   0  0  1  0  0  0  0  0  0  0  0  0
   -1.0220    0.2764    1.2297 O   0  0  0  0  0  0  0  0  0  0  0  0
    0.8312    0.0221    2.7470 C   0  0  2  0  0  0  0  0  0  0  0  0
    0.1248    0.5547    3.8509 O   0  0  0  0  0  0  0  0  0  0  0  0
    2.3443    0.2538    2.9345 C   0  0  2  0  0  0  0  0  0  0  0  0
    3.0712   -0.1084    1.7608 O   0  0  0  0  0  0  0  0  0  0  0  0
    2.8164   -0.6037    4.1241 C   0  0  0  0  0  0  0  0  0  0  0  0
    4.2371   -0.4465    4.3830 O   0  0  0  0  0  0  0  0  0  0  0  0
    5.0908    3.7970   -2.6580 C   0  0  2  0  0  0  0  0  0  0  0  0
    5.2094    4.2854   -4.0464 N   0  0  0  0  0  0  0  0  0  0  0  0
    4.8428    2.2866   -2.6447 C   0  0  0  0  0  0  0  0  0  0  0  0
    4.5793    1.7982   -1.2253 C   0  0  2  0  0  0  0  0  0  0  0  0
    4.4403    0.3366   -1.2097 N   0  0  0  0  0  0  0  0  0  0  0  0
    3.3125    2.5067   -0.6918 C   0  0  2  0  0  0  0  0  0  0  0  0
    3.6090    3.9655   -0.5527 C   0  0  2  0  0  0  0  0  0  0  0  0
    2.4521    4.5877   -0.0245 O   0  0  0  0  0  0  0  0  0  0  0  0
    3.9722    4.5438   -1.9074 C   0  0  1  0  0  0  0  0  0  0  0  0
    4.3448    5.9064   -1.8210 O   0  0  0  0  0  0  0  0  0  0  0  0
    1.2867    4.6231   -0.8415 C   0  0  1  0  0  0  0  0  0  0  0  0
    0.0970    4.1994    0.0225 C   0  0  2  0  0  0  0  0  0  0  0  0
   -0.8102    3.4511   -0.7648 O   0  0  0  0  0  0  0  0  0  0  0  0
   -0.4784    5.5476    0.4768 C   0  0  2  0  0  0  0  0  0  0  0  0
   -1.8434    5.4569    0.8860 O   0  0  0  0  0  0  0  0  0  0  0  0
   -0.2393    6.3789   -0.7896 C   0  0  2  0  0  0  0  0  0  0  0  0
    1.0348    5.9594   -1.2575 O   0  0  0  0  0  0  0  0  0  0  0  0
   -0.2100    7.8939   -0.5561 C   0  0  0  0  0  0  0  0  0  0  0  0
    1.1119    8.3877   -0.5117 O   0  0  0  0  0  0  0  0  0  0  0  0
   -2.1357    4.3528    1.7403 C   0  0  2  0  0  0  0  0  0  0  0  0
   -3.5377    4.4651    2.3584 C   0  0  2  0  0  0  0  0  0  0  0  0
   -4.5630    4.6187    1.3128 N   0  0  0  0  0  0  0  0  0  0  0  0
   -3.6023    5.6089    3.3817 C   0  0  1  0  0  0  0  0  0  0  0  0
   -4.8850    5.6091    3.9781 O   0  0  0  0  0  0  0  0  0  0  0  0
   -2.5212    5.3682    4.4490 C   0  0  2  0  0  0  0  0  0  0  0  0
   -2.5091    6.4201    5.3965 O   0  0  0  0  0  0  0  0  0  0  0  0
   -1.1302    5.2105    3.8009 C   0  0  1  0  0  0  0  0  0  0  0  0
   -1.1461    4.2315    2.7595 O   0  0  0  0  0  0  0  0  0  0  0  0
   -0.5243    6.5405    3.3288 C   0  0  0  0  0  0  0  0  0  0  0  0
   -1.5723    7.5111    2.9740 N   0  0  0  0  0  0  0  0  0  0  0  0
  1  3  1  0  0  0  0
  1  2  1  1  0  0  0
  3  4  1  6  0  0  0
  5  6  1  6  0  0  0
  5  3  1  0  0  0  0
  7  9  1  0  0  0  0
  7  5  1  0  0  0  0
  7  8  1  1  0  0  0
  9 10  1  0  0  0  0
  9 11  1  1  0  0  0
 10  1  1  0  0  0  0
 11 12  1  0  0  0  0
 13 14  1  6  0  0  0
 13 21  1  0  0  0  0
 15 13  1  0  0  0  0
 16 15  1  0  0  0  0
 16 18  1  0  0  0  0
 16 17  1  6  0  0  0
 18  2  1  1  0  0  0
 18 19  1  0  0  0  0
 19 21  1  0  0  0  0
 19 20  1  6  0  0  0
 21 22  1  1  0  0  0
 23 20  1  1  0  0  0
 23 29  1  0  0  0  0
 23 24  1  0  0  0  0
 24 26  1  0  0  0  0
 24 25  1  6  0  0  0
 26 27  1  6  0  0  0
 28 26  1  0  0  0  0
 28 30  1  1  0  0  0
 29 28  1  0  0  0  0
 30 31  1  0  0  0  0
 32 27  1  1  0  0  0
 32 40  1  0  0  0  0
 32 33  1  0  0  0  0
 33 35  1  0  0  0  0
 33 34  1  6  0  0  0
 35 37  1  0  0  0  0
 35 36  1  1  0  0  0
 37 38  1  1  0  0  0
 39 37  1  0  0  0  0
 39 41  1  6  0  0  0
 40 39  1  0  0  0  0
 42 41  1  0  0  0  0
M  END
>  <CHROM.1>
-58.65177424,-90.37190073,166.40361336,70.34504951,85.82486350,-169.05567115
-179.75149904,28.38897095,-179.93180704,-66.84235390,133.68586134,-52.08213348
-77.04749404,45.49841850,168.91231630,100.72091820,83.52408282,52.41965137
73.77166457,78.15198989,-28.33885866,-63.66626547,0.78213943,3.58406356,0.91678005
0.13210611,-0.65855760,2.57927792

>  <Name>
lig.pdb

>  <RI>
0

>  <Rbt.Current_Directory>
/home/itssahil/PROJECTS/Mol_Feturizer/New_Systems/rnas/2mxs

>  <Rbt.Executable>
rbdock ($Id: //depot/dev/client3/rdock/2013.1/src/exe/rbdock.cxx#4 $)

>  <Rbt.Library>
libRbt.so (2013.1, Build901 2013/11/27)

>  <Rbt.Parameter_File>
/export/apps/rDock/src/rDock_2013.1_src/data/scripts/dock_solv.prm

>  <Rbt.Receptor>
prm/blind_docking_20.prm

>  <SCORE>
10.8541

>  <SCORE.INTER>
-14.8917

>  <SCORE.INTER.CONST>
1

>  <SCORE.INTER.POLAR>
-4.26071

>  <SCORE.INTER.ROT>
9

>  <SCORE.INTER.SOLV>
32.5634

>  <SCORE.INTER.VDW>
-16.1799

>  <SCORE.INTER.norm>
-0.354564

>  <SCORE.INTRA>
13.6413

>  <SCORE.INTRA.DIHEDRAL>
1.87381

>  <SCORE.INTRA.DIHEDRAL.0>
30.1357

>  <SCORE.INTRA.POLAR>
-1.48663

>  <SCORE.INTRA.POLAR.0>
-0.631696

>  <SCORE.INTRA.REPUL>
0.0699702

>  <SCORE.INTRA.REPUL.0>
0

>  <SCORE.INTRA.SOLV>
2.08836

>  <SCORE.INTRA.SOLV.lig_0>
-55.904

>  <SCORE.INTRA.VDW>
16.3649

>  <SCORE.INTRA.VDW.0>
-8.21197

>  <SCORE.INTRA.norm>
0.324793

>  <SCORE.RESTR>
12.1045

>  <SCORE.RESTR.CAVITY>
12.1045

>  <SCORE.RESTR.norm>
0.288203

>  <SCORE.SYSTEM>
0

>  <SCORE.SYSTEM.CONST>
0

>  <SCORE.SYSTEM.DIHEDRAL>
0

>  <SCORE.SYSTEM.SOLV>
0

>  <SCORE.SYSTEM.norm>
0

>  <SCORE.heavy>
42

>  <SCORE.norm>
0.258432

>  <RMSD>
6.472

$$$$
lig.pdb
 OpenBabel11021811453D
libRbt.so/2013.1/901 2013/11/27
 42 45  0  0  0  0  0  0  0  0999 V2000
    1.4010    1.7460    1.0647 C   0  0  2  0  0  0  0  0  0  0  0  0
    2.7979    1.7635    0.7651 O   0  0  0  0  0  0  0  0  0  0  0  0
    1.0861    0.6996    2.1444 C   0  0  2  0  0  0  0  0  0  0  0  0
    1.9087    0.9178    3.3486 N   0  0  0  0  0  0  0  0  0  0  0  0
    1.2707   -0.7233    1.6015 C   0  0  1  0  0  0  0  0  0  0  0  0
    0.8274   -1.6561    2.5685 O   0  0  0  0  0  0  0  0  0  0  0  0
    0.4630   -0.9084    0.3081 C   0  0  2  0  0  0  0  0  0  0  0  0
    0.7697   -2.1674   -0.2597 O   0  0  0  0  0  0  0  0  0  0  0  0
    0.7620    0.2104   -0.7104 C   0  0  2  0  0  0  0  0  0  0  0  0
    0.6354    1.5000   -0.1122 O   0  0  0  0  0  0  0  0  0  0  0  0
   -0.2370    0.0769   -1.8755 C   0  0  0  0  0  0  0  0  0  0  0  0
    0.1126    0.9310   -2.9973 O   0  0  0  0  0  0  0  0  0  0  0  0
    4.9789    3.6216   -2.4476 C   0  0  2  0  0  0  0  0  0  0  0  0
    5.1132    4.0928   -3.8406 N   0  0  0  0  0  0  0  0  0  0  0  0
    4.7349    2.1107   -2.4183 C   0  0  0  0  0  0  0  0  0  0  0  0
    4.4554    1.6395   -0.9961 C   0  0  2  0  0  0  0  0  0  0  0  0
    4.3201    0.1778   -0.9637 N   0  0  0  0  0  0  0  0  0  0  0  0
    3.1802    2.3511   -0.4871 C   0  0  2  0  0  0  0  0  0  0  0  0
    3.4712    3.8124   -0.3629 C   0  0  2  0  0  0  0  0  0  0  0  0
    2.3062    4.4379    0.1433 O   0  0  0  0  0  0  0  0  0  0  0  0
    3.8492    4.3746   -1.7202 C   0  0  1  0  0  0  0  0  0  0  0  0
    4.2171    5.7392   -1.6466 O   0  0  0  0  0  0  0  0  0  0  0  0
    1.2602    4.7342   -0.7758 C   0  0  1  0  0  0  0  0  0  0  0  0
   -0.0661    4.3583   -0.1116 C   0  0  2  0  0  0  0  0  0  0  0  0
   -0.9513    3.8470   -1.0903 O   0  0  0  0  0  0  0  0  0  0  0  0
   -0.5336    5.6974    0.4744 C   0  0  2  0  0  0  0  0  0  0  0  0
   -1.9394    5.7323    0.7222 O   0  0  0  0  0  0  0  0  0  0  0  0
   -0.0491    6.6518   -0.6239 C   0  0  2  0  0  0  0  0  0  0  0  0
    1.2156    6.1355   -1.0140 O   0  0  0  0  0  0  0  0  0  0  0  0
    0.1256    8.1051   -0.1679 C   0  0  0  0  0  0  0  0  0  0  0  0
   -0.8302    8.4625    0.8077 O   0  0  0  0  0  0  0  0  0  0  0  0
   -2.4777    4.5273    1.2628 C   0  0  2  0  0  0  0  0  0  0  0  0
   -3.9592    4.6824    1.6387 C   0  0  2  0  0  0  0  0  0  0  0  0
   -4.7480    5.1515    0.4873 N   0  0  0  0  0  0  0  0  0  0  0  0
   -4.1292    5.6093    2.8518 C   0  0  1  0  0  0  0  0  0  0  0  0
   -5.4987    5.6455    3.2040 O   0  0  0  0  0  0  0  0  0  0  0  0
   -3.2969    5.0448    4.0156 C   0  0  2  0  0  0  0  0  0  0  0  0
   -3.3845    5.8877    5.1497 O   0  0  0  0  0  0  0  0  0  0  0  0
   -1.8240    4.8524    3.5995 C   0  0  1  0  0  0  0  0  0  0  0  0
   -1.7162    4.0989    2.3896 O   0  0  0  0  0  0  0  0  0  0  0  0
   -1.0348    6.1680    3.5281 C   0  0  0  0  0  0  0  0  0  0  0  0
    0.1470    6.1326    4.4047 N   0  0  0  0  0  0  0  0  0  0  0  0
  1  3  1  0  0  0  0
  1  2  1  6  0  0  0
  3  4  1  1  0  0  0
  5  6  1  1  0  0  0
  5  3  1  0  0  0  0
  7  9  1  0  0  0  0
  7  5  1  0  0  0  0
  7  8  1  6  0  0  0
  9 10  1  0  0  0  0
  9 11  1  6  0  0  0
 10  1  1  0  0  0  0
 11 12  1  0  0  0  0
 13 14  1  6  0  0  0
 13 21  1  0  0  0  0
 15 13  1  0  0  0  0
 16 15  1  0  0  0  0
 16 18  1  0  0  0  0
 16 17  1  6  0  0  0
 18  2  1  1  0  0  0
 18 19  1  0  0  0  0
 19 21  1  0  0  0  0
 19 20  1  6  0  0  0
 21 22  1  1  0  0  0
 23 20  1  1  0  0  0
 23 29  1  0  0  0  0
 23 24  1  0  0  0  0
 24 26  1  0  0  0  0
 24 25  1  6  0  0  0
 26 27  1  6  0  0  0
 28 26  1  0  0  0  0
 28 30  1  1  0  0  0
 29 28  1  0  0  0  0
 30 31  1  0  0  0  0
 32 27  1  1  0  0  0
 32 40  1  0  0  0  0
 32 33  1  0  0  0  0
 33 35  1  0  0  0  0
 33 34  1  6  0  0  0
 35 37  1  0  0  0  0
 35 36  1  1  0  0  0
 37 38  1  1  0  0  0
 39 37  1  0  0  0  0
 39 41  1  6  0  0  0
 40 39  1  0  0  0  0
 42 41  1  0  0  0  0
M  END
>  <CHROM.1>
-149.06612848,160.45943461,-152.84980421,-57.57780260,-163.91789364,174.46520308
-169.65018259,26.77570602,-42.38583760,-80.89386930,137.12728855,-73.51522279
-49.27123595,40.31313590,174.11432653,-33.83706099,-37.36651632,-5.39190391
69.29702555,-32.41972421,122.91446709,-173.10183089,0.42775601,3.48677676
0.52750053,0.44715312,-0.63092737,2.96851052

>  <Name>
lig.pdb

>  <RI>
0

>  <Rbt.Current_Directory>
/home/itssahil/PROJECTS/Mol_Feturizer/New_Systems/rnas/2mxs

>  <Rbt.Executable>
rbdock ($Id: //depot/dev/client3/rdock/2013.1/src/exe/rbdock.cxx#4 $)

>  <Rbt.Library>
libRbt.so (2013.1, Build901 2013/11/27)

>  <Rbt.Parameter_File>
/export/apps/rDock/src/rDock_2013.1_src/data/scripts/dock_solv.prm

>  <Rbt.Receptor>
prm/blind_docking_60.prm

>  <SCORE>
23.9951

>  <SCORE.INTER>
-13.0844

>  <SCORE.INTER.CONST>
1

>  <SCORE.INTER.POLAR>
-5.92267

>  <SCORE.INTER.ROT>
9

>  <SCORE.INTER.SOLV>
33.0974

>  <SCORE.INTER.VDW>
-9.61317

>  <SCORE.INTER.norm>
-0.311533

>  <SCORE.INTRA>
14.0232

>  <SCORE.INTRA.DIHEDRAL>
9.64422

>  <SCORE.INTRA.DIHEDRAL.0>
30.1357

>  <SCORE.INTRA.POLAR>
0.252311

>  <SCORE.INTRA.POLAR.0>
-0.631696

>  <SCORE.INTRA.REPUL>
0.0328572

>  <SCORE.INTRA.REPUL.0>
0

>  <SCORE.INTRA.SOLV>
-0.101595

>  <SCORE.INTRA.SOLV.lig_0>
-55.904

>  <SCORE.INTRA.VDW>
8.22979

>  <SCORE.INTRA.VDW.0>
-8.21197

>  <SCORE.INTRA.norm>
0.333887

>  <SCORE.RESTR>
23.0563

>  <SCORE.RESTR.CAVITY>
23.0563

>  <SCORE.RESTR.norm>
0.548959

>  <SCORE.SYSTEM>
0

>  <SCORE.SYSTEM.CONST>
0

>  <SCORE.SYSTEM.DIHEDRAL>
0

>  <SCORE.SYSTEM.SOLV>
0

>  <SCORE.SYSTEM.norm>
0

>  <SCORE.heavy>
42

>  <SCORE.norm>
0.571313

>  <RMSD>
6.475

$$$$
lig.pdb
 OpenBabel11021811453D
libRbt.so/2013.1/901 2013/11/27
 42 45  0  0  0  0  0  0  0  0999 V2000
    0.5458    4.2774   -1.0294 C   0  0  2  0  0  0  0  0  0  0  0  0
    0.6393    4.2011    0.3943 O   0  0  0  0  0  0  0  0  0  0  0  0
    1.4481    3.2267   -1.6940 C   0  0  2  0  0  0  0  0  0  0  0  0
    1.1451    1.8744   -1.1903 N   0  0  0  0  0  0  0  0  0  0  0  0
    2.9301    3.5695   -1.4949 C   0  0  1  0  0  0  0  0  0  0  0  0
    3.7248    2.6711   -2.2452 O   0  0  0  0  0  0  0  0  0  0  0  0
    3.2108    5.0068   -1.9589 C   0  0  2  0  0  0  0  0  0  0  0  0
    4.5397    5.3565   -1.6224 O   0  0  0  0  0  0  0  0  0  0  0  0
    2.2291    6.0094   -1.3192 C   0  0  2  0  0  0  0  0  0  0  0  0
    0.8765    5.5861   -1.4874 O   0  0  0  0  0  0  0  0  0  0  0  0
    2.4339    7.3782   -1.9959 C   0  0  0  0  0  0  0  0  0  0  0  0
    2.1953    7.3225   -3.4278 O   0  0  0  0  0  0  0  0  0  0  0  0
   -2.2337    5.2954    3.4075 C   0  0  2  0  0  0  0  0  0  0  0  0
   -3.6142    5.4981    3.8905 N   0  0  0  0  0  0  0  0  0  0  0  0
   -1.9513    6.2029    2.2076 C   0  0  0  0  0  0  0  0  0  0  0  0
   -0.5798    5.8997    1.6161 C   0  0  2  0  0  0  0  0  0  0  0  0
   -0.2773    6.8396    0.5294 N   0  0  0  0  0  0  0  0  0  0  0  0
   -0.5700    4.4311    1.1320 C   0  0  2  0  0  0  0  0  0  0  0  0
   -0.6851    3.5383    2.3258 C   0  0  2  0  0  0  0  0  0  0  0  0
   -0.6321    2.2006    1.8648 O   0  0  0  0  0  0  0  0  0  0  0  0
   -1.9895    3.8178    3.0481 C   0  0  1  0  0  0  0  0  0  0  0  0
   -2.1127    3.0581    4.2358 O   0  0  0  0  0  0  0  0  0  0  0  0
   -0.0407    1.2277    2.7196 C   0  0  1  0  0  0  0  0  0  0  0  0
   -1.1276    0.7146    3.6664 C   0  0  2  0  0  0  0  0  0  0  0  0
   -0.5583    0.4553    4.9359 O   0  0  0  0  0  0  0  0  0  0  0  0
   -1.6097   -0.5582    2.9575 C   0  0  2  0  0  0  0  0  0  0  0  0
   -2.2651   -1.4690    3.8405 O   0  0  0  0  0  0  0  0  0  0  0  0
   -0.2801   -1.0622    2.3828 C   0  0  2  0  0  0  0  0  0  0  0  0
    0.3902    0.1130    1.9490 O   0  0  0  0  0  0  0  0  0  0  0  0
   -0.4265   -2.0193    1.1941 C   0  0  0  0  0  0  0  0  0  0  0  0
    0.6957   -1.9627    0.3395 O   0  0  0  0  0  0  0  0  0  0  0  0
   -3.6093   -1.1195    4.1644 C   0  0  2  0  0  0  0  0  0  0  0  0
   -4.1187   -1.8886    5.3929 C   0  0  2  0  0  0  0  0  0  0  0  0
   -3.2227   -1.6931    6.5449 N   0  0  0  0  0  0  0  0  0  0  0  0
   -4.3081   -3.3793    5.0744 C   0  0  1  0  0  0  0  0  0  0  0  0
   -4.8579   -4.0175    6.2107 O   0  0  0  0  0  0  0  0  0  0  0  0
   -5.2689   -3.5031    3.8797 C   0  0  2  0  0  0  0  0  0  0  0  0
   -5.4448   -4.8601    3.5163 O   0  0  0  0  0  0  0  0  0  0  0  0
   -4.7614   -2.6840    2.6751 C   0  0  1  0  0  0  0  0  0  0  0  0
   -4.4671   -1.3353    3.0461 O   0  0  0  0  0  0  0  0  0  0  0  0
   -3.5865   -3.3462    1.9402 C   0  0  0  0  0  0  0  0  0  0  0  0
   -4.0498   -4.4202    1.0468 N   0  0  0  0  0  0  0  0  0  0  0  0
  1  3  1  0  0  0  0
  1  2  1  1  0  0  0
  3  4  1  1  0  0  0
  5  6  1  6  0  0  0
  5  3  1  0  0  0  0
  7  9  1  0  0  0  0
  7  5  1  0  0  0  0
  7  8  1  1  0  0  0
  9 10  1  0  0  0  0
  9 11  1  6  0  0  0
 10  1  1  0  0  0  0
 11 12  1  0  0  0  0
 13 14  1  6  0  0  0
 13 21  1  0  0  0  0
 15 13  1  0  0  0  0
 16 15  1  0  0  0  0
 16 18  1  0  0  0  0
 16 17  1  6  0  0  0
 18  2  1  1  0  0  0
 18 19  1  0  0  0  0
 19 21  1  0  0  0  0
 19 20  1  6  0  0  0
 21 22  1  1  0  0  0
 23 20  1  6  0  0  0
 23 29  1  0  0  0  0
 23 24  1  0  0  0  0
 24 26  1  0  0  0  0
 24 25  1  1  0  0  0
 26 27  1  1  0  0  0
 28 26  1  0  0  0  0
 28 30  1  6  0  0  0
 29 28  1  0  0  0  0
 30 31  1  0  0  0  0
 32 27  1  6  0  0  0
 32 40  1  0  0  0  0
 32 33  1  0  0  0  0
 33 35  1  0  0  0  0
 33 34  1  1  0  0  0
 35 37  1  0  0  0  0
 35 36  1  1  0  0  0
 37 38  1  6  0  0  0
 39 37  1  0  0  0  0
 39 41  1  1  0  0  0
 40 39  1  0  0  0  0
 42 41  1  0  0  0  0
M  END
>  <CHROM.1>
-98.00742242,-143.02409743,164.19770070,-178.77423934,176.62170524,-176.34259389
59.52548080,-55.85878536,-8.38503068,147.93342189,86.36204587,-57.24025026
75.55185032,78.04558383,-163.98938999,152.45601023,56.91182977,52.18376371
64.89717787,-58.08074965,79.11662059,-148.74752237,-0.97838877,1.55923587
1.72385049,-0.72639315,-0.83143587,-3.00901614

>  <Name>
lig.pdb

>  <RI>
4.11275e+07

>  <Rbt.Current_Directory>
/home/itssahil/PROJECTS/Mol_Feturizer/New_Systems/rnas/2mxs

>  <Rbt.Executable>
rbdock ($Id: //depot/dev/client3/rdock/2013.1/src/exe/rbdock.cxx#4 $)

>  <Rbt.Library>
libRbt.so (2013.1, Build901 2013/11/27)

>  <Rbt.Parameter_File>
/export/apps/rDock/src/rDock_2013.1_src/data/scripts/dock_solv.prm

>  <Rbt.Receptor>
prm/pocket_docking_8.prm

>  <SCORE>
-36.6982

>  <SCORE.INTER>
-43.0557

>  <SCORE.INTER.CONST>
1

>  <SCORE.INTER.POLAR>
-5.29646

>  <SCORE.INTER.ROT>
9

>  <SCORE.INTER.SOLV>
18.77

>  <SCORE.INTER.VDW>
-26.9056

>  <SCORE.INTER.norm>
-1.02514

>  <SCORE.INTRA>
6.35751

>  <SCORE.INTRA.DIHEDRAL>
1.09719

>  <SCORE.INTRA.DIHEDRAL.0>
30.1357

>  <SCORE.INTRA.POLAR>
-0.148122

>  <SCORE.INTRA.POLAR.0>
-0.631696

>  <SCORE.INTRA.REPUL>
0

>  <SCORE.INTRA.REPUL.0>
0

>  <SCORE.INTRA.SOLV>
0.596989

>  <SCORE.INTRA.SOLV.lig_0>
-55.904

>  <SCORE.INTRA.VDW>
6.01404

>  <SCORE.INTRA.VDW.0>
-8.21197

>  <SCORE.INTRA.norm>
0.151369

>  <SCORE.RESTR>
0

>  <SCORE.RESTR.CAVITY>
0

>  <SCORE.RESTR.norm>
0

>  <SCORE.SYSTEM>
0

>  <SCORE.SYSTEM.CONST>
0

>  <SCORE.SYSTEM.DIHEDRAL>
0

>  <SCORE.SYSTEM.SOLV>
0

>  <SCORE.SYSTEM.norm>
0

>  <SCORE.heavy>
42

>  <SCORE.norm>
-0.873766

>  <RMSD>
6.492

$$$$
lig.pdb
 OpenBabel11021811453D
libRbt.so/2013.1/901 2013/11/27
 42 45  0  0  0  0  0  0  0  0999 V2000
   -0.9447   -0.2417   -0.3719 C   0  0  2  0  0  0  0  0  0  0  0  0
   -0.8720    0.8535    0.5428 O   0  0  0  0  0  0  0  0  0  0  0  0
   -1.9185    0.0673   -1.5191 C   0  0  2  0  0  0  0  0  0  0  0  0
   -1.5595    1.3291   -2.1925 N   0  0  0  0  0  0  0  0  0  0  0  0
   -3.3672    0.1043   -1.0157 C   0  0  1  0  0  0  0  0  0  0  0  0
   -4.2441    0.2382   -2.1178 O   0  0  0  0  0  0  0  0  0  0  0  0
   -3.6994   -1.1882   -0.2550 C   0  0  2  0  0  0  0  0  0  0  0  0
   -4.9800   -1.0690    0.3343 O   0  0  0  0  0  0  0  0  0  0  0  0
   -2.6496   -1.4894    0.8338 C   0  0  2  0  0  0  0  0  0  0  0  0
   -1.3259   -1.4381    0.3025 O   0  0  0  0  0  0  0  0  0  0  0  0
   -2.9312   -2.8965    1.3944 C   0  0  0  0  0  0  0  0  0  0  0  0
   -4.2187   -2.9723    2.0628 O   0  0  0  0  0  0  0  0  0  0  0  0
    2.3288   -0.4281    3.1203 C   0  0  2  0  0  0  0  0  0  0  0  0
    3.3538   -0.1888    4.1559 N   0  0  0  0  0  0  0  0  0  0  0  0
    2.5941    0.4515    1.8960 C   0  0  0  0  0  0  0  0  0  0  0  0
    1.4645    0.3151    0.8819 C   0  0  2  0  0  0  0  0  0  0  0  0
    1.7749    1.0848   -0.3293 N   0  0  0  0  0  0  0  0  0  0  0  0
    0.1505    0.7862    1.5474 C   0  0  2  0  0  0  0  0  0  0  0  0
   -0.1937   -0.1695    2.6445 C   0  0  2  0  0  0  0  0  0  0  0  0
   -1.4191    0.2557    3.2119 O   0  0  0  0  0  0  0  0  0  0  0  0
    0.9154   -0.1791    3.6795 C   0  0  1  0  0  0  0  0  0  0  0  0
    0.6810   -1.1304    4.7009 O   0  0  0  0  0  0  0  0  0  0  0  0
   -1.3773    1.3130    4.1644 C   0  0  1  0  0  0  0  0  0  0  0  0
   -0.6832    2.5075    3.5066 C   0  0  2  0  0  0  0  0  0  0  0  0
    0.0935    3.1886    4.4740 O   0  0  0  0  0  0  0  0  0  0  0  0
   -1.8682    3.3401    2.9990 C   0  0  2  0  0  0  0  0  0  0  0  0
   -1.5286    4.7095    2.7795 O   0  0  0  0  0  0  0  0  0  0  0  0
   -2.8690    3.0986    4.1357 C   0  0  2  0  0  0  0  0  0  0  0  0
   -2.7010    1.7293    4.4752 O   0  0  0  0  0  0  0  0  0  0  0  0
   -4.3334    3.3404    3.7518 C   0  0  0  0  0  0  0  0  0  0  0  0
   -4.7702    2.4283    2.7666 O   0  0  0  0  0  0  0  0  0  0  0  0
   -2.4326    5.4179    1.9339 C   0  0  2  0  0  0  0  0  0  0  0  0
   -1.7651    5.8491    0.6191 C   0  0  2  0  0  0  0  0  0  0  0  0
   -1.1769    4.6923   -0.0765 N   0  0  0  0  0  0  0  0  0  0  0  0
   -0.7213    6.9495    0.8622 C   0  0  1  0  0  0  0  0  0  0  0  0
   -0.2046    7.3656   -0.3871 O   0  0  0  0  0  0  0  0  0  0  0  0
   -1.4124    8.1277    1.5694 C   0  0  2  0  0  0  0  0  0  0  0  0
   -0.4821    9.1556    1.8564 O   0  0  0  0  0  0  0  0  0  0  0  0
   -2.1160    7.6616    2.8606 C   0  0  1  0  0  0  0  0  0  0  0  0
   -2.9762    6.5467    2.6146 O   0  0  0  0  0  0  0  0  0  0  0  0
   -1.1450    7.3921    4.0197 C   0  0  0  0  0  0  0  0  0  0  0  0
   -1.1344    8.5070    4.9805 N   0  0  0  0  0  0  0  0  0  0  0  0
  1  3  1  0  0  0  0
  1  2  1  1  0  0  0
  3  4  1  1  0  0  0
  5  6  1  6  0  0  0
  5  3  1  0  0  0  0
  7  9  1  0  0  0  0
  7  5  1  0  0  0  0
  7  8  1  1  0  0  0
  9 10  1  0  0  0  0
  9 11  1  6  0  0  0
 10  1  1  0  0  0  0
 11 12  1  0  0  0  0
 13 14  1  1  0  0  0
 13 21  1  0  0  0  0
 15 13  1  0  0  0  0
 16 15  1  0  0  0  0
 16 18  1  0  0  0  0
 16 17  1  6  0  0  0
 18  2  1  6  0  0  0
 18 19  1  0  0  0  0
 19 21  1  0  0  0  0
 19 20  1  1  0  0  0
 21 22  1  1  0  0  0
 23 20  1  6  0  0  0
 23 29  1  0  0  0  0
 23 24  1  0  0  0  0
 24 26  1  0  0  0  0
 24 25  1  1  0  0  0
 26 27  1  1  0  0  0
 28 26  1  0  0  0  0
 28 30  1  6  0  0  0
 29 28  1  0  0  0  0
 30 31  1  0  0  0  0
 32 27  1  1  0  0  0
 32 40  1  0  0  0  0
 32 33  1  0  0  0  0
 33 35  1  0  0  0  0
 33 34  1  1  0  0  0
 35 37  1  0  0  0  0
 35 36  1  6  0  0  0
 37 38  1  1  0  0  0
 39 37  1  0  0  0  0
 39 41  1  1  0  0  0
 40 39  1  0  0  0  0
 42 41  1  0  0  0  0
M  END
>  <CHROM.1>
44.07863264,-170.69370278,-62.05327077,66.02643968,66.37170142,53.74968199
-64.02762056,-77.43939868,82.30869787,-81.06997063,55.87070477,70.75240033
178.65224483,161.25089122,-114.44301822,64.41130141,-168.33992965,110.94430853
-64.97378617,-169.28812262,101.46149141,57.22969218,-1.35777196,2.28946021
1.83570169,1.61998867,0.68850458,-3.00213898

>  <Name>
lig.pdb

>  <RI>
4.11275e+07

>  <Rbt.Current_Directory>
/home/itssahil/PROJECTS/Mol_Feturizer/New_Systems/rnas/2mxs

>  <Rbt.Executable>
rbdock ($Id: //depot/dev/client3/rdock/2013.1/src/exe/rbdock.cxx#4 $)

>  <Rbt.Library>
libRbt.so (2013.1, Build901 2013/11/27)

>  <Rbt.Parameter_File>
/export/apps/rDock/src/rDock_2013.1_src/data/scripts/dock_solv.prm

>  <Rbt.Receptor>
prm/pocket_docking_8.prm

>  <SCORE>
-47.9636

>  <SCORE.INTER>
-54.2505

>  <SCORE.INTER.CONST>
1

>  <SCORE.INTER.POLAR>
-6.92758

>  <SCORE.INTER.ROT>
9

>  <SCORE.INTER.SOLV>
27.4404

>  <SCORE.INTER.VDW>
-31.8219

>  <SCORE.INTER.norm>
-1.29168

>  <SCORE.INTRA>
5.75294

>  <SCORE.INTRA.DIHEDRAL>
-5.48302

>  <SCORE.INTRA.DIHEDRAL.0>
30.1357

>  <SCORE.INTRA.POLAR>
0.241831

>  <SCORE.INTRA.POLAR.0>
-0.631696

>  <SCORE.INTRA.REPUL>
0.0173377

>  <SCORE.INTRA.REPUL.0>
0

>  <SCORE.INTRA.SOLV>
0.222544

>  <SCORE.INTRA.SOLV.lig_0>
-55.904

>  <SCORE.INTRA.VDW>
7.47426

>  <SCORE.INTRA.VDW.0>
-8.21197

>  <SCORE.INTRA.norm>
0.136975

>  <SCORE.RESTR>
0.534

>  <SCORE.RESTR.CAVITY>
0.534

>  <SCORE.RESTR.norm>
0.0127143

>  <SCORE.SYSTEM>
0

>  <SCORE.SYSTEM.CONST>
0

>  <SCORE.SYSTEM.DIHEDRAL>
0

>  <SCORE.SYSTEM.SOLV>
0

>  <SCORE.SYSTEM.norm>
0

>  <SCORE.heavy>
42

>  <SCORE.norm>
-1.14199

>  <RMSD>
6.500

$$$$
lig.pdb
 OpenBabel11021811453D
libRbt.so/2013.1/901 2013/11/27
 42 45  0  0  0  0  0  0  0  0999 V2000
   -1.5181    3.1989    2.4317 C   0  0  2  0  0  0  0  0  0  0  0  0
   -0.6344    3.1035    1.3131 O   0  0  0  0  0  0  0  0  0  0  0  0
   -2.7085    4.1158    2.1120 C   0  0  2  0  0  0  0  0  0  0  0  0
   -3.4057    3.6713    0.8911 N   0  0  0  0  0  0  0  0  0  0  0  0
   -2.2591    5.5774    1.9886 C   0  0  1  0  0  0  0  0  0  0  0  0
   -3.3957    6.4078    1.8470 O   0  0  0  0  0  0  0  0  0  0  0  0
   -1.4727    5.9998    3.2388 C   0  0  2  0  0  0  0  0  0  0  0  0
   -0.9339    7.2925    3.0388 O   0  0  0  0  0  0  0  0  0  0  0  0
   -0.3382    5.0046    3.5562 C   0  0  2  0  0  0  0  0  0  0  0  0
   -0.8225    3.6624    3.5863 O   0  0  0  0  0  0  0  0  0  0  0  0
    0.2535    5.3751    4.9295 C   0  0  0  0  0  0  0  0  0  0  0  0
   -0.7181    5.2354    6.0004 O   0  0  0  0  0  0  0  0  0  0  0  0
    1.8245   -0.2368    0.1611 C   0  0  2  0  0  0  0  0  0  0  0  0
    2.8580   -1.2572    0.4272 N   0  0  0  0  0  0  0  0  0  0  0  0
    2.4110    1.1682    0.3196 C   0  0  0  0  0  0  0  0  0  0  0  0
    1.3197    2.2238    0.1854 C   0  0  2  0  0  0  0  0  0  0  0  0
    1.9060    3.5688    0.2406 N   0  0  0  0  0  0  0  0  0  0  0  0
    0.2803    1.9978    1.3079 C   0  0  2  0  0  0  0  0  0  0  0  0
   -0.4074    0.6934    1.0608 C   0  0  2  0  0  0  0  0  0  0  0  0
   -1.3818    0.5261    2.0742 O   0  0  0  0  0  0  0  0  0  0  0  0
    0.6092   -0.4323    1.0869 C   0  0  1  0  0  0  0  0  0  0  0  0
    0.0252   -1.6832    0.7750 O   0  0  0  0  0  0  0  0  0  0  0  0
   -2.3656   -0.4860    1.8875 C   0  0  1  0  0  0  0  0  0  0  0  0
   -3.3198   -0.4366    3.0827 C   0  0  2  0  0  0  0  0  0  0  0  0
   -3.7308   -1.7511    3.4081 O   0  0  0  0  0  0  0  0  0  0  0  0
   -4.4677    0.4337    2.5535 C   0  0  2  0  0  0  0  0  0  0  0  0
   -5.6842    0.2445    3.2767 O   0  0  0  0  0  0  0  0  0  0  0  0
   -4.5061   -0.0358    1.0940 C   0  0  2  0  0  0  0  0  0  0  0  0
   -3.1411   -0.1918    0.7325 O   0  0  0  0  0  0  0  0  0  0  0  0
   -5.1671    0.9542    0.1278 C   0  0  0  0  0  0  0  0  0  0  0  0
   -6.5756    0.8884    0.1988 O   0  0  0  0  0  0  0  0  0  0  0  0
   -5.9718    1.2629    4.2329 C   0  0  2  0  0  0  0  0  0  0  0  0
   -5.9714    0.7148    5.6680 C   0  0  2  0  0  0  0  0  0  0  0  0
   -4.6994    0.0386    5.9728 N   0  0  0  0  0  0  0  0  0  0  0  0
   -7.1725   -0.2123    5.9077 C   0  0  1  0  0  0  0  0  0  0  0  0
   -7.1680   -0.6158    7.2634 O   0  0  0  0  0  0  0  0  0  0  0  0
   -8.4597    0.5677    5.5906 C   0  0  2  0  0  0  0  0  0  0  0  0
   -9.5988   -0.2570    5.7545 O   0  0  0  0  0  0  0  0  0  0  0  0
   -8.4162    1.1490    4.1624 C   0  0  1  0  0  0  0  0  0  0  0  0
   -7.2164    1.8924    3.9364 O   0  0  0  0  0  0  0  0  0  0  0  0
   -8.6535    0.0965    3.0693 C   0  0  0  0  0  0  0  0  0  0  0  0
   -8.7785    0.7206    1.7422 N   0  0  0  0  0  0  0  0  0  0  0  0
  1  3  1  0  0  0  0
  1  2  1  6  0  0  0
  3  4  1  6  0  0  0
  5  6  1  1  0  0  0
  5  3  1  0  0  0  0
  7  9  1  0  0  0  0
  7  5  1  0  0  0  0
  7  8  1  6  0  0  0
  9 10  1  0  0  0  0
  9 11  1  1  0  0  0
 10  1  1  0  0  0  0
 11 12  1  0  0  0  0
 13 14  1  1  0  0  0
 13 21  1  0  0  0  0
 15 13  1  0  0  0  0
 16 15  1  0  0  0  0
 16 18  1  0  0  0  0
 16 17  1  1  0  0  0
 18  2  1  6  0  0  0
 18 19  1  0  0  0  0
 19 21  1  0  0  0  0
 19 20  1  1  0  0  0
 21 22  1  6  0  0  0
 23 20  1  1  0  0  0
 23 29  1  0  0  0  0
 23 24  1  0  0  0  0
 24 26  1  0  0  0  0
 24 25  1  6  0  0  0
 26 27  1  1  0  0  0
 28 26  1  0  0  0  0
 28 30  1  6  0  0  0
 29 28  1  0  0  0  0
 30 31  1  0  0  0  0
 32 27  1  6  0  0  0
 32 40  1  0  0  0  0
 32 33  1  0  0  0  0
 33 35  1  0  0  0  0
 33 34  1  6  0  0  0
 35 37  1  0  0  0  0
 35 36  1  1  0  0  0
 37 38  1  6  0  0  0
 39 37  1  0  0  0  0
 39 41  1  6  0  0  0
 40 39  1  0  0  0  0
 42 41  1  0  0  0  0
M  END
>  <CHROM.1>
-168.91796433,-161.78790012,-78.68699231,-38.98509750,-73.91493903,-49.92303407
63.30623619,-76.03693277,170.75441355,166.17083491,-178.13350871,-63.80598042
174.00393298,101.22196334,-115.65513479,-79.06124746,-72.03655109,142.33943592
56.20176956,57.29285172,172.55654760,-44.61628159,-3.11206657,1.67141078
2.67857908,0.13470172,0.40835453,0.33273565

>  <Name>
lig.pdb

>  <RI>
4.11275e+07

>  <Rbt.Current_Directory>
/home/itssahil/PROJECTS/Mol_Feturizer/New_Systems/rnas/2mxs

>  <Rbt.Executable>
rbdock ($Id: //depot/dev/client3/rdock/2013.1/src/exe/rbdock.cxx#4 $)

>  <Rbt.Library>
libRbt.so (2013.1, Build901 2013/11/27)

>  <Rbt.Parameter_File>
/export/apps/rDock/src/rDock_2013.1_src/data/scripts/dock_solv.prm

>  <Rbt.Receptor>
prm/pocket_docking_8.prm

>  <SCORE>
-27.5219

>  <SCORE.INTER>
-27.631

>  <SCORE.INTER.CONST>
1

>  <SCORE.INTER.POLAR>
-3.30264

>  <SCORE.INTER.ROT>
9

>  <SCORE.INTER.SOLV>
19.2475

>  <SCORE.INTER.VDW>
-23.4277

>  <SCORE.INTER.norm>
-0.65788

>  <SCORE.INTRA>
0.109021

>  <SCORE.INTRA.DIHEDRAL>
-3.33756

>  <SCORE.INTRA.DIHEDRAL.0>
30.1357

>  <SCORE.INTRA.POLAR>
-0.355563

>  <SCORE.INTRA.POLAR.0>
-0.631696

>  <SCORE.INTRA.REPUL>
0

>  <SCORE.INTRA.REPUL.0>
0

>  <SCORE.INTRA.SOLV>
0.764206

>  <SCORE.INTRA.SOLV.lig_0>
-55.904

>  <SCORE.INTRA.VDW>
2.60461

>  <SCORE.INTRA.VDW.0>
-8.21197

>  <SCORE.INTRA.norm>
0.00259574

>  <SCORE.RESTR>
0

>  <SCORE.RESTR.CAVITY>
0

>  <SCORE.RESTR.norm>
0

>  <SCORE.SYSTEM>
0

>  <SCORE.SYSTEM.CONST>
0

>  <SCORE.SYSTEM.DIHEDRAL>
0

>  <SCORE.SYSTEM.SOLV>
0

>  <SCORE.SYSTEM.norm>
0

>  <SCORE.heavy>
42

>  <SCORE.norm>
-0.655284

>  <RMSD>
6.511

$$$$
lig.pdb
 OpenBabel11021811453D
libRbt.so/2013.1/901 2013/11/27
 42 45  0  0  0  0  0  0  0  0999 V2000
    0.5802    0.6710    2.9318 C   0  0  2  0  0  0  0  0  0  0  0  0
   -0.1013   -0.5524    3.2153 O   0  0  0  0  0  0  0  0  0  0  0  0
    0.6569    0.9163    1.4173 C   0  0  2  0  0  0  0  0  0  0  0  0
   -0.6843    0.8743    0.8059 N   0  0  0  0  0  0  0  0  0  0  0  0
    1.6007   -0.0888    0.7445 C   0  0  1  0  0  0  0  0  0  0  0  0
    1.7657    0.2603   -0.6165 O   0  0  0  0  0  0  0  0  0  0  0  0
    2.9697   -0.0818    1.4413 C   0  0  2  0  0  0  0  0  0  0  0  0
    3.7700   -1.1215    0.9120 O   0  0  0  0  0  0  0  0  0  0  0  0
    2.8287   -0.2566    2.9670 C   0  0  2  0  0  0  0  0  0  0  0  0
    1.8843    0.6673    3.5071 O   0  0  0  0  0  0  0  0  0  0  0  0
    4.2107   -0.0212    3.6058 C   0  0  0  0  0  0  0  0  0  0  0  0
    4.2799   -0.5302    4.9646 O   0  0  0  0  0  0  0  0  0  0  0  0
   -3.2048   -1.4642    6.0556 C   0  0  2  0  0  0  0  0  0  0  0  0
   -3.8891   -1.2863    7.3519 N   0  0  0  0  0  0  0  0  0  0  0  0
   -1.7621   -1.9265    6.2747 C   0  0  0  0  0  0  0  0  0  0  0  0
   -1.0076   -1.9767    4.9514 C   0  0  2  0  0  0  0  0  0  0  0  0
    0.3430   -2.5142    5.1580 N   0  0  0  0  0  0  0  0  0  0  0  0
   -0.9791   -0.5521    4.3505 C   0  0  2  0  0  0  0  0  0  0  0  0
   -2.3764   -0.1633    3.9874 C   0  0  2  0  0  0  0  0  0  0  0  0
   -2.3225    1.1246    3.4018 O   0  0  0  0  0  0  0  0  0  0  0  0
   -3.2457   -0.1641    5.2306 C   0  0  1  0  0  0  0  0  0  0  0  0
   -4.6005    0.1158    4.9321 O   0  0  0  0  0  0  0  0  0  0  0  0
   -3.1939    2.1249    3.9185 C   0  0  1  0  0  0  0  0  0  0  0  0
   -2.3616    3.3832    4.1744 C   0  0  2  0  0  0  0  0  0  0  0  0
   -2.8455    4.0369    5.3325 O   0  0  0  0  0  0  0  0  0  0  0  0
   -2.5879    4.1955    2.8922 C   0  0  2  0  0  0  0  0  0  0  0  0
   -2.3245    5.5881    3.0658 O   0  0  0  0  0  0  0  0  0  0  0  0
   -4.0550    3.8472    2.6123 C   0  0  2  0  0  0  0  0  0  0  0  0
   -4.1633    2.4683    2.9364 O   0  0  0  0  0  0  0  0  0  0  0  0
   -4.4873    4.0517    1.1556 C   0  0  0  0  0  0  0  0  0  0  0  0
   -4.5901    5.4219    0.8311 O   0  0  0  0  0  0  0  0  0  0  0  0
   -0.9478    5.9150    3.2439 C   0  0  2  0  0  0  0  0  0  0  0  0
   -0.7075    7.4307    3.1740 C   0  0  2  0  0  0  0  0  0  0  0  0
   -1.5563    8.1433    4.1435 N   0  0  0  0  0  0  0  0  0  0  0  0
   -0.9170    7.9601    1.7474 C   0  0  1  0  0  0  0  0  0  0  0  0
   -0.5994    9.3383    1.7259 O   0  0  0  0  0  0  0  0  0  0  0  0
    0.0150    7.1861    0.7997 C   0  0  2  0  0  0  0  0  0  0  0  0
   -0.1700    7.6068   -0.5394 O   0  0  0  0  0  0  0  0  0  0  0  0
   -0.2108    5.6651    0.9228 C   0  0  1  0  0  0  0  0  0  0  0  0
   -0.1424    5.2344    2.2841 O   0  0  0  0  0  0  0  0  0  0  0  0
   -1.4950    5.1824    0.2323 C   0  0  0  0  0  0  0  0  0  0  0  0
   -1.4219    3.7492   -0.0944 N   0  0  0  0  0  0  0  0  0  0  0  0
  1  3  1  0  0  0  0
  1  2  1  6  0  0  0
  3  4  1  6  0  0  0
  5  6  1  6  0  0  0
  5  3  1  0  0  0  0
  7  9  1  0  0  0  0
  7  5  1  0  0  0  0
  7  8  1  6  0  0  0
  9 10  1  0  0  0  0
  9 11  1  1  0  0  0
 10  1  1  0  0  0  0
 11 12  1  0  0  0  0
 13 14  1  1  0  0  0
 13 21  1  0  0  0  0
 15 13  1  0  0  0  0
 16 15  1  0  0  0  0
 16 18  1  0  0  0  0
 16 17  1  1  0  0  0
 18  2  1  6  0  0  0
 18 19  1  0  0  0  0
 19 21  1  0  0  0  0
 19 20  1  1  0  0  0
 21 22  1  6  0  0  0
 23 20  1  6  0  0  0
 23 29  1  0  0  0  0
 23 24  1  0  0  0  0
 24 26  1  0  0  0  0
 24 25  1  1  0  0  0
 26 27  1  1  0  0  0
 28 26  1  0  0  0  0
 28 30  1  6  0  0  0
 29 28  1  0  0  0  0
 30 31  1  0  0  0  0
 32 27  1  6  0  0  0
 32 40  1  0  0  0  0
 32 33  1  0  0  0  0
 33 35  1  0  0  0  0
 33 34  1  1  0  0  0
 35 37  1  0  0  0  0
 35 36  1  1  0  0  0
 37 38  1  6  0  0  0
 39 37  1  0  0  0  0
 39 41  1  1  0  0  0
 40 39  1  0  0  0  0
 42 41  1  0  0  0  0
M  END
>  <CHROM.1>
-149.75014439,-141.18130421,154.73595316,-58.37973633,-60.32037530,-54.24699883
-163.38452170,-30.29156506,54.41451466,-128.58252374,131.40991829,-68.17167301
-179.52747552,69.98487793,169.85754361,-72.05352999,47.13189530,94.74794527
-29.97715253,176.22614626,157.65231415,-154.69799241,-0.90646821,2.40684659
2.89643130,-1.33087880,0.45891973,-0.40773308

>  <Name>
lig.pdb

>  <RI>
0

>  <Rbt.Current_Directory>
/home/itssahil/PROJECTS/Mol_Feturizer/New_Systems/rnas/2mxs

>  <Rbt.Executable>
rbdock ($Id: //depot/dev/client3/rdock/2013.1/src/exe/rbdock.cxx#4 $)

>  <Rbt.Library>
libRbt.so (2013.1, Build901 2013/11/27)

>  <Rbt.Parameter_File>
/export/apps/rDock/src/rDock_2013.1_src/data/scripts/dock_solv.prm

>  <Rbt.Receptor>
prm/blind_docking_80.prm

>  <SCORE>
3.30034

>  <SCORE.INTER>
-29.9332

>  <SCORE.INTER.CONST>
1

>  <SCORE.INTER.POLAR>
-5.85347

>  <SCORE.INTER.ROT>
9

>  <SCORE.INTER.SOLV>
34.2222

>  <SCORE.INTER.VDW>
-21.4513

>  <SCORE.INTER.norm>
-0.712695

>  <SCORE.INTRA>
10.1341

>  <SCORE.INTRA.DIHEDRAL>
8.54084

>  <SCORE.INTRA.DIHEDRAL.0>
30.1357

>  <SCORE.INTRA.POLAR>
-0.446399

>  <SCORE.INTRA.POLAR.0>
-0.631696

>  <SCORE.INTRA.REPUL>
0

>  <SCORE.INTRA.REPUL.0>
0

>  <SCORE.INTRA.SOLV>
-0.533663

>  <SCORE.INTRA.SOLV.lig_0>
-55.904

>  <SCORE.INTRA.VDW>
7.64825

>  <SCORE.INTRA.VDW.0>
-8.21197

>  <SCORE.INTRA.norm>
0.241288

>  <SCORE.RESTR>
23.0995

>  <SCORE.RESTR.CAVITY>
23.0995

>  <SCORE.RESTR.norm>
0.549987

>  <SCORE.SYSTEM>
0

>  <SCORE.SYSTEM.CONST>
0

>  <SCORE.SYSTEM.DIHEDRAL>
0

>  <SCORE.SYSTEM.SOLV>
0

>  <SCORE.SYSTEM.norm>
0

>  <SCORE.heavy>
42

>  <SCORE.norm>
0.0785796

>  <RMSD>
6.512

$$$$
lig.pdb
 OpenBabel11021811453D
libRbt.so/2013.1/901 2013/11/27
 42 45  0  0  0  0  0  0  0  0999 V2000
   -1.3529    0.0503    1.9954 C   0  0  2  0  0  0  0  0  0  0  0  0
   -0.2744    0.2807    1.0870 O   0  0  0  0  0  0  0  0  0  0  0  0
   -1.0942   -1.2029    2.8452 C   0  0  2  0  0  0  0  0  0  0  0  0
    0.2045   -1.1137    3.5379 N   0  0  0  0  0  0  0  0  0  0  0  0
   -1.1762   -2.4739    1.9899 C   0  0  1  0  0  0  0  0  0  0  0  0
   -1.0858   -3.6104    2.8276 O   0  0  0  0  0  0  0  0  0  0  0  0
   -2.5054   -2.5129    1.2208 C   0  0  2  0  0  0  0  0  0  0  0  0
   -2.4946   -3.6052    0.3219 O   0  0  0  0  0  0  0  0  0  0  0  0
   -2.7494   -1.2018    0.4464 C   0  0  2  0  0  0  0  0  0  0  0  0
   -2.5881   -0.0645    1.2935 O   0  0  0  0  0  0  0  0  0  0  0  0
   -4.1848   -1.2354   -0.1119 C   0  0  0  0  0  0  0  0  0  0  0  0
   -4.4339   -0.1528   -1.0480 O   0  0  0  0  0  0  0  0  0  0  0  0
    0.9411    3.9768   -0.7548 C   0  0  2  0  0  0  0  0  0  0  0  0
    0.6733    5.2084   -1.5241 N   0  0  0  0  0  0  0  0  0  0  0  0
    0.6018    2.7417   -1.5930 C   0  0  0  0  0  0  0  0  0  0  0  0
    0.7410    1.4729   -0.7601 C   0  0  2  0  0  0  0  0  0  0  0  0
    0.5097    0.2891   -1.5973 N   0  0  0  0  0  0  0  0  0  0  0  0
   -0.2544    1.5515    0.4207 C   0  0  2  0  0  0  0  0  0  0  0  0
    0.1730    2.6610    1.3272 C   0  0  2  0  0  0  0  0  0  0  0  0
   -0.7256    2.6886    2.4209 O   0  0  0  0  0  0  0  0  0  0  0  0
    0.1543    3.9750    0.5693 C   0  0  1  0  0  0  0  0  0  0  0  0
    0.6316    5.0497    1.3569 O   0  0  0  0  0  0  0  0  0  0  0  0
   -0.6651    3.8063    3.3007 C   0  0  1  0  0  0  0  0  0  0  0  0
   -2.0974    4.2843    3.5485 C   0  0  2  0  0  0  0  0  0  0  0  0
   -2.1074    5.6951    3.6596 O   0  0  0  0  0  0  0  0  0  0  0  0
   -2.4584    3.5797    4.8631 C   0  0  2  0  0  0  0  0  0  0  0  0
   -3.5342    4.2151    5.5542 O   0  0  0  0  0  0  0  0  0  0  0  0
   -1.1043    3.6447    5.5801 C   0  0  2  0  0  0  0  0  0  0  0  0
   -0.1472    3.3961    4.5600 O   0  0  0  0  0  0  0  0  0  0  0  0
   -0.9269    2.6056    6.6933 C   0  0  0  0  0  0  0  0  0  0  0  0
   -1.8901    2.7661    7.7129 O   0  0  0  0  0  0  0  0  0  0  0  0
   -4.8301    3.7255    5.2151 C   0  0  2  0  0  0  0  0  0  0  0  0
   -5.7358    4.8392    4.6679 C   0  0  2  0  0  0  0  0  0  0  0  0
   -5.1038    5.5169    3.5237 N   0  0  0  0  0  0  0  0  0  0  0  0
   -6.1165    5.8369    5.7721 C   0  0  1  0  0  0  0  0  0  0  0  0
   -7.0161    6.7858    5.2327 O   0  0  0  0  0  0  0  0  0  0  0  0
   -6.7878    5.0611    6.9181 C   0  0  2  0  0  0  0  0  0  0  0  0
   -7.1210    5.9308    7.9845 O   0  0  0  0  0  0  0  0  0  0  0  0
   -5.8802    3.9184    7.4181 C   0  0  1  0  0  0  0  0  0  0  0  0
   -5.4370    3.0920    6.3392 O   0  0  0  0  0  0  0  0  0  0  0  0
   -4.7103    4.4054    8.2858 C   0  0  0  0  0  0  0  0  0  0  0  0
   -5.1143    4.5602    9.6926 N   0  0  0  0  0  0  0  0  0  0  0  0
  1  3  1  0  0  0  0
  1  2  1  6  0  0  0
  3  4  1  6  0  0  0
  5  6  1  1  0  0  0
  5  3  1  0  0  0  0
  7  9  1  0  0  0  0
  7  5  1  0  0  0  0
  7  8  1  6  0  0  0
  9 10  1  0  0  0  0
  9 11  1  1  0  0  0
 10  1  1  0  0  0  0
 11 12  1  0  0  0  0
 13 14  1  6  0  0  0
 13 21  1  0  0  0  0
 15 13  1  0  0  0  0
 16 15  1  0  0  0  0
 16 18  1  0  0  0  0
 16 17  1  6  0  0  0
 18  2  1  1  0  0  0
 18 19  1  0  0  0  0
 19 21  1  0  0  0  0
 19 20  1  1  0  0  0
 21 22  1  1  0  0  0
 23 20  1  6  0  0  0
 23 29  1  0  0  0  0
 23 24  1  0  0  0  0
 24 26  1  0  0  0  0
 24 25  1  1  0  0  0
 26 27  1  1  0  0  0
 28 26  1  0  0  0  0
 28 30  1  1  0  0  0
 29 28  1  0  0  0  0
 30 31  1  0  0  0  0
 32 27  1  1  0  0  0
 32 40  1  0  0  0  0
 32 33  1  0  0  0  0
 33 35  1  0  0  0  0
 33 34  1  6  0  0  0
 35 37  1  0  0  0  0
 35 36  1  6  0  0  0
 37 38  1  1  0  0  0
 39 37  1  0  0  0  0
 39 41  1  6  0  0  0
 40 39  1  0  0  0  0
 42 41  1  0  0  0  0
M  END
>  <CHROM.1>
-165.52182427,-168.11416982,-31.79580578,-170.19553378,178.72932224,173.51315579
-170.05390009,111.72479113,-49.16437161,-169.26863864,133.77799138,64.84043749
-52.27293914,90.42793812,-121.39058321,-60.88268614,-66.37529918,-170.58676210
61.57952811,-51.20893047,85.03534206,-171.33218323,-2.37563569,2.40360182
3.17512841,0.71884210,-0.88501812,-2.93842595

>  <Name>
lig.pdb

>  <RI>
0

>  <Rbt.Current_Directory>
/home/itssahil/PROJECTS/Mol_Feturizer/New_Systems/rnas/2mxs

>  <Rbt.Executable>
rbdock ($Id: //depot/dev/client3/rdock/2013.1/src/exe/rbdock.cxx#4 $)

>  <Rbt.Library>
libRbt.so (2013.1, Build901 2013/11/27)

>  <Rbt.Parameter_File>
/export/apps/rDock/src/rDock_2013.1_src/data/scripts/dock_solv.prm

>  <Rbt.Receptor>
prm/pocket_docking_6.prm

>  <SCORE>
-30.6836

>  <SCORE.INTER>
-33.3913

>  <SCORE.INTER.CONST>
1

>  <SCORE.INTER.POLAR>
-5.10126

>  <SCORE.INTER.ROT>
9

>  <SCORE.INTER.SOLV>
19.0328

>  <SCORE.INTER.VDW>
-21.2009

>  <SCORE.INTER.norm>
-0.79503

>  <SCORE.INTRA>
2.68664

>  <SCORE.INTRA.DIHEDRAL>
-0.682369

>  <SCORE.INTRA.DIHEDRAL.0>
30.1357

>  <SCORE.INTRA.POLAR>
-0.533543

>  <SCORE.INTRA.POLAR.0>
-0.631696

>  <SCORE.INTRA.REPUL>
0

>  <SCORE.INTRA.REPUL.0>
0

>  <SCORE.INTRA.SOLV>
-0.295752

>  <SCORE.INTRA.SOLV.lig_0>
-55.904

>  <SCORE.INTRA.VDW>
4.98975

>  <SCORE.INTRA.VDW.0>
-8.21197

>  <SCORE.INTRA.norm>
0.0639677

>  <SCORE.RESTR>
0.0210386

>  <SCORE.RESTR.CAVITY>
0.0210386

>  <SCORE.RESTR.norm>
0.000500919

>  <SCORE.SYSTEM>
0

>  <SCORE.SYSTEM.CONST>
0

>  <SCORE.SYSTEM.DIHEDRAL>
0

>  <SCORE.SYSTEM.SOLV>
0

>  <SCORE.SYSTEM.norm>
0

>  <SCORE.heavy>
42

>  <SCORE.norm>
-0.730562

>  <RMSD>
6.524

$$$$
lig.pdb
 OpenBabel11021811453D
libRbt.so/2013.1/901 2013/11/27
 42 45  0  0  0  0  0  0  0  0999 V2000
   -3.3371    3.1206    1.6025 C   0  0  2  0  0  0  0  0  0  0  0  0
   -2.0171    3.1932    2.1447 O   0  0  0  0  0  0  0  0  0  0  0  0
   -4.2818    2.3785    2.5599 C   0  0  2  0  0  0  0  0  0  0  0  0
   -4.2661    2.9927    3.9004 N   0  0  0  0  0  0  0  0  0  0  0  0
   -3.9300    0.8870    2.6332 C   0  0  1  0  0  0  0  0  0  0  0  0
   -4.9085    0.2108    3.3993 O   0  0  0  0  0  0  0  0  0  0  0  0
   -3.8807    0.2819    1.2222 C   0  0  2  0  0  0  0  0  0  0  0  0
   -3.4023   -1.0472    1.2989 O   0  0  0  0  0  0  0  0  0  0  0  0
   -2.9782    1.1083    0.2836 C   0  0  2  0  0  0  0  0  0  0  0  0
   -3.3232    2.4927    0.3229 O   0  0  0  0  0  0  0  0  0  0  0  0
   -3.1548    0.5686   -1.1484 C   0  0  0  0  0  0  0  0  0  0  0  0
   -4.5000    0.7834   -1.6528 O   0  0  0  0  0  0  0  0  0  0  0  0
   -0.0926    6.5026    4.1132 C   0  0  2  0  0  0  0  0  0  0  0  0
   -0.0989    7.6871    4.9948 N   0  0  0  0  0  0  0  0  0  0  0  0
   -1.0333    6.7188    2.9251 C   0  0  0  0  0  0  0  0  0  0  0  0
   -1.1407    5.4499    2.0876 C   0  0  2  0  0  0  0  0  0  0  0  0
   -1.9657    5.6959    0.8982 N   0  0  0  0  0  0  0  0  0  0  0  0
   -1.7239    4.3260    2.9754 C   0  0  2  0  0  0  0  0  0  0  0  0
   -0.7300    4.0036    4.0448 C   0  0  2  0  0  0  0  0  0  0  0  0
   -1.2646    2.9459    4.8193 O   0  0  0  0  0  0  0  0  0  0  0  0
   -0.4794    5.2339    4.8962 C   0  0  1  0  0  0  0  0  0  0  0  0
    0.5182    5.0090    5.8746 O   0  0  0  0  0  0  0  0  0  0  0  0
   -0.4182    2.3432    5.7925 C   0  0  1  0  0  0  0  0  0  0  0  0
   -1.0548    2.5632    7.1664 C   0  0  2  0  0  0  0  0  0  0  0  0
   -0.0360    2.7679    8.1271 O   0  0  0  0  0  0  0  0  0  0  0  0
   -1.8279    1.2558    7.3859 C   0  0  2  0  0  0  0  0  0  0  0  0
   -2.1097    1.0041    8.7628 O   0  0  0  0  0  0  0  0  0  0  0  0
   -0.8588    0.2615    6.7344 C   0  0  2  0  0  0  0  0  0  0  0  0
   -0.3737    0.9374    5.5828 O   0  0  0  0  0  0  0  0  0  0  0  0
   -1.5042   -1.0600    6.3012 C   0  0  0  0  0  0  0  0  0  0  0  0
   -0.6452   -2.1571    6.5280 O   0  0  0  0  0  0  0  0  0  0  0  0
   -2.8668    2.0244    9.4107 C   0  0  2  0  0  0  0  0  0  0  0  0
   -2.9770    1.7798   10.9234 C   0  0  2  0  0  0  0  0  0  0  0  0
   -1.6439    1.6349   11.5316 N   0  0  0  0  0  0  0  0  0  0  0  0
   -3.8677    0.5652   11.2250 C   0  0  1  0  0  0  0  0  0  0  0  0
   -4.0022    0.4411   12.6276 O   0  0  0  0  0  0  0  0  0  0  0  0
   -5.2438    0.7988   10.5787 C   0  0  2  0  0  0  0  0  0  0  0  0
   -6.0927   -0.3142   10.7909 O   0  0  0  0  0  0  0  0  0  0  0  0
   -5.1038    1.0900    9.0704 C   0  0  1  0  0  0  0  0  0  0  0  0
   -4.1618    2.1368    8.8248 O   0  0  0  0  0  0  0  0  0  0  0  0
   -4.8008   -0.1621    8.2341 C   0  0  0  0  0  0  0  0  0  0  0  0
   -4.9600    0.1028    6.7951 N   0  0  0  0  0  0  0  0  0  0  0  0
  1  3  1  0  0  0  0
  1  2  1  1  0  0  0
  3  4  1  1  0  0  0
  5  6  1  1  0  0  0
  5  3  1  0  0  0  0
  7  9  1  0  0  0  0
  7  5  1  0  0  0  0
  7  8  1  1  0  0  0
  9 10  1  0  0  0  0
  9 11  1  6  0  0  0
 10  1  1  0  0  0  0
 11 12  1  0  0  0  0
 13 14  1  1  0  0  0
 13 21  1  0  0  0  0
 15 13  1  0  0  0  0
 16 15  1  0  0  0  0
 16 18  1  0  0  0  0
 16 17  1  6  0  0  0
 18  2  1  6  0  0  0
 18 19  1  0  0  0  0
 19 21  1  0  0  0  0
 19 20  1  1  0  0  0
 21 22  1  1  0  0  0
 23 20  1  6  0  0  0
 23 29  1  0  0  0  0
 23 24  1  0  0  0  0
 24 26  1  0  0  0  0
 24 25  1  1  0  0  0
 26 27  1  1  0  0  0
 28 26  1  0  0  0  0
 28 30  1  6  0  0  0
 29 28  1  0  0  0  0
 30 31  1  0  0  0  0
 32 27  1  6  0  0  0
 32 40  1  0  0  0  0
 32 33  1  0  0  0  0
 33 35  1  0  0  0  0
 33 34  1  6  0  0  0
 35 37  1  0  0  0  0
 35 36  1  1  0  0  0
 37 38  1  6  0  0  0
 39 37  1  0  0  0  0
 39 41  1  6  0  0  0
 40 39  1  0  0  0  0
 42 41  1  0  0  0  0
M  END
>  <CHROM.1>
-91.66906439,-89.07355982,176.70265199,-67.64083896,-59.96369421,-178.68674928
65.24621479,-75.55272877,-69.99042257,171.77583710,118.22977314,-56.65655013
177.69327655,58.43387846,-172.59963481,-142.08054754,67.90907272,59.40331177
60.12530836,176.30311872,167.82767042,61.98065751,-2.54687952,2.08606306
5.41227351,1.41128177,-0.97632008,-1.46398895

>  <Name>
lig.pdb

>  <RI>
4.11275e+07

>  <Rbt.Current_Directory>
/home/itssahil/PROJECTS/Mol_Feturizer/New_Systems/rnas/2mxs

>  <Rbt.Executable>
rbdock ($Id: //depot/dev/client3/rdock/2013.1/src/exe/rbdock.cxx#4 $)

>  <Rbt.Library>
libRbt.so (2013.1, Build901 2013/11/27)

>  <Rbt.Parameter_File>
/export/apps/rDock/src/rDock_2013.1_src/data/scripts/dock_solv.prm

>  <Rbt.Receptor>
prm/pocket_docking_8.prm

>  <SCORE>
-28.7785

>  <SCORE.INTER>
-24.3884

>  <SCORE.INTER.CONST>
1

>  <SCORE.INTER.POLAR>
-3.14736

>  <SCORE.INTER.ROT>
9

>  <SCORE.INTER.SOLV>
15.7342

>  <SCORE.INTER.VDW>
-20.6125

>  <SCORE.INTER.norm>
-0.580677

>  <SCORE.INTRA>
-4.39001

>  <SCORE.INTRA.DIHEDRAL>
-8.38938

>  <SCORE.INTRA.DIHEDRAL.0>
30.1357

>  <SCORE.INTRA.POLAR>
-0.369756

>  <SCORE.INTRA.POLAR.0>
-0.631696

>  <SCORE.INTRA.REPUL>
0

>  <SCORE.INTRA.REPUL.0>
0

>  <SCORE.INTRA.SOLV>
-0.328977

>  <SCORE.INTRA.SOLV.lig_0>
-55.904

>  <SCORE.INTRA.VDW>
1.22634

>  <SCORE.INTRA.VDW.0>
-8.21197

>  <SCORE.INTRA.norm>
-0.104524

>  <SCORE.RESTR>
0

>  <SCORE.RESTR.CAVITY>
0

>  <SCORE.RESTR.norm>
0

>  <SCORE.SYSTEM>
0

>  <SCORE.SYSTEM.CONST>
0

>  <SCORE.SYSTEM.DIHEDRAL>
0

>  <SCORE.SYSTEM.SOLV>
0

>  <SCORE.SYSTEM.norm>
0

>  <SCORE.heavy>
42

>  <SCORE.norm>
-0.685201

>  <RMSD>
6.526

$$$$
lig.pdb
 OpenBabel11021811453D
libRbt.so/2013.1/901 2013/11/27
 42 45  0  0  0  0  0  0  0  0999 V2000
   -1.7672    4.2811    1.3701 C   0  0  2  0  0  0  0  0  0  0  0  0
   -1.7338    5.4749    0.5857 O   0  0  0  0  0  0  0  0  0  0  0  0
   -3.1694    4.0482    1.9525 C   0  0  2  0  0  0  0  0  0  0  0  0
   -4.1899    4.0407    0.8881 N   0  0  0  0  0  0  0  0  0  0  0  0
   -3.5000    5.0938    3.0253 C   0  0  1  0  0  0  0  0  0  0  0  0
   -4.7275    4.7598    3.6443 O   0  0  0  0  0  0  0  0  0  0  0  0
   -2.3901    5.1368    4.0864 C   0  0  2  0  0  0  0  0  0  0  0  0
   -2.6328    6.2105    4.9750 O   0  0  0  0  0  0  0  0  0  0  0  0
   -0.9979    5.2966    3.4424 C   0  0  2  0  0  0  0  0  0  0  0  0
   -0.7933    4.3329    2.4097 O   0  0  0  0  0  0  0  0  0  0  0  0
    0.0633    5.1122    4.5438 C   0  0  0  0  0  0  0  0  0  0  0  0
    0.0694    6.2156    5.4888 O   0  0  0  0  0  0  0  0  0  0  0  0
    1.4699    7.3114   -1.6266 C   0  0  2  0  0  0  0  0  0  0  0  0
    2.8917    7.6488   -1.8385 N   0  0  0  0  0  0  0  0  0  0  0  0
    0.9752    7.8994   -0.3028 C   0  0  0  0  0  0  0  0  0  0  0  0
   -0.4475    7.4386   -0.0089 C   0  0  2  0  0  0  0  0  0  0  0  0
   -0.9480    8.0848    1.2108 N   0  0  0  0  0  0  0  0  0  0  0  0
   -0.4472    5.8967    0.1102 C   0  0  2  0  0  0  0  0  0  0  0  0
   -0.1195    5.3185   -1.2291 C   0  0  2  0  0  0  0  0  0  0  0  0
   -0.1656    3.9086   -1.1080 O   0  0  0  0  0  0  0  0  0  0  0  0
    1.2563    5.7865   -1.6641 C   0  0  1  0  0  0  0  0  0  0  0  0
    1.5842    5.3361   -2.9652 O   0  0  0  0  0  0  0  0  0  0  0  0
    0.9946    3.2473   -0.6145 C   0  0  1  0  0  0  0  0  0  0  0  0
    0.7831    2.9834    0.8779 C   0  0  2  0  0  0  0  0  0  0  0  0
    2.0166    3.1232    1.5574 O   0  0  0  0  0  0  0  0  0  0  0  0
    0.2566    1.5420    0.8874 C   0  0  2  0  0  0  0  0  0  0  0  0
    0.4324    0.8970    2.1491 O   0  0  0  0  0  0  0  0  0  0  0  0
    1.0839    0.9493   -0.2600 C   0  0  2  0  0  0  0  0  0  0  0  0
    1.1234    1.9769   -1.2402 O   0  0  0  0  0  0  0  0  0  0  0  0
    0.4828   -0.3141   -0.8869 C   0  0  0  0  0  0  0  0  0  0  0  0
   -0.4810    0.0009   -1.8692 O   0  0  0  0  0  0  0  0  0  0  0  0
    0.8221   -0.4725    2.0674 C   0  0  2  0  0  0  0  0  0  0  0  0
   -0.3459   -1.4181    2.3859 C   0  0  2  0  0  0  0  0  0  0  0  0
   -1.5016   -1.1381    1.5176 N   0  0  0  0  0  0  0  0  0  0  0  0
   -0.7285   -1.3457    3.8719 C   0  0  1  0  0  0  0  0  0  0  0  0
   -1.7459   -2.2958    4.1230 O   0  0  0  0  0  0  0  0  0  0  0  0
    0.5189   -1.6698    4.7115 C   0  0  2  0  0  0  0  0  0  0  0  0
    0.2309   -1.5746    6.0944 O   0  0  0  0  0  0  0  0  0  0  0  0
    1.6921   -0.7398    4.3400 C   0  0  1  0  0  0  0  0  0  0  0  0
    1.9274   -0.7318    2.9301 O   0  0  0  0  0  0  0  0  0  0  0  0
    1.5454    0.6807    4.9052 C   0  0  0  0  0  0  0  0  0  0  0  0
    2.7033    1.0497    5.7356 N   0  0  0  0  0  0  0  0  0  0  0  0
  1  3  1  0  0  0  0
  1  2  1  1  0  0  0
  3  4  1  6  0  0  0
  5  6  1  1  0  0  0
  5  3  1  0  0  0  0
  7  9  1  0  0  0  0
  7  5  1  0  0  0  0
  7  8  1  1  0  0  0
  9 10  1  0  0  0  0
  9 11  1  1  0  0  0
 10  1  1  0  0  0  0
 11 12  1  0  0  0  0
 13 14  1  1  0  0  0
 13 21  1  0  0  0  0
 15 13  1  0  0  0  0
 16 15  1  0  0  0  0
 16 18  1  0  0  0  0
 16 17  1  1  0  0  0
 18  2  1  6  0  0  0
 18 19  1  0  0  0  0
 19 21  1  0  0  0  0
 19 20  1  1  0  0  0
 21 22  1  6  0  0  0
 23 20  1  6  0  0  0
 23 29  1  0  0  0  0
 23 24  1  0  0  0  0
 24 26  1  0  0  0  0
 24 25  1  1  0  0  0
 26 27  1  1  0  0  0
 28 26  1  0  0  0  0
 28 30  1  6  0  0  0
 29 28  1  0  0  0  0
 30 31  1  0  0  0  0
 32 27  1  1  0  0  0
 32 40  1  0  0  0  0
 32 33  1  0  0  0  0
 33 35  1  0  0  0  0
 33 34  1  6  0  0  0
 35 37  1  0  0  0  0
 35 36  1  6  0  0  0
 37 38  1  1  0  0  0
 39 37  1  0  0  0  0
 39 41  1  6  0  0  0
 40 39  1  0  0  0  0
 42 41  1  0  0  0  0
M  END
>  <CHROM.1>
-149.82921361,172.94780334,-178.63090566,-171.67862102,-43.30486325,56.01350882
-69.63647831,-54.39470626,93.76113727,-83.69833453,98.00520083,-45.24038949
-62.61271846,-140.47300859,-104.60448216,84.17073728,-56.57793685,68.05359763
-67.86143954,59.09234563,123.28422133,-160.82749270,-0.20594066,3.08378397
1.69822177,1.64323315,1.05975458,-0.53572079

>  <Name>
lig.pdb

>  <RI>
0

>  <Rbt.Current_Directory>
/home/itssahil/PROJECTS/Mol_Feturizer/New_Systems/rnas/2mxs

>  <Rbt.Executable>
rbdock ($Id: //depot/dev/client3/rdock/2013.1/src/exe/rbdock.cxx#4 $)

>  <Rbt.Library>
libRbt.so (2013.1, Build901 2013/11/27)

>  <Rbt.Parameter_File>
/export/apps/rDock/src/rDock_2013.1_src/data/scripts/dock_solv.prm

>  <Rbt.Receptor>
prm/blind_docking_20.prm

>  <SCORE>
3.34303

>  <SCORE.INTER>
-24.276

>  <SCORE.INTER.CONST>
1

>  <SCORE.INTER.POLAR>
-3.21301

>  <SCORE.INTER.ROT>
9

>  <SCORE.INTER.SOLV>
27.0952

>  <SCORE.INTER.VDW>
-24.1057

>  <SCORE.INTER.norm>
-0.578

>  <SCORE.INTRA>
11.8448

>  <SCORE.INTRA.DIHEDRAL>
6.59274

>  <SCORE.INTRA.DIHEDRAL.0>
30.1357

>  <SCORE.INTRA.POLAR>
0.17443

>  <SCORE.INTRA.POLAR.0>
-0.631696

>  <SCORE.INTRA.REPUL>
0.0891078

>  <SCORE.INTRA.REPUL.0>
0

>  <SCORE.INTRA.SOLV>
0.684559

>  <SCORE.INTRA.SOLV.lig_0>
-55.904

>  <SCORE.INTRA.VDW>
7.16754

>  <SCORE.INTRA.VDW.0>
-8.21197

>  <SCORE.INTRA.norm>
0.282019

>  <SCORE.RESTR>
15.7742

>  <SCORE.RESTR.CAVITY>
15.7742

>  <SCORE.RESTR.norm>
0.375577

>  <SCORE.SYSTEM>
0

>  <SCORE.SYSTEM.CONST>
0

>  <SCORE.SYSTEM.DIHEDRAL>
0

>  <SCORE.SYSTEM.SOLV>
0

>  <SCORE.SYSTEM.norm>
0

>  <SCORE.heavy>
42

>  <SCORE.norm>
0.0795959

>  <RMSD>
6.572

$$$$
lig.pdb
 OpenBabel11021811453D
libRbt.so/2013.1/901 2013/11/27
 42 45  0  0  0  0  0  0  0  0999 V2000
    0.9263    5.1682   -1.4318 C   0  0  2  0  0  0  0  0  0  0  0  0
    1.1791    5.1478   -0.0256 O   0  0  0  0  0  0  0  0  0  0  0  0
    1.7358    4.0773   -2.1490 C   0  0  2  0  0  0  0  0  0  0  0  0
    1.4763    2.7514   -1.5583 N   0  0  0  0  0  0  0  0  0  0  0  0
    3.2346    4.4041   -2.1323 C   0  0  1  0  0  0  0  0  0  0  0  0
    3.9292    3.4637   -2.9289 O   0  0  0  0  0  0  0  0  0  0  0  0
    3.4774    5.8168   -2.6846 C   0  0  2  0  0  0  0  0  0  0  0  0
    4.8396    6.1586   -2.5144 O   0  0  0  0  0  0  0  0  0  0  0  0
    2.5856    6.8600   -1.9811 C   0  0  2  0  0  0  0  0  0  0  0  0
    1.2180    6.4519   -1.9784 O   0  0  0  0  0  0  0  0  0  0  0  0
    2.7281    8.1970   -2.7332 C   0  0  0  0  0  0  0  0  0  0  0  0
    2.7078    8.0194   -4.1748 O   0  0  0  0  0  0  0  0  0  0  0  0
   -1.4794    5.9454    3.2648 C   0  0  2  0  0  0  0  0  0  0  0  0
   -2.8159    5.9799    3.8918 N   0  0  0  0  0  0  0  0  0  0  0  0
   -1.4488    6.8463    2.0276 C   0  0  0  0  0  0  0  0  0  0  0  0
   -0.1194    6.7077    1.2954 C   0  0  2  0  0  0  0  0  0  0  0  0
   -0.0613    7.6466    0.1680 N   0  0  0  0  0  0  0  0  0  0  0  0
    0.0347    5.2393    0.8354 C   0  0  2  0  0  0  0  0  0  0  0  0
    0.1663    4.3747    2.0481 C   0  0  2  0  0  0  0  0  0  0  0  0
    0.3480    3.0425    1.6046 O   0  0  0  0  0  0  0  0  0  0  0  0
   -1.0800    4.5024    2.9035 C   0  0  1  0  0  0  0  0  0  0  0  0
   -0.9747    3.7684    4.1090 O   0  0  0  0  0  0  0  0  0  0  0  0
   -0.5914    2.5207    0.6706 C   0  0  1  0  0  0  0  0  0  0  0  0
   -0.5570    0.9945    0.7761 C   0  0  2  0  0  0  0  0  0  0  0  0
   -0.7498    0.4321   -0.5082 O   0  0  0  0  0  0  0  0  0  0  0  0
   -1.7188    0.7032    1.7355 C   0  0  2  0  0  0  0  0  0  0  0  0
   -2.2024   -0.6360    1.6283 O   0  0  0  0  0  0  0  0  0  0  0  0
   -2.7105    1.7841    1.2880 C   0  0  2  0  0  0  0  0  0  0  0  0
   -1.9045    2.9265    1.0357 O   0  0  0  0  0  0  0  0  0  0  0  0
   -3.7700    2.1440    2.3361 C   0  0  0  0  0  0  0  0  0  0  0  0
   -3.2352    2.1294    3.6425 O   0  0  0  0  0  0  0  0  0  0  0  0
   -2.7028   -1.1864    2.8452 C   0  0  2  0  0  0  0  0  0  0  0  0
   -2.8281   -2.7158    2.7707 C   0  0  2  0  0  0  0  0  0  0  0  0
   -1.5449   -3.3312    2.3930 N   0  0  0  0  0  0  0  0  0  0  0  0
   -3.9553   -3.1337    1.8144 C   0  0  1  0  0  0  0  0  0  0  0  0
   -4.0805   -4.5421    1.8523 O   0  0  0  0  0  0  0  0  0  0  0  0
   -5.2619   -2.4720    2.2842 C   0  0  2  0  0  0  0  0  0  0  0  0
   -6.3282   -2.7911    1.4091 O   0  0  0  0  0  0  0  0  0  0  0  0
   -5.0972   -0.9425    2.3977 C   0  0  1  0  0  0  0  0  0  0  0  0
   -3.9555   -0.5962    3.1850 O   0  0  0  0  0  0  0  0  0  0  0  0
   -5.0949   -0.2278    1.0383 C   0  0  0  0  0  0  0  0  0  0  0  0
   -6.4561   -0.1137    0.4902 N   0  0  0  0  0  0  0  0  0  0  0  0
  1  3  1  0  0  0  0
  1  2  1  1  0  0  0
  3  4  1  1  0  0  0
  5  6  1  6  0  0  0
  5  3  1  0  0  0  0
  7  9  1  0  0  0  0
  7  5  1  0  0  0  0
  7  8  1  1  0  0  0
  9 10  1  0  0  0  0
  9 11  1  6  0  0  0
 10  1  1  0  0  0  0
 11 12  1  0  0  0  0
 13 14  1  6  0  0  0
 13 21  1  0  0  0  0
 15 13  1  0  0  0  0
 16 15  1  0  0  0  0
 16 18  1  0  0  0  0
 16 17  1  6  0  0  0
 18  2  1  6  0  0  0
 18 19  1  0  0  0  0
 19 21  1  0  0  0  0
 19 20  1  6  0  0  0
 21 22  1  1  0  0  0
 23 20  1  1  0  0  0
 23 29  1  0  0  0  0
 23 24  1  0  0  0  0
 24 26  1  0  0  0  0
 24 25  1  6  0  0  0
 26 27  1  6  0  0  0
 28 26  1  0  0  0  0
 28 30  1  1  0  0  0
 29 28  1  0  0  0  0
 30 31  1  0  0  0  0
 32 27  1  6  0  0  0
 32 40  1  0  0  0  0
 32 33  1  0  0  0  0
 33 35  1  0  0  0  0
 33 34  1  6  0  0  0
 35 37  1  0  0  0  0
 35 36  1  1  0  0  0
 37 38  1  6  0  0  0
 39 37  1  0  0  0  0
 39 41  1  6  0  0  0
 40 39  1  0  0  0  0
 42 41  1  0  0  0  0
M  END
>  <CHROM.1>
-98.05556851,-134.55037268,47.96988097,-70.04009327,65.48572822,-59.93230747
42.93749573,-56.21102734,99.32672678,-52.08152351,-157.32466239,-65.16892091
-63.82301535,148.01955314,-163.71830503,37.21433617,59.27453572,77.29601305
-70.46831785,68.48318081,76.91020607,88.38022305,-1.00547274,2.63125599,0.71801837
-0.63495382,-0.75303319,-2.83974748

>  <Name>
lig.pdb

>  <RI>
3.99633e+07

>  <Rbt.Current_Directory>
/home/itssahil/PROJECTS/Mol_Feturizer/New_Systems/rnas/2mxs

>  <Rbt.Executable>
rbdock ($Id: //depot/dev/client3/rdock/2013.1/src/exe/rbdock.cxx#4 $)

>  <Rbt.Library>
libRbt.so (2013.1, Build901 2013/11/27)

>  <Rbt.Parameter_File>
/export/apps/rDock/src/rDock_2013.1_src/data/scripts/dock_solv.prm

>  <Rbt.Receptor>
prm/pocket_docking_5.prm

>  <SCORE>
-32.0681

>  <SCORE.INTER>
-35.7055

>  <SCORE.INTER.CONST>
1

>  <SCORE.INTER.POLAR>
-4.21878

>  <SCORE.INTER.ROT>
9

>  <SCORE.INTER.SOLV>
16.5532

>  <SCORE.INTER.VDW>
-24.8588

>  <SCORE.INTER.norm>
-0.850131

>  <SCORE.INTRA>
3.38829

>  <SCORE.INTRA.DIHEDRAL>
0.115529

>  <SCORE.INTRA.DIHEDRAL.0>
30.1357

>  <SCORE.INTRA.POLAR>
-1.66191

>  <SCORE.INTRA.POLAR.0>
-0.631696

>  <SCORE.INTRA.REPUL>
0

>  <SCORE.INTRA.REPUL.0>
0

>  <SCORE.INTRA.SOLV>
3.46726

>  <SCORE.INTRA.SOLV.lig_0>
-55.904

>  <SCORE.INTRA.VDW>
7.24737

>  <SCORE.INTRA.VDW.0>
-8.21197

>  <SCORE.INTRA.norm>
0.0806735

>  <SCORE.RESTR>
0.24913

>  <SCORE.RESTR.CAVITY>
0.24913

>  <SCORE.RESTR.norm>
0.00593168

>  <SCORE.SYSTEM>
0

>  <SCORE.SYSTEM.CONST>
0

>  <SCORE.SYSTEM.DIHEDRAL>
0

>  <SCORE.SYSTEM.SOLV>
0

>  <SCORE.SYSTEM.norm>
0

>  <SCORE.heavy>
42

>  <SCORE.norm>
-0.763526

>  <RMSD>
6.600

$$$$
lig.pdb
 OpenBabel11021811453D
libRbt.so/2013.1/901 2013/11/27
 42 45  0  0  0  0  0  0  0  0999 V2000
    1.2887    1.6425    1.1774 C   0  0  2  0  0  0  0  0  0  0  0  0
    2.6526    1.4842    0.7822 O   0  0  0  0  0  0  0  0  0  0  0  0
    0.8949    0.5849    2.2197 C   0  0  2  0  0  0  0  0  0  0  0  0
    1.8129    0.6115    3.3733 N   0  0  0  0  0  0  0  0  0  0  0  0
    0.8406   -0.8133    1.5909 C   0  0  1  0  0  0  0  0  0  0  0  0
    0.3292   -1.7337    2.5358 O   0  0  0  0  0  0  0  0  0  0  0  0
   -0.0635   -0.8037    0.3490 C   0  0  2  0  0  0  0  0  0  0  0  0
    0.0247   -2.0553   -0.3045 O   0  0  0  0  0  0  0  0  0  0  0  0
    0.3287    0.3239   -0.6273 C   0  0  2  0  0  0  0  0  0  0  0  0
    0.4247    1.5789    0.0455 O   0  0  0  0  0  0  0  0  0  0  0  0
   -0.7490    0.4031   -1.7252 C   0  0  0  0  0  0  0  0  0  0  0  0
   -2.0307    0.8454   -1.2037 O   0  0  0  0  0  0  0  0  0  0  0  0
    4.8257    3.6677   -2.2246 C   0  0  2  0  0  0  0  0  0  0  0  0
    5.0048    4.1862   -3.5955 N   0  0  0  0  0  0  0  0  0  0  0  0
    4.7633    2.1383   -2.2383 C   0  0  0  0  0  0  0  0  0  0  0  0
    4.4383    1.6018   -0.8493 C   0  0  2  0  0  0  0  0  0  0  0  0
    4.4775    0.1340   -0.8508 N   0  0  0  0  0  0  0  0  0  0  0  0
    3.0529    2.1443   -0.4275 C   0  0  2  0  0  0  0  0  0  0  0  0
    3.1564    3.6262   -0.2580 C   0  0  2  0  0  0  0  0  0  0  0  0
    1.8907    4.0963    0.1680 O   0  0  0  0  0  0  0  0  0  0  0  0
    3.5633    4.2630   -1.5734 C   0  0  1  0  0  0  0  0  0  0  0  0
    3.7582    5.6594   -1.4500 O   0  0  0  0  0  0  0  0  0  0  0  0
    0.8948    4.3127   -0.8262 C   0  0  1  0  0  0  0  0  0  0  0  0
   -0.4726    4.1097   -0.1701 C   0  0  2  0  0  0  0  0  0  0  0  0
   -1.3542    3.5108   -1.1011 O   0  0  0  0  0  0  0  0  0  0  0  0
   -0.8783    5.5430    0.1989 C   0  0  2  0  0  0  0  0  0  0  0  0
   -2.2868    5.6899    0.3813 O   0  0  0  0  0  0  0  0  0  0  0  0
   -0.3019    6.3003   -1.0037 C   0  0  2  0  0  0  0  0  0  0  0  0
    0.9418    5.6649   -1.2638 O   0  0  0  0  0  0  0  0  0  0  0  0
   -0.0557    7.7927   -0.7532 C   0  0  0  0  0  0  0  0  0  0  0  0
    0.9538    8.3023   -1.5983 O   0  0  0  0  0  0  0  0  0  0  0  0
   -2.6802    6.0546    1.7028 C   0  0  2  0  0  0  0  0  0  0  0  0
   -1.5097    6.6442    2.5044 C   0  0  2  0  0  0  0  0  0  0  0  0
   -0.9051    7.7826    1.7928 N   0  0  0  0  0  0  0  0  0  0  0  0
   -0.4648    5.5673    2.8330 C   0  0  1  0  0  0  0  0  0  0  0  0
    0.5411    6.1462    3.6417 O   0  0  0  0  0  0  0  0  0  0  0  0
   -1.1641    4.4265    3.5916 C   0  0  2  0  0  0  0  0  0  0  0  0
   -0.2512    3.3841    3.8820 O   0  0  0  0  0  0  0  0  0  0  0  0
   -2.3645    3.8836    2.7891 C   0  0  1  0  0  0  0  0  0  0  0  0
   -3.2431    4.9364    2.3852 O   0  0  0  0  0  0  0  0  0  0  0  0
   -1.9539    2.9937    1.6066 C   0  0  0  0  0  0  0  0  0  0  0  0
   -3.1276    2.5457    0.8398 N   0  0  0  0  0  0  0  0  0  0  0  0
  1  3  1  0  0  0  0
  1  2  1  6  0  0  0
  3  4  1  1  0  0  0
  5  6  1  1  0  0  0
  5  3  1  0  0  0  0
  7  9  1  0  0  0  0
  7  5  1  0  0  0  0
  7  8  1  6  0  0  0
  9 10  1  0  0  0  0
  9 11  1  6  0  0  0
 10  1  1  0  0  0  0
 11 12  1  0  0  0  0
 13 14  1  6  0  0  0
 13 21  1  0  0  0  0
 15 13  1  0  0  0  0
 16 15  1  0  0  0  0
 16 18  1  0  0  0  0
 16 17  1  6  0  0  0
 18  2  1  1  0  0  0
 18 19  1  0  0  0  0
 19 21  1  0  0  0  0
 19 20  1  6  0  0  0
 21 22  1  1  0  0  0
 23 20  1  1  0  0  0
 23 29  1  0  0  0  0
 23 24  1  0  0  0  0
 24 26  1  0  0  0  0
 24 25  1  6  0  0  0
 26 27  1  6  0  0  0
 28 26  1  0  0  0  0
 28 30  1  1  0  0  0
 29 28  1  0  0  0  0
 30 31  1  0  0  0  0
 32 27  1  6  0  0  0
 32 40  1  0  0  0  0
 32 33  1  0  0  0  0
 33 35  1  0  0  0  0
 33 34  1  6  0  0  0
 35 37  1  0  0  0  0
 35 36  1  1  0  0  0
 37 38  1  6  0  0  0
 39 37  1  0  0  0  0
 39 41  1  6  0  0  0
 40 39  1  0  0  0  0
 42 41  1  0  0  0  0
M  END
>  <CHROM.1>
-167.32955046,163.40045013,-18.74932164,-166.07121046,-69.30069587,-167.91022924
66.83096538,-94.41433372,-46.99154914,-82.00890717,151.64932696,-56.06768563
-150.84284307,116.43724331,18.52173087,154.50886629,64.46451827,121.96633742
178.68479823,-46.24725094,-177.65757060,-70.69324481,0.59133466,3.30400699
0.38296183,0.86821365,-0.60156777,2.98688233

>  <Name>
lig.pdb

>  <RI>
0

>  <Rbt.Current_Directory>
/home/itssahil/PROJECTS/Mol_Feturizer/New_Systems/rnas/2mxs

>  <Rbt.Executable>
rbdock ($Id: //depot/dev/client3/rdock/2013.1/src/exe/rbdock.cxx#4 $)

>  <Rbt.Library>
libRbt.so (2013.1, Build901 2013/11/27)

>  <Rbt.Parameter_File>
/export/apps/rDock/src/rDock_2013.1_src/data/scripts/dock_solv.prm

>  <Rbt.Receptor>
prm/blind_docking_60.prm

>  <SCORE>
28.9386

>  <SCORE.INTER>
-23.0214

>  <SCORE.INTER.CONST>
1

>  <SCORE.INTER.POLAR>
-6.29358

>  <SCORE.INTER.ROT>
9

>  <SCORE.INTER.SOLV>
27.3422

>  <SCORE.INTER.VDW>
-13.0831

>  <SCORE.INTER.norm>
-0.548129

>  <SCORE.INTRA>
25.702

>  <SCORE.INTRA.DIHEDRAL>
8.36248

>  <SCORE.INTRA.DIHEDRAL.0>
30.1357

>  <SCORE.INTRA.POLAR>
-0.680596

>  <SCORE.INTRA.POLAR.0>
-0.631696

>  <SCORE.INTRA.REPUL>
0

>  <SCORE.INTRA.REPUL.0>
0

>  <SCORE.INTRA.SOLV>
5.31656

>  <SCORE.INTRA.SOLV.lig_0>
-55.904

>  <SCORE.INTRA.VDW>
21.1765

>  <SCORE.INTRA.VDW.0>
-8.21197

>  <SCORE.INTRA.norm>
0.611953

>  <SCORE.RESTR>
26.2581

>  <SCORE.RESTR.CAVITY>
26.2581

>  <SCORE.RESTR.norm>
0.625192

>  <SCORE.SYSTEM>
0

>  <SCORE.SYSTEM.CONST>
0

>  <SCORE.SYSTEM.DIHEDRAL>
0

>  <SCORE.SYSTEM.SOLV>
0

>  <SCORE.SYSTEM.norm>
0

>  <SCORE.heavy>
42

>  <SCORE.norm>
0.689015

>  <RMSD>
6.635

$$$$
lig.pdb
 OpenBabel11021811453D
libRbt.so/2013.1/901 2013/11/27
 42 45  0  0  0  0  0  0  0  0999 V2000
    2.3508    0.4746    0.5257 C   0  0  2  0  0  0  0  0  0  0  0  0
    3.0754    1.7038    0.6009 O   0  0  0  0  0  0  0  0  0  0  0  0
    0.9081    0.7177    0.0574 C   0  0  2  0  0  0  0  0  0  0  0  0
    0.8835    1.4547   -1.2196 N   0  0  0  0  0  0  0  0  0  0  0  0
    0.0972    1.4520    1.1329 C   0  0  1  0  0  0  0  0  0  0  0  0
   -1.2580    1.5225    0.7328 O   0  0  0  0  0  0  0  0  0  0  0  0
    0.1941    0.7076    2.4732 C   0  0  2  0  0  0  0  0  0  0  0  0
   -0.4252    1.4800    3.4838 O   0  0  0  0  0  0  0  0  0  0  0  0
    1.6603    0.4238    2.8577 C   0  0  2  0  0  0  0  0  0  0  0  0
    2.3648   -0.1971    1.7828 O   0  0  0  0  0  0  0  0  0  0  0  0
    1.6619   -0.5054    4.0864 C   0  0  0  0  0  0  0  0  0  0  0  0
    0.6438   -1.5375    3.9940 O   0  0  0  0  0  0  0  0  0  0  0  0
    4.9764    3.8360   -2.6195 C   0  0  2  0  0  0  0  0  0  0  0  0
    5.0207    4.3585   -3.9998 N   0  0  0  0  0  0  0  0  0  0  0  0
    4.8611    2.3097   -2.6319 C   0  0  0  0  0  0  0  0  0  0  0  0
    4.6732    1.7739   -1.2175 C   0  0  2  0  0  0  0  0  0  0  0  0
    4.6622    0.3058   -1.2288 N   0  0  0  0  0  0  0  0  0  0  0  0
    3.3620    2.3591   -0.6432 C   0  0  2  0  0  0  0  0  0  0  0  0
    3.5337    3.8355   -0.4806 C   0  0  2  0  0  0  0  0  0  0  0  0
    2.3393    4.3443    0.0843 O   0  0  0  0  0  0  0  0  0  0  0  0
    3.8144    4.4682   -1.8305 C   0  0  1  0  0  0  0  0  0  0  0  0
    4.0690    5.8563   -1.7242 O   0  0  0  0  0  0  0  0  0  0  0  0
    1.2081    4.4814   -0.7692 C   0  0  1  0  0  0  0  0  0  0  0  0
   -0.0479    4.3242    0.0905 C   0  0  2  0  0  0  0  0  0  0  0  0
   -1.0455    3.6535   -0.6565 O   0  0  0  0  0  0  0  0  0  0  0  0
   -0.4167    5.7800    0.4064 C   0  0  2  0  0  0  0  0  0  0  0  0
   -1.7864    5.9355    0.7786 O   0  0  0  0  0  0  0  0  0  0  0  0
   -0.0298    6.4460   -0.9198 C   0  0  2  0  0  0  0  0  0  0  0  0
    1.1726    5.7967   -1.3085 O   0  0  0  0  0  0  0  0  0  0  0  0
    0.2286    7.9538   -0.8192 C   0  0  0  0  0  0  0  0  0  0  0  0
    1.6063    8.2517   -0.8975 O   0  0  0  0  0  0  0  0  0  0  0  0
   -2.0051    6.7963    1.8945 C   0  0  2  0  0  0  0  0  0  0  0  0
   -1.4082    6.2183    3.1867 C   0  0  2  0  0  0  0  0  0  0  0  0
    0.0228    5.9164    3.0163 N   0  0  0  0  0  0  0  0  0  0  0  0
   -2.1917    4.9828    3.6550 C   0  0  1  0  0  0  0  0  0  0  0  0
   -1.6533    4.5476    4.8885 O   0  0  0  0  0  0  0  0  0  0  0  0
   -3.6671    5.3805    3.8310 C   0  0  2  0  0  0  0  0  0  0  0  0
   -4.4442    4.2635    4.2218 O   0  0  0  0  0  0  0  0  0  0  0  0
   -4.2301    6.0024    2.5364 C   0  0  1  0  0  0  0  0  0  0  0  0
   -3.3965    7.0609    2.0588 O   0  0  0  0  0  0  0  0  0  0  0  0
   -4.5255    4.9664    1.4418 C   0  0  0  0  0  0  0  0  0  0  0  0
   -4.3512    3.5932    1.9422 N   0  0  0  0  0  0  0  0  0  0  0  0
  1  3  1  0  0  0  0
  1  2  1  1  0  0  0
  3  4  1  6  0  0  0
  5  6  1  6  0  0  0
  5  3  1  0  0  0  0
  7  9  1  0  0  0  0
  7  5  1  0  0  0  0
  7  8  1  1  0  0  0
  9 10  1  0  0  0  0
  9 11  1  1  0  0  0
 10  1  1  0  0  0  0
 11 12  1  0  0  0  0
 13 14  1  6  0  0  0
 13 21  1  0  0  0  0
 15 13  1  0  0  0  0
 16 15  1  0  0  0  0
 16 18  1  0  0  0  0
 16 17  1  6  0  0  0
 18  2  1  1  0  0  0
 18 19  1  0  0  0  0
 19 21  1  0  0  0  0
 19 20  1  6  0  0  0
 21 22  1  1  0  0  0
 23 20  1  1  0  0  0
 23 29  1  0  0  0  0
 23 24  1  0  0  0  0
 24 26  1  0  0  0  0
 24 25  1  6  0  0  0
 26 27  1  6  0  0  0
 28 26  1  0  0  0  0
 28 30  1  1  0  0  0
 29 28  1  0  0  0  0
 30 31  1  0  0  0  0
 32 27  1  6  0  0  0
 32 40  1  0  0  0  0
 32 33  1  0  0  0  0
 33 35  1  0  0  0  0
 33 34  1  6  0  0  0
 35 37  1  0  0  0  0
 35 36  1  1  0  0  0
 37 38  1  6  0  0  0
 39 37  1  0  0  0  0
 39 41  1  6  0  0  0
 40 39  1  0  0  0  0
 42 41  1  0  0  0  0
M  END
>  <CHROM.1>
-86.08164212,-68.30111700,48.66188625,-162.25315878,75.55676404,-51.93844100
40.57379165,21.33970155,-63.58422031,-76.17292114,151.06090507,-73.25401349
-63.23707048,136.61210757,-65.55464794,106.02736075,61.15030933,161.69198702
-57.43765655,68.59021125,6.79504581,66.61787477,0.51925307,3.64226377,0.78848059
0.03528737,-0.61930510,2.66871409

>  <Name>
lig.pdb

>  <RI>
0

>  <Rbt.Current_Directory>
/home/itssahil/PROJECTS/Mol_Feturizer/New_Systems/rnas/2mxs

>  <Rbt.Executable>
rbdock ($Id: //depot/dev/client3/rdock/2013.1/src/exe/rbdock.cxx#4 $)

>  <Rbt.Library>
libRbt.so (2013.1, Build901 2013/11/27)

>  <Rbt.Parameter_File>
/export/apps/rDock/src/rDock_2013.1_src/data/scripts/dock_solv.prm

>  <Rbt.Receptor>
prm/blind_docking_20.prm

>  <SCORE>
20.1159

>  <SCORE.INTER>
-12.8748

>  <SCORE.INTER.CONST>
1

>  <SCORE.INTER.POLAR>
-3.51108

>  <SCORE.INTER.ROT>
9

>  <SCORE.INTER.SOLV>
28.0326

>  <SCORE.INTER.VDW>
-15.8238

>  <SCORE.INTER.norm>
-0.306543

>  <SCORE.INTRA>
19.8501

>  <SCORE.INTRA.DIHEDRAL>
2.94588

>  <SCORE.INTRA.DIHEDRAL.0>
30.1357

>  <SCORE.INTRA.POLAR>
0.522742

>  <SCORE.INTRA.POLAR.0>
-0.631696

>  <SCORE.INTRA.REPUL>
0.0327907

>  <SCORE.INTRA.REPUL.0>
0

>  <SCORE.INTRA.SOLV>
4.83183

>  <SCORE.INTRA.SOLV.lig_0>
-55.904

>  <SCORE.INTRA.VDW>
14.0199

>  <SCORE.INTRA.VDW.0>
-8.21197

>  <SCORE.INTRA.norm>
0.472621

>  <SCORE.RESTR>
13.1406

>  <SCORE.RESTR.CAVITY>
13.1406

>  <SCORE.RESTR.norm>
0.312871

>  <SCORE.SYSTEM>
0

>  <SCORE.SYSTEM.CONST>
0

>  <SCORE.SYSTEM.DIHEDRAL>
0

>  <SCORE.SYSTEM.SOLV>
0

>  <SCORE.SYSTEM.norm>
0

>  <SCORE.heavy>
42

>  <SCORE.norm>
0.478949

>  <RMSD>
6.667

$$$$
lig.pdb
 OpenBabel11021811453D
libRbt.so/2013.1/901 2013/11/27
 42 45  0  0  0  0  0  0  0  0999 V2000
    1.7128    1.6739    0.9737 C   0  0  2  0  0  0  0  0  0  0  0  0
    3.0235    1.5006    0.4319 O   0  0  0  0  0  0  0  0  0  0  0  0
    1.3116    0.4652    1.8327 C   0  0  2  0  0  0  0  0  0  0  0  0
    2.3150    0.2051    2.8815 N   0  0  0  0  0  0  0  0  0  0  0  0
    1.0894   -0.7785    0.9624 C   0  0  1  0  0  0  0  0  0  0  0  0
    0.5757   -1.8260    1.7625 O   0  0  0  0  0  0  0  0  0  0  0  0
    0.0961   -0.4669   -0.1672 C   0  0  2  0  0  0  0  0  0  0  0  0
    0.0260   -1.5721   -1.0476 O   0  0  0  0  0  0  0  0  0  0  0  0
    0.5067    0.7977   -0.9486 C   0  0  2  0  0  0  0  0  0  0  0  0
    0.7615    1.8898   -0.0656 O   0  0  0  0  0  0  0  0  0  0  0  0
   -0.6420    1.1617   -1.9084 C   0  0  0  0  0  0  0  0  0  0  0  0
   -0.1825    1.3203   -3.2773 O   0  0  0  0  0  0  0  0  0  0  0  0
    4.9826    3.9043   -2.5538 C   0  0  2  0  0  0  0  0  0  0  0  0
    5.0605    4.5303   -3.8889 N   0  0  0  0  0  0  0  0  0  0  0  0
    4.8993    2.3814   -2.6844 C   0  0  0  0  0  0  0  0  0  0  0  0
    4.6771    1.7370   -1.3213 C   0  0  2  0  0  0  0  0  0  0  0  0
    4.6968    0.2739   -1.4429 N   0  0  0  0  0  0  0  0  0  0  0  0
    3.3363    2.2532   -0.7492 C   0  0  2  0  0  0  0  0  0  0  0  0
    3.4722    3.7159   -0.4708 C   0  0  2  0  0  0  0  0  0  0  0  0
    2.2500    4.1588    0.0902 O   0  0  0  0  0  0  0  0  0  0  0  0
    3.7830    4.4538   -1.7592 C   0  0  1  0  0  0  0  0  0  0  0  0
    4.0054    5.8344   -1.5407 O   0  0  0  0  0  0  0  0  0  0  0  0
    1.1589    4.3886   -0.7950 C   0  0  1  0  0  0  0  0  0  0  0  0
   -0.1223    4.4214    0.0409 C   0  0  2  0  0  0  0  0  0  0  0  0
   -1.1789    3.8392   -0.6990 O   0  0  0  0  0  0  0  0  0  0  0  0
   -0.3207    5.9237    0.2832 C   0  0  2  0  0  0  0  0  0  0  0  0
   -1.6686    6.2573    0.6157 O   0  0  0  0  0  0  0  0  0  0  0  0
    0.1669    6.4765   -1.0617 C   0  0  2  0  0  0  0  0  0  0  0  0
    1.2903    5.6723   -1.3927 O   0  0  0  0  0  0  0  0  0  0  0  0
    0.6013    7.9463   -1.0218 C   0  0  0  0  0  0  0  0  0  0  0  0
    1.9832    8.0734   -0.7625 O   0  0  0  0  0  0  0  0  0  0  0  0
   -1.8133    7.0331    1.8037 C   0  0  2  0  0  0  0  0  0  0  0  0
   -1.1839    6.3369    3.0200 C   0  0  2  0  0  0  0  0  0  0  0  0
    0.2282    6.0070    2.7651 N   0  0  0  0  0  0  0  0  0  0  0  0
   -1.9882    5.0920    3.4238 C   0  0  1  0  0  0  0  0  0  0  0  0
   -1.4149    4.5445    4.5953 O   0  0  0  0  0  0  0  0  0  0  0  0
   -3.4413    5.5183    3.6936 C   0  0  2  0  0  0  0  0  0  0  0  0
   -4.2384    4.3974    4.0292 O   0  0  0  0  0  0  0  0  0  0  0  0
   -4.0355    6.2573    2.4769 C   0  0  1  0  0  0  0  0  0  0  0  0
   -3.1874    7.3251    2.0479 O   0  0  0  0  0  0  0  0  0  0  0  0
   -4.4091    5.3206    1.3185 C   0  0  0  0  0  0  0  0  0  0  0  0
   -3.3249    4.3686    1.0279 N   0  0  0  0  0  0  0  0  0  0  0  0
  1  3  1  0  0  0  0
  1  2  1  6  0  0  0
  3  4  1  1  0  0  0
  5  6  1  1  0  0  0
  5  3  1  0  0  0  0
  7  9  1  0  0  0  0
  7  5  1  0  0  0  0
  7  8  1  6  0  0  0
  9 10  1  0  0  0  0
  9 11  1  6  0  0  0
 10  1  1  0  0  0  0
 11 12  1  0  0  0  0
 13 14  1  6  0  0  0
 13 21  1  0  0  0  0
 15 13  1  0  0  0  0
 16 15  1  0  0  0  0
 16 18  1  0  0  0  0
 16 17  1  6  0  0  0
 18  2  1  1  0  0  0
 18 19  1  0  0  0  0
 19 21  1  0  0  0  0
 19 20  1  6  0  0  0
 21 22  1  1  0  0  0
 23 20  1  1  0  0  0
 23 29  1  0  0  0  0
 23 24  1  0  0  0  0
 24 26  1  0  0  0  0
 24 25  1  6  0  0  0
 26 27  1  6  0  0  0
 28 26  1  0  0  0  0
 28 30  1  1  0  0  0
 29 28  1  0  0  0  0
 30 31  1  0  0  0  0
 32 27  1  6  0  0  0
 32 40  1  0  0  0  0
 32 33  1  0  0  0  0
 33 35  1  0  0  0  0
 33 34  1  6  0  0  0
 35 37  1  0  0  0  0
 35 36  1  1  0  0  0
 37 38  1  6  0  0  0
 39 37  1  0  0  0  0
 39 41  1  6  0  0  0
 40 39  1  0  0  0  0
 42 41  1  0  0  0  0
M  END
>  <CHROM.1>
-169.58057869,157.22908902,167.53101917,76.73779894,-69.25957413,174.75368656
-127.33804686,-101.91513388,-77.65959068,-78.52709784,162.50718158,171.34515493
141.83302164,127.97423332,-56.72079264,92.06622265,-68.31298714,157.05930666
-51.96271776,-168.34515445,-47.07674784,78.16759737,0.59016359,3.61625548
0.25028321,0.47189046,-0.62390550,3.00838089

>  <Name>
lig.pdb

>  <RI>
0

>  <Rbt.Current_Directory>
/home/itssahil/PROJECTS/Mol_Feturizer/New_Systems/rnas/2mxs

>  <Rbt.Executable>
rbdock ($Id: //depot/dev/client3/rdock/2013.1/src/exe/rbdock.cxx#4 $)

>  <Rbt.Library>
libRbt.so (2013.1, Build901 2013/11/27)

>  <Rbt.Parameter_File>
/export/apps/rDock/src/rDock_2013.1_src/data/scripts/dock_solv.prm

>  <Rbt.Receptor>
prm/blind_docking_60.prm

>  <SCORE>
20.1278

>  <SCORE.INTER>
-14.0771

>  <SCORE.INTER.CONST>
1

>  <SCORE.INTER.POLAR>
-4.83955

>  <SCORE.INTER.ROT>
9

>  <SCORE.INTER.SOLV>
31.9084

>  <SCORE.INTER.VDW>
-13.489

>  <SCORE.INTER.norm>
-0.335169

>  <SCORE.INTRA>
13.029

>  <SCORE.INTRA.DIHEDRAL>
5.84189

>  <SCORE.INTRA.DIHEDRAL.0>
30.1357

>  <SCORE.INTRA.POLAR>
-1.20978

>  <SCORE.INTRA.POLAR.0>
-0.631696

>  <SCORE.INTRA.REPUL>
0

>  <SCORE.INTRA.REPUL.0>
0

>  <SCORE.INTRA.SOLV>
3.42736

>  <SCORE.INTRA.SOLV.lig_0>
-55.904

>  <SCORE.INTRA.VDW>
12.5077

>  <SCORE.INTRA.VDW.0>
-8.21197

>  <SCORE.INTRA.norm>
0.310215

>  <SCORE.RESTR>
21.1758

>  <SCORE.RESTR.CAVITY>
21.1758

>  <SCORE.RESTR.norm>
0.504187

>  <SCORE.SYSTEM>
0

>  <SCORE.SYSTEM.CONST>
0

>  <SCORE.SYSTEM.DIHEDRAL>
0

>  <SCORE.SYSTEM.SOLV>
0

>  <SCORE.SYSTEM.norm>
0

>  <SCORE.heavy>
42

>  <SCORE.norm>
0.479232

>  <RMSD>
6.672

$$$$
lig.pdb
 OpenBabel11021811453D
libRbt.so/2013.1/901 2013/11/27
 42 45  0  0  0  0  0  0  0  0999 V2000
   -1.7999    4.5377    1.3732 C   0  0  2  0  0  0  0  0  0  0  0  0
   -1.7494    5.6819    0.5190 O   0  0  0  0  0  0  0  0  0  0  0  0
   -3.1642    4.4362    2.0718 C   0  0  2  0  0  0  0  0  0  0  0  0
   -4.2636    4.4434    1.0891 N   0  0  0  0  0  0  0  0  0  0  0  0
   -3.3392    5.5591    3.1023 C   0  0  1  0  0  0  0  0  0  0  0  0
   -4.5335    5.3466    3.8303 O   0  0  0  0  0  0  0  0  0  0  0  0
   -2.1486    5.5809    4.0729 C   0  0  2  0  0  0  0  0  0  0  0  0
   -2.2489    6.7155    4.9119 O   0  0  0  0  0  0  0  0  0  0  0  0
   -0.8041    5.6068    3.3180 C   0  0  2  0  0  0  0  0  0  0  0  0
   -0.7459    4.5767    2.3319 O   0  0  0  0  0  0  0  0  0  0  0  0
    0.3261    5.4077    4.3459 C   0  0  0  0  0  0  0  0  0  0  0  0
    0.1375    4.2072    5.1417 O   0  0  0  0  0  0  0  0  0  0  0  0
    1.4951    7.5201   -1.6318 C   0  0  2  0  0  0  0  0  0  0  0  0
    2.9278    7.7953   -1.8591 N   0  0  0  0  0  0  0  0  0  0  0  0
    1.0702    8.0201   -0.2488 C   0  0  0  0  0  0  0  0  0  0  0  0
   -0.3684    7.6151    0.0499 C   0  0  2  0  0  0  0  0  0  0  0  0
   -0.7985    8.1822    1.3341 N   0  0  0  0  0  0  0  0  0  0  0  0
   -0.4537    6.0711    0.0404 C   0  0  2  0  0  0  0  0  0  0  0  0
   -0.1953    5.5913   -1.3520 C   0  0  2  0  0  0  0  0  0  0  0  0
   -0.3192    4.1809   -1.3471 O   0  0  0  0  0  0  0  0  0  0  0  0
    1.1932    6.0179   -1.7893 C   0  0  1  0  0  0  0  0  0  0  0  0
    1.4601    5.6621   -3.1328 O   0  0  0  0  0  0  0  0  0  0  0  0
    0.8732    3.4102   -1.4529 C   0  0  1  0  0  0  0  0  0  0  0  0
    1.2487    2.9345   -0.0479 C   0  0  2  0  0  0  0  0  0  0  0  0
    2.6578    2.9249    0.0821 O   0  0  0  0  0  0  0  0  0  0  0  0
    0.6354    1.5286    0.0001 C   0  0  2  0  0  0  0  0  0  0  0  0
    1.2365    0.6963    0.9924 O   0  0  0  0  0  0  0  0  0  0  0  0
    0.8779    1.0833   -1.4473 C   0  0  2  0  0  0  0  0  0  0  0  0
    0.6215    2.2436   -2.2261 O   0  0  0  0  0  0  0  0  0  0  0  0
   -0.0397   -0.0488   -1.9236 C   0  0  0  0  0  0  0  0  0  0  0  0
   -1.1422    0.4473   -2.6526 O   0  0  0  0  0  0  0  0  0  0  0  0
    0.3348   -0.1937    1.6474 C   0  0  2  0  0  0  0  0  0  0  0  0
   -0.5947    0.5489    2.6193 C   0  0  2  0  0  0  0  0  0  0  0  0
   -1.3171    1.6326    1.9323 N   0  0  0  0  0  0  0  0  0  0  0  0
    0.1813    1.0739    3.8366 C   0  0  1  0  0  0  0  0  0  0  0  0
   -0.7355    1.6699    4.7338 O   0  0  0  0  0  0  0  0  0  0  0  0
    0.8884   -0.1136    4.5116 C   0  0  2  0  0  0  0  0  0  0  0  0
    1.6557    0.3231    5.6184 O   0  0  0  0  0  0  0  0  0  0  0  0
    1.7777   -0.8722    3.5050 C   0  0  1  0  0  0  0  0  0  0  0  0
    1.0506   -1.2236    2.3256 O   0  0  0  0  0  0  0  0  0  0  0  0
    3.0860   -0.1385    3.1750 C   0  0  0  0  0  0  0  0  0  0  0  0
    3.8773    0.1189    4.3891 N   0  0  0  0  0  0  0  0  0  0  0  0
  1  3  1  0  0  0  0
  1  2  1  1  0  0  0
  3  4  1  6  0  0  0
  5  6  1  1  0  0  0
  5  3  1  0  0  0  0
  7  9  1  0  0  0  0
  7  5  1  0  0  0  0
  7  8  1  1  0  0  0
  9 10  1  0  0  0  0
  9 11  1  1  0  0  0
 10  1  1  0  0  0  0
 11 12  1  0  0  0  0
 13 14  1  1  0  0  0
 13 21  1  0  0  0  0
 15 13  1  0  0  0  0
 16 15  1  0  0  0  0
 16 18  1  0  0  0  0
 16 17  1  1  0  0  0
 18  2  1  6  0  0  0
 18 19  1  0  0  0  0
 19 21  1  0  0  0  0
 19 20  1  1  0  0  0
 21 22  1  6  0  0  0
 23 20  1  1  0  0  0
 23 29  1  0  0  0  0
 23 24  1  0  0  0  0
 24 26  1  0  0  0  0
 24 25  1  6  0  0  0
 26 27  1  1  0  0  0
 28 26  1  0  0  0  0
 28 30  1  6  0  0  0
 29 28  1  0  0  0  0
 30 31  1  0  0  0  0
 32 27  1  1  0  0  0
 32 40  1  0  0  0  0
 32 33  1  0  0  0  0
 33 35  1  0  0  0  0
 33 34  1  6  0  0  0
 35 37  1  0  0  0  0
 35 36  1  1  0  0  0
 37 38  1  1  0  0  0
 39 37  1  0  0  0  0
 39 41  1  6  0  0  0
 40 39  1  0  0  0  0
 42 41  1  0  0  0  0
M  END
>  <CHROM.1>
-140.63759111,166.40188329,-174.93147115,-167.20971363,-169.46553873,53.94590370
54.39518581,83.15078638,-155.65977954,-107.04266051,100.19014329,-75.63932254
69.13362734,143.90865193,-72.65494458,97.45123022,65.13158673,43.21112507
57.56223143,83.78063961,57.55501537,-8.17610660,-0.03270523,3.50118830,1.35592348
1.96804892,1.04265923,-0.82980216

>  <Name>
lig.pdb

>  <RI>
0

>  <Rbt.Current_Directory>
/home/itssahil/PROJECTS/Mol_Feturizer/New_Systems/rnas/2mxs

>  <Rbt.Executable>
rbdock ($Id: //depot/dev/client3/rdock/2013.1/src/exe/rbdock.cxx#4 $)

>  <Rbt.Library>
libRbt.so (2013.1, Build901 2013/11/27)

>  <Rbt.Parameter_File>
/export/apps/rDock/src/rDock_2013.1_src/data/scripts/dock_solv.prm

>  <Rbt.Receptor>
prm/blind_docking_20.prm

>  <SCORE>
3.31624

>  <SCORE.INTER>
-17.0477

>  <SCORE.INTER.CONST>
1

>  <SCORE.INTER.POLAR>
-3.39488

>  <SCORE.INTER.ROT>
9

>  <SCORE.INTER.SOLV>
28.5341

>  <SCORE.INTER.VDW>
-19.1602

>  <SCORE.INTER.norm>
-0.405897

>  <SCORE.INTRA>
6.11311

>  <SCORE.INTRA.DIHEDRAL>
9.78624

>  <SCORE.INTRA.DIHEDRAL.0>
30.1357

>  <SCORE.INTRA.POLAR>
-1.53972

>  <SCORE.INTRA.POLAR.0>
-0.631696

>  <SCORE.INTRA.REPUL>
0

>  <SCORE.INTRA.REPUL.0>
0

>  <SCORE.INTRA.SOLV>
2.33056

>  <SCORE.INTRA.SOLV.lig_0>
-55.904

>  <SCORE.INTRA.VDW>
5.28976

>  <SCORE.INTRA.VDW.0>
-8.21197

>  <SCORE.INTRA.norm>
0.14555

>  <SCORE.RESTR>
14.2508

>  <SCORE.RESTR.CAVITY>
14.2508

>  <SCORE.RESTR.norm>
0.339305

>  <SCORE.SYSTEM>
0

>  <SCORE.SYSTEM.CONST>
0

>  <SCORE.SYSTEM.DIHEDRAL>
0

>  <SCORE.SYSTEM.SOLV>
0

>  <SCORE.SYSTEM.norm>
0

>  <SCORE.heavy>
42

>  <SCORE.norm>
0.0789582

>  <RMSD>
6.678

$$$$
lig.pdb
 OpenBabel11021811453D
libRbt.so/2013.1/901 2013/11/27
 42 45  0  0  0  0  0  0  0  0999 V2000
    1.0917    5.5767    1.1619 C   0  0  2  0  0  0  0  0  0  0  0  0
   -0.3050    5.8676    1.2397 O   0  0  0  0  0  0  0  0  0  0  0  0
    1.6308    5.8548   -0.2493 C   0  0  2  0  0  0  0  0  0  0  0  0
    1.3281    7.2357   -0.6687 N   0  0  0  0  0  0  0  0  0  0  0  0
    1.0798    4.8393   -1.2586 C   0  0  1  0  0  0  0  0  0  0  0  0
    1.7123    5.0299   -2.5096 O   0  0  0  0  0  0  0  0  0  0  0  0
    1.3413    3.4069   -0.7690 C   0  0  2  0  0  0  0  0  0  0  0  0
    0.6899    2.4917   -1.6289 O   0  0  0  0  0  0  0  0  0  0  0  0
    0.8482    3.2051    0.6783 C   0  0  2  0  0  0  0  0  0  0  0  0
    1.3478    4.2266    1.5408 O   0  0  0  0  0  0  0  0  0  0  0  0
    1.3392    1.8280    1.1638 C   0  0  0  0  0  0  0  0  0  0  0  0
    2.7212    1.5772    0.7930 O   0  0  0  0  0  0  0  0  0  0  0  0
   -0.8174    7.4770    5.1992 C   0  0  2  0  0  0  0  0  0  0  0  0
   -1.6174    7.7504    6.4098 N   0  0  0  0  0  0  0  0  0  0  0  0
   -1.4552    8.1444    3.9782 C   0  0  0  0  0  0  0  0  0  0  0  0
   -0.7162    7.7516    2.7044 C   0  0  2  0  0  0  0  0  0  0  0  0
   -1.2727    8.4725    1.5527 N   0  0  0  0  0  0  0  0  0  0  0  0
   -0.8184    6.2181    2.5330 C   0  0  2  0  0  0  0  0  0  0  0  0
   -0.0564    5.5660    3.6420 C   0  0  2  0  0  0  0  0  0  0  0  0
   -0.1276    4.1660    3.4429 O   0  0  0  0  0  0  0  0  0  0  0  0
   -0.6595    5.9611    4.9767 C   0  0  1  0  0  0  0  0  0  0  0  0
    0.0753    5.4384    6.0675 O   0  0  0  0  0  0  0  0  0  0  0  0
   -1.1571    3.4517    4.1188 C   0  0  1  0  0  0  0  0  0  0  0  0
   -1.7379    2.4300    3.1391 C   0  0  2  0  0  0  0  0  0  0  0  0
   -3.1296    2.3047    3.3638 O   0  0  0  0  0  0  0  0  0  0  0  0
   -0.9596    1.1550    3.4908 C   0  0  2  0  0  0  0  0  0  0  0  0
   -1.6275   -0.0348    3.0702 O   0  0  0  0  0  0  0  0  0  0  0  0
   -0.8431    1.3255    5.0105 C   0  0  2  0  0  0  0  0  0  0  0  0
   -0.5974    2.7123    5.1969 O   0  0  0  0  0  0  0  0  0  0  0  0
    0.2982    0.5272    5.6514 C   0  0  0  0  0  0  0  0  0  0  0  0
    0.1061   -0.8638    5.5048 O   0  0  0  0  0  0  0  0  0  0  0  0
   -0.7697   -1.0397    2.5330 C   0  0  2  0  0  0  0  0  0  0  0  0
   -1.1464   -1.3984    1.0875 C   0  0  2  0  0  0  0  0  0  0  0  0
   -1.1638   -0.1981    0.2348 N   0  0  0  0  0  0  0  0  0  0  0  0
   -2.4872   -2.1461    1.0333 C   0  0  1  0  0  0  0  0  0  0  0  0
   -2.7391   -2.5249   -0.3061 O   0  0  0  0  0  0  0  0  0  0  0  0
   -2.3847   -3.3937    1.9271 C   0  0  2  0  0  0  0  0  0  0  0  0
   -3.6125   -4.0984    1.9468 O   0  0  0  0  0  0  0  0  0  0  0  0
   -1.9584   -3.0135    3.3601 C   0  0  1  0  0  0  0  0  0  0  0  0
   -0.7813   -2.2026    3.3580 O   0  0  0  0  0  0  0  0  0  0  0  0
   -3.0896   -2.3807    4.1840 C   0  0  0  0  0  0  0  0  0  0  0  0
   -2.6144   -1.9585    5.5115 N   0  0  0  0  0  0  0  0  0  0  0  0
  1  3  1  0  0  0  0
  1  2  1  6  0  0  0
  3  4  1  6  0  0  0
  5  6  1  6  0  0  0
  5  3  1  0  0  0  0
  7  9  1  0  0  0  0
  7  5  1  0  0  0  0
  7  8  1  6  0  0  0
  9 10  1  0  0  0  0
  9 11  1  1  0  0  0
 10  1  1  0  0  0  0
 11 12  1  0  0  0  0
 13 14  1  1  0  0  0
 13 21  1  0  0  0  0
 15 13  1  0  0  0  0
 16 15  1  0  0  0  0
 16 18  1  0  0  0  0
 16 17  1  6  0  0  0
 18  2  1  6  0  0  0
 18 19  1  0  0  0  0
 19 21  1  0  0  0  0
 19 20  1  6  0  0  0
 21 22  1  1  0  0  0
 23 20  1  6  0  0  0
 23 29  1  0  0  0  0
 23 24  1  0  0  0  0
 24 26  1  0  0  0  0
 24 25  1  1  0  0  0
 26 27  1  1  0  0  0
 28 26  1  0  0  0  0
 28 30  1  6  0  0  0
 29 28  1  0  0  0  0
 30 31  1  0  0  0  0
 32 27  1  1  0  0  0
 32 40  1  0  0  0  0
 32 33  1  0  0  0  0
 33 35  1  0  0  0  0
 33 34  1  6  0  0  0
 35 37  1  0  0  0  0
 35 36  1  6  0  0  0
 37 38  1  1  0  0  0
 39 37  1  0  0  0  0
 39 41  1  6  0  0  0
 40 39  1  0  0  0  0
 42 41  1  0  0  0  0
M  END
>  <CHROM.1>
90.03481034,-153.83935036,166.80888735,70.03146105,-61.04648587,-167.91557009
43.52166323,-73.66366084,162.48879419,-94.22209612,138.09165063,179.21329293
-50.90986799,140.06554155,-120.76285601,-63.72153052,-179.91335706,-158.94203717
74.59035533,71.57068296,-176.42971578,59.90597810,-0.60015717,2.51896732
2.44922555,-0.93252073,-1.19181774,-2.59910067

>  <Name>
lig.pdb

>  <RI>
0

>  <Rbt.Current_Directory>
/home/itssahil/PROJECTS/Mol_Feturizer/New_Systems/rnas/2mxs

>  <Rbt.Executable>
rbdock ($Id: //depot/dev/client3/rdock/2013.1/src/exe/rbdock.cxx#4 $)

>  <Rbt.Library>
libRbt.so (2013.1, Build901 2013/11/27)

>  <Rbt.Parameter_File>
/export/apps/rDock/src/rDock_2013.1_src/data/scripts/dock_solv.prm

>  <Rbt.Receptor>
prm/pocket_docking_4.prm

>  <SCORE>
-29.4165

>  <SCORE.INTER>
-34.6232

>  <SCORE.INTER.CONST>
1

>  <SCORE.INTER.POLAR>
-2.99887

>  <SCORE.INTER.ROT>
9

>  <SCORE.INTER.SOLV>
19.7078

>  <SCORE.INTER.VDW>
-29.2551

>  <SCORE.INTER.norm>
-0.824361

>  <SCORE.INTRA>
5.13936

>  <SCORE.INTRA.DIHEDRAL>
6.28539

>  <SCORE.INTRA.DIHEDRAL.0>
30.1357

>  <SCORE.INTRA.POLAR>
-1.33458

>  <SCORE.INTRA.POLAR.0>
-0.631696

>  <SCORE.INTRA.REPUL>
0.199742

>  <SCORE.INTRA.REPUL.0>
0

>  <SCORE.INTRA.SOLV>
2.0629

>  <SCORE.INTRA.SOLV.lig_0>
-55.904

>  <SCORE.INTRA.VDW>
4.50407

>  <SCORE.INTRA.VDW.0>
-8.21197

>  <SCORE.INTRA.norm>
0.122366

>  <SCORE.RESTR>
0.067308

>  <SCORE.RESTR.CAVITY>
0.067308

>  <SCORE.RESTR.norm>
0.00160257

>  <SCORE.SYSTEM>
0

>  <SCORE.SYSTEM.CONST>
0

>  <SCORE.SYSTEM.DIHEDRAL>
0

>  <SCORE.SYSTEM.SOLV>
0

>  <SCORE.SYSTEM.norm>
0

>  <SCORE.heavy>
42

>  <SCORE.norm>
-0.700393

>  <RMSD>
6.685

$$$$
lig.pdb
 OpenBabel11021811453D
libRbt.so/2013.1/901 2013/11/27
 42 45  0  0  0  0  0  0  0  0999 V2000
   -1.1456    6.2789    1.2338 C   0  0  2  0  0  0  0  0  0  0  0  0
   -0.4451    5.9511    2.4352 O   0  0  0  0  0  0  0  0  0  0  0  0
   -1.4686    5.0129    0.4259 C   0  0  2  0  0  0  0  0  0  0  0  0
   -2.2048    4.0344    1.2475 N   0  0  0  0  0  0  0  0  0  0  0  0
   -0.1926    4.3928   -0.1579 C   0  0  1  0  0  0  0  0  0  0  0  0
   -0.5405    3.3239   -1.0170 O   0  0  0  0  0  0  0  0  0  0  0  0
    0.5967    5.4461   -0.9499 C   0  0  2  0  0  0  0  0  0  0  0  0
    1.8409    4.9004   -1.3444 O   0  0  0  0  0  0  0  0  0  0  0  0
    0.8273    6.7238   -0.1177 C   0  0  2  0  0  0  0  0  0  0  0  0
   -0.3942    7.1995    0.4467 O   0  0  0  0  0  0  0  0  0  0  0  0
    1.4249    7.7985   -1.0458 C   0  0  0  0  0  0  0  0  0  0  0  0
    2.7617    7.4514   -1.4961 O   0  0  0  0  0  0  0  0  0  0  0  0
   -1.0268    7.7177    6.3174 C   0  0  2  0  0  0  0  0  0  0  0  0
   -1.8766    8.1908    7.4285 N   0  0  0  0  0  0  0  0  0  0  0  0
   -1.3521    8.4865    5.0343 C   0  0  0  0  0  0  0  0  0  0  0  0
   -0.5813    7.9097    3.8528 C   0  0  2  0  0  0  0  0  0  0  0  0
   -0.8238    8.7135    2.6483 N   0  0  0  0  0  0  0  0  0  0  0  0
   -1.0096    6.4360    3.6622 C   0  0  2  0  0  0  0  0  0  0  0  0
   -0.5480    5.6516    4.8484 C   0  0  2  0  0  0  0  0  0  0  0  0
   -0.9127    4.3004    4.6347 O   0  0  0  0  0  0  0  0  0  0  0  0
   -1.1938    6.2011    6.1063 C   0  0  1  0  0  0  0  0  0  0  0  0
   -0.7269    5.5486    7.2721 O   0  0  0  0  0  0  0  0  0  0  0  0
   -2.1966    3.8810    5.0849 C   0  0  1  0  0  0  0  0  0  0  0  0
   -2.8120    3.0047    3.9919 C   0  0  2  0  0  0  0  0  0  0  0  0
   -4.2080    3.2316    3.9407 O   0  0  0  0  0  0  0  0  0  0  0  0
   -2.4546    1.5886    4.4631 C   0  0  2  0  0  0  0  0  0  0  0  0
   -3.3016    0.5873    3.8985 O   0  0  0  0  0  0  0  0  0  0  0  0
   -2.5939    1.7700    5.9796 C   0  0  2  0  0  0  0  0  0  0  0  0
   -2.0544    3.0590    6.2365 O   0  0  0  0  0  0  0  0  0  0  0  0
   -1.8299    0.7352    6.8137 C   0  0  0  0  0  0  0  0  0  0  0  0
   -1.9074    1.0202    8.1942 O   0  0  0  0  0  0  0  0  0  0  0  0
   -3.1395    0.3941    2.4947 C   0  0  2  0  0  0  0  0  0  0  0  0
   -4.1002   -0.6744    1.9511 C   0  0  2  0  0  0  0  0  0  0  0  0
   -5.4957   -0.3479    2.2885 N   0  0  0  0  0  0  0  0  0  0  0  0
   -3.7133   -2.0741    2.4517 C   0  0  1  0  0  0  0  0  0  0  0  0
   -4.5755   -3.0221    1.8528 O   0  0  0  0  0  0  0  0  0  0  0  0
   -2.2561   -2.3507    2.0445 C   0  0  2  0  0  0  0  0  0  0  0  0
   -1.8339   -3.6154    2.5207 O   0  0  0  0  0  0  0  0  0  0  0  0
   -1.3178   -1.2401    2.5601 C   0  0  1  0  0  0  0  0  0  0  0  0
   -1.7885    0.0572    2.1875 O   0  0  0  0  0  0  0  0  0  0  0  0
   -1.0311   -1.3357    4.0659 C   0  0  0  0  0  0  0  0  0  0  0  0
   -0.5064   -2.6622    4.4285 N   0  0  0  0  0  0  0  0  0  0  0  0
  1  3  1  0  0  0  0
  1  2  1  1  0  0  0
  3  4  1  1  0  0  0
  5  6  1  6  0  0  0
  5  3  1  0  0  0  0
  7  9  1  0  0  0  0
  7  5  1  0  0  0  0
  7  8  1  1  0  0  0
  9 10  1  0  0  0  0
  9 11  1  6  0  0  0
 10  1  1  0  0  0  0
 11 12  1  0  0  0  0
 13 14  1  1  0  0  0
 13 21  1  0  0  0  0
 15 13  1  0  0  0  0
 16 15  1  0  0  0  0
 16 18  1  0  0  0  0
 16 17  1  6  0  0  0
 18  2  1  6  0  0  0
 18 19  1  0  0  0  0
 19 21  1  0  0  0  0
 19 20  1  6  0  0  0
 21 22  1  1  0  0  0
 23 20  1  6  0  0  0
 23 29  1  0  0  0  0
 23 24  1  0  0  0  0
 24 26  1  0  0  0  0
 24 25  1  1  0  0  0
 26 27  1  6  0  0  0
 28 26  1  0  0  0  0
 28 30  1  1  0  0  0
 29 28  1  0  0  0  0
 30 31  1  0  0  0  0
 32 27  1  1  0  0  0
 32 40  1  0  0  0  0
 32 33  1  0  0  0  0
 33 35  1  0  0  0  0
 33 34  1  1  0  0  0
 35 37  1  0  0  0  0
 35 36  1  6  0  0  0
 37 38  1  1  0  0  0
 39 37  1  0  0  0  0
 39 41  1  1  0  0  0
 40 39  1  0  0  0  0
 42 41  1  0  0  0  0
M  END
>  <CHROM.1>
-81.71615386,-125.56460485,169.57238724,51.67475848,59.91533831,54.29813488
-66.93984242,60.28211836,170.48782441,-89.09357928,136.94819374,168.55319027
-59.48355871,68.12505653,-178.81430181,175.15028568,57.38300889,-175.29901548
-177.84498952,162.74541851,54.70100693,-170.61452850,-1.48450630,3.28716110
3.06850826,-0.59132775,-1.19535357,-2.35365803

>  <Name>
lig.pdb

>  <RI>
0

>  <Rbt.Current_Directory>
/home/itssahil/PROJECTS/Mol_Feturizer/New_Systems/rnas/2mxs

>  <Rbt.Executable>
rbdock ($Id: //depot/dev/client3/rdock/2013.1/src/exe/rbdock.cxx#4 $)

>  <Rbt.Library>
libRbt.so (2013.1, Build901 2013/11/27)

>  <Rbt.Parameter_File>
/export/apps/rDock/src/rDock_2013.1_src/data/scripts/dock_solv.prm

>  <Rbt.Receptor>
prm/pocket_docking_4.prm

>  <SCORE>
-44.8365

>  <SCORE.INTER>
-39.9642

>  <SCORE.INTER.CONST>
1

>  <SCORE.INTER.POLAR>
-4.46525

>  <SCORE.INTER.ROT>
9

>  <SCORE.INTER.SOLV>
16.0227

>  <SCORE.INTER.VDW>
-26.6995

>  <SCORE.INTER.norm>
-0.951527

>  <SCORE.INTRA>
-5.03392

>  <SCORE.INTRA.DIHEDRAL>
-7.0126

>  <SCORE.INTRA.DIHEDRAL.0>
30.1357

>  <SCORE.INTRA.POLAR>
-1.89634

>  <SCORE.INTRA.POLAR.0>
-0.631696

>  <SCORE.INTRA.REPUL>
0

>  <SCORE.INTRA.REPUL.0>
0

>  <SCORE.INTRA.SOLV>
0.593415

>  <SCORE.INTRA.SOLV.lig_0>
-55.904

>  <SCORE.INTRA.VDW>
4.62322

>  <SCORE.INTRA.VDW.0>
-8.21197

>  <SCORE.INTRA.norm>
-0.119855

>  <SCORE.RESTR>
0.161618

>  <SCORE.RESTR.CAVITY>
0.161618

>  <SCORE.RESTR.norm>
0.00384805

>  <SCORE.SYSTEM>
0

>  <SCORE.SYSTEM.CONST>
0

>  <SCORE.SYSTEM.DIHEDRAL>
0

>  <SCORE.SYSTEM.SOLV>
0

>  <SCORE.SYSTEM.norm>
0

>  <SCORE.heavy>
42

>  <SCORE.norm>
-1.06753

>  <RMSD>
6.702

$$$$
lig.pdb
 OpenBabel11021811453D
libRbt.so/2013.1/901 2013/11/27
 42 45  0  0  0  0  0  0  0  0999 V2000
    1.3480    1.6896    1.0973 C   0  0  2  0  0  0  0  0  0  0  0  0
    2.7440    1.6900    0.7930 O   0  0  0  0  0  0  0  0  0  0  0  0
    1.0227    0.6415    2.1723 C   0  0  2  0  0  0  0  0  0  0  0  0
    1.8521    0.8421    3.3749 N   0  0  0  0  0  0  0  0  0  0  0  0
    1.1865   -0.7807    1.6210 C   0  0  1  0  0  0  0  0  0  0  0  0
    0.7340   -1.7128    2.5844 O   0  0  0  0  0  0  0  0  0  0  0  0
    0.3721   -0.9479    0.3293 C   0  0  2  0  0  0  0  0  0  0  0  0
    0.6600   -2.2077   -0.2464 O   0  0  0  0  0  0  0  0  0  0  0  0
    0.6826    0.1725   -0.6840 C   0  0  2  0  0  0  0  0  0  0  0  0
    0.5753    1.4604   -0.0783 O   0  0  0  0  0  0  0  0  0  0  0  0
   -0.3219    0.0588   -1.8464 C   0  0  0  0  0  0  0  0  0  0  0  0
    0.0910    0.8322   -3.0048 O   0  0  0  0  0  0  0  0  0  0  0  0
    4.9404    3.6488   -2.3486 C   0  0  2  0  0  0  0  0  0  0  0  0
    5.0848    4.1558   -3.7279 N   0  0  0  0  0  0  0  0  0  0  0  0
    4.7114    2.1353   -2.3594 C   0  0  0  0  0  0  0  0  0  0  0  0
    4.4214    1.6262   -0.9524 C   0  0  2  0  0  0  0  0  0  0  0  0
    4.3006    0.1629   -0.9577 N   0  0  0  0  0  0  0  0  0  0  0  0
    3.1338    2.3124   -0.4399 C   0  0  2  0  0  0  0  0  0  0  0  0
    3.4086    3.7729   -0.2764 C   0  0  2  0  0  0  0  0  0  0  0  0
    2.2320    4.3741    0.2323 O   0  0  0  0  0  0  0  0  0  0  0  0
    3.7955    4.3723   -1.6152 C   0  0  1  0  0  0  0  0  0  0  0  0
    4.1487    5.7383   -1.5038 O   0  0  0  0  0  0  0  0  0  0  0  0
    1.1193    4.5016   -0.6465 C   0  0  1  0  0  0  0  0  0  0  0  0
   -0.1507    4.5201    0.2068 C   0  0  2  0  0  0  0  0  0  0  0  0
   -1.1877    3.8474   -0.4825 O   0  0  0  0  0  0  0  0  0  0  0  0
   -0.4185    6.0225    0.3685 C   0  0  2  0  0  0  0  0  0  0  0  0
   -1.7764    6.3096    0.7036 O   0  0  0  0  0  0  0  0  0  0  0  0
    0.0236    6.5214   -1.0126 C   0  0  2  0  0  0  0  0  0  0  0  0
    1.1801    5.7543   -1.3166 O   0  0  0  0  0  0  0  0  0  0  0  0
    0.3866    8.0102   -1.0615 C   0  0  0  0  0  0  0  0  0  0  0  0
    1.6491    8.2183   -1.6580 O   0  0  0  0  0  0  0  0  0  0  0  0
   -1.9503    7.0026    1.9380 C   0  0  2  0  0  0  0  0  0  0  0  0
   -1.2950    6.2552    3.1093 C   0  0  2  0  0  0  0  0  0  0  0  0
    0.1287    5.9957    2.8374 N   0  0  0  0  0  0  0  0  0  0  0  0
   -2.0514    4.9577    3.4318 C   0  0  1  0  0  0  0  0  0  0  0  0
   -1.4577    4.3593    4.5676 O   0  0  0  0  0  0  0  0  0  0  0  0
   -3.5196    5.3108    3.7245 C   0  0  2  0  0  0  0  0  0  0  0  0
   -4.2737    4.1415    3.9867 O   0  0  0  0  0  0  0  0  0  0  0  0
   -4.1415    6.1023    2.5556 C   0  0  1  0  0  0  0  0  0  0  0  0
   -3.3345    7.2263    2.1970 O   0  0  0  0  0  0  0  0  0  0  0  0
   -4.4794    5.2273    1.3395 C   0  0  0  0  0  0  0  0  0  0  0  0
   -5.5768    4.2935    1.6392 N   0  0  0  0  0  0  0  0  0  0  0  0
  1  3  1  0  0  0  0
  1  2  1  6  0  0  0
  3  4  1  1  0  0  0
  5  6  1  1  0  0  0
  5  3  1  0  0  0  0
  7  9  1  0  0  0  0
  7  5  1  0  0  0  0
  7  8  1  6  0  0  0
  9 10  1  0  0  0  0
  9 11  1  6  0  0  0
 10  1  1  0  0  0  0
 11 12  1  0  0  0  0
 13 14  1  6  0  0  0
 13 21  1  0  0  0  0
 15 13  1  0  0  0  0
 16 15  1  0  0  0  0
 16 18  1  0  0  0  0
 16 17  1  6  0  0  0
 18  2  1  1  0  0  0
 18 19  1  0  0  0  0
 19 21  1  0  0  0  0
 19 20  1  6  0  0  0
 21 22  1  1  0  0  0
 23 20  1  1  0  0  0
 23 29  1  0  0  0  0
 23 24  1  0  0  0  0
 24 26  1  0  0  0  0
 24 25  1  6  0  0  0
 26 27  1  6  0  0  0
 28 26  1  0  0  0  0
 28 30  1  1  0  0  0
 29 28  1  0  0  0  0
 30 31  1  0  0  0  0
 32 27  1  6  0  0  0
 32 40  1  0  0  0  0
 32 33  1  0  0  0  0
 33 35  1  0  0  0  0
 33 34  1  6  0  0  0
 35 37  1  0  0  0  0
 35 36  1  1  0  0  0
 37 38  1  6  0  0  0
 39 37  1  0  0  0  0
 39 41  1  6  0  0  0
 40 39  1  0  0  0  0
 42 41  1  0  0  0  0
M  END
>  <CHROM.1>
-151.01804074,162.12776905,-41.41228213,-61.00692581,-53.43047813,-7.34027175
-165.09371039,-95.67993058,-155.95999046,-71.76077890,153.32555672,72.86811456
-62.02957656,120.61039748,-55.38705593,129.11811733,173.78830001,-88.32913214
-173.65766803,64.12624903,67.75698025,-35.23139107,0.47218352,3.51987623
0.44314292,0.43244743,-0.61244494,2.92900516

>  <Name>
lig.pdb

>  <RI>
0

>  <Rbt.Current_Directory>
/home/itssahil/PROJECTS/Mol_Feturizer/New_Systems/rnas/2mxs

>  <Rbt.Executable>
rbdock ($Id: //depot/dev/client3/rdock/2013.1/src/exe/rbdock.cxx#4 $)

>  <Rbt.Library>
libRbt.so (2013.1, Build901 2013/11/27)

>  <Rbt.Parameter_File>
/export/apps/rDock/src/rDock_2013.1_src/data/scripts/dock_solv.prm

>  <Rbt.Receptor>
prm/blind_docking_60.prm

>  <SCORE>
34.3019

>  <SCORE.INTER>
-2.20997

>  <SCORE.INTER.CONST>
1

>  <SCORE.INTER.POLAR>
-3.05739

>  <SCORE.INTER.ROT>
9

>  <SCORE.INTER.SOLV>
31.4266

>  <SCORE.INTER.VDW>
-11.3576

>  <SCORE.INTER.norm>
-0.0526184

>  <SCORE.INTRA>
13.9294

>  <SCORE.INTRA.DIHEDRAL>
7.77869

>  <SCORE.INTRA.DIHEDRAL.0>
30.1357

>  <SCORE.INTRA.POLAR>
-0.249264

>  <SCORE.INTRA.POLAR.0>
-0.631696

>  <SCORE.INTRA.REPUL>
0.0103042

>  <SCORE.INTRA.REPUL.0>
0

>  <SCORE.INTRA.SOLV>
0.71526

>  <SCORE.INTRA.SOLV.lig_0>
-55.904

>  <SCORE.INTRA.VDW>
10.4784

>  <SCORE.INTRA.VDW.0>
-8.21197

>  <SCORE.INTRA.norm>
0.331653

>  <SCORE.RESTR>
22.5824

>  <SCORE.RESTR.CAVITY>
22.5824

>  <SCORE.RESTR.norm>
0.537677

>  <SCORE.SYSTEM>
0

>  <SCORE.SYSTEM.CONST>
0

>  <SCORE.SYSTEM.DIHEDRAL>
0

>  <SCORE.SYSTEM.SOLV>
0

>  <SCORE.SYSTEM.norm>
0

>  <SCORE.heavy>
42

>  <SCORE.norm>
0.816711

>  <RMSD>
6.713

$$$$
lig.pdb
 OpenBabel11021811453D
libRbt.so/2013.1/901 2013/11/27
 42 45  0  0  0  0  0  0  0  0999 V2000
   -2.9028    1.0914    1.7235 C   0  0  2  0  0  0  0  0  0  0  0  0
   -3.3628    0.1585    2.7031 O   0  0  0  0  0  0  0  0  0  0  0  0
   -4.0251    1.4463    0.7365 C   0  0  2  0  0  0  0  0  0  0  0  0
   -5.2209    1.9343    1.4482 N   0  0  0  0  0  0  0  0  0  0  0  0
   -4.3678    0.2496   -0.1601 C   0  0  1  0  0  0  0  0  0  0  0  0
   -5.2914    0.6552   -1.1521 O   0  0  0  0  0  0  0  0  0  0  0  0
   -3.0982   -0.2893   -0.8366 C   0  0  2  0  0  0  0  0  0  0  0  0
   -3.4076   -1.4830   -1.5300 O   0  0  0  0  0  0  0  0  0  0  0  0
   -1.9801   -0.5572    0.1912 C   0  0  2  0  0  0  0  0  0  0  0  0
   -1.7681    0.5773    1.0307 O   0  0  0  0  0  0  0  0  0  0  0  0
   -0.6873   -0.8817   -0.5813 C   0  0  0  0  0  0  0  0  0  0  0  0
   -0.2552    0.2260   -1.4158 O   0  0  0  0  0  0  0  0  0  0  0  0
   -1.3337   -1.9848    5.8368 C   0  0  2  0  0  0  0  0  0  0  0  0
   -0.1165   -2.4587    6.5254 N   0  0  0  0  0  0  0  0  0  0  0  0
   -1.3757   -2.5190    4.4029 C   0  0  0  0  0  0  0  0  0  0  0  0
   -2.5535   -1.9219    3.6418 C   0  0  2  0  0  0  0  0  0  0  0  0
   -2.6432   -2.5137    2.3011 N   0  0  0  0  0  0  0  0  0  0  0  0
   -2.3728   -0.3871    3.5872 C   0  0  2  0  0  0  0  0  0  0  0  0
   -2.4925    0.1535    4.9760 C   0  0  2  0  0  0  0  0  0  0  0  0
   -2.3660    1.5615    4.8983 O   0  0  0  0  0  0  0  0  0  0  0  0
   -1.4091   -0.4465    5.8522 C   0  0  1  0  0  0  0  0  0  0  0  0
   -1.5265   -0.0331    7.2007 O   0  0  0  0  0  0  0  0  0  0  0  0
   -1.0532    2.1054    4.8104 C   0  0  1  0  0  0  0  0  0  0  0  0
   -0.7292    2.3077    3.3287 C   0  0  2  0  0  0  0  0  0  0  0  0
    0.6427    2.0387    3.1085 O   0  0  0  0  0  0  0  0  0  0  0  0
   -1.0906    3.7830    3.1096 C   0  0  2  0  0  0  0  0  0  0  0  0
   -0.4461    4.3468    1.9670 O   0  0  0  0  0  0  0  0  0  0  0  0
   -0.6448    4.3685    4.4551 C   0  0  2  0  0  0  0  0  0  0  0  0
   -1.0275    3.3926    5.4141 O   0  0  0  0  0  0  0  0  0  0  0  0
   -1.3050    5.7049    4.8138 C   0  0  0  0  0  0  0  0  0  0  0  0
   -1.0250    6.6983    3.8506 O   0  0  0  0  0  0  0  0  0  0  0  0
   -1.0660    4.0354    0.7209 C   0  0  2  0  0  0  0  0  0  0  0  0
   -0.0929    3.3386   -0.2423 C   0  0  2  0  0  0  0  0  0  0  0  0
    0.4930    2.1388    0.3783 N   0  0  0  0  0  0  0  0  0  0  0  0
    0.9947    4.3081   -0.7290 C   0  0  1  0  0  0  0  0  0  0  0  0
    1.8060    3.6386   -1.6747 O   0  0  0  0  0  0  0  0  0  0  0  0
    0.3089    5.5202   -1.3819 C   0  0  2  0  0  0  0  0  0  0  0  0
    1.2688    6.4683   -1.8110 O   0  0  0  0  0  0  0  0  0  0  0  0
   -0.6983    6.1735   -0.4132 C   0  0  1  0  0  0  0  0  0  0  0  0
   -1.6086    5.2107    0.1230 O   0  0  0  0  0  0  0  0  0  0  0  0
   -0.0292    7.0069    0.6898 C   0  0  0  0  0  0  0  0  0  0  0  0
   -1.0018    7.8798    1.3668 N   0  0  0  0  0  0  0  0  0  0  0  0
  1  3  1  0  0  0  0
  1  2  1  1  0  0  0
  3  4  1  1  0  0  0
  5  6  1  6  0  0  0
  5  3  1  0  0  0  0
  7  9  1  0  0  0  0
  7  5  1  0  0  0  0
  7  8  1  1  0  0  0
  9 10  1  0  0  0  0
  9 11  1  6  0  0  0
 10  1  1  0  0  0  0
 11 12  1  0  0  0  0
 13 14  1  6  0  0  0
 13 21  1  0  0  0  0
 15 13  1  0  0  0  0
 16 15  1  0  0  0  0
 16 18  1  0  0  0  0
 16 17  1  6  0  0  0
 18  2  1  6  0  0  0
 18 19  1  0  0  0  0
 19 21  1  0  0  0  0
 19 20  1  6  0  0  0
 21 22  1  1  0  0  0
 23 20  1  6  0  0  0
 23 29  1  0  0  0  0
 23 24  1  0  0  0  0
 24 26  1  0  0  0  0
 24 25  1  1  0  0  0
 26 27  1  6  0  0  0
 28 26  1  0  0  0  0
 28 30  1  1  0  0  0
 29 28  1  0  0  0  0
 30 31  1  0  0  0  0
 32 27  1  1  0  0  0
 32 40  1  0  0  0  0
 32 33  1  0  0  0  0
 33 35  1  0  0  0  0
 33 34  1  1  0  0  0
 35 37  1  0  0  0  0
 35 36  1  6  0  0  0
 37 38  1  1  0  0  0
 39 37  1  0  0  0  0
 39 41  1  1  0  0  0
 40 39  1  0  0  0  0
 42 41  1  0  0  0  0
M  END
>  <CHROM.1>
-132.01391500,172.46805239,80.84841031,67.94467623,-53.92440914,-61.37589300
61.73494383,-36.52429774,-51.05637516,-80.90437267,94.17072671,170.47663959
67.37036761,80.08514101,-122.51930741,-59.92279650,-56.01722921,54.12020527
-64.36551987,177.33456642,165.31808316,-153.02978914,-1.43727251,1.99200616
1.95955415,2.37849305,1.22230171,1.84579707

>  <Name>
lig.pdb

>  <RI>
3.99633e+07

>  <Rbt.Current_Directory>
/home/itssahil/PROJECTS/Mol_Feturizer/New_Systems/rnas/2mxs

>  <Rbt.Executable>
rbdock ($Id: //depot/dev/client3/rdock/2013.1/src/exe/rbdock.cxx#4 $)

>  <Rbt.Library>
libRbt.so (2013.1, Build901 2013/11/27)

>  <Rbt.Parameter_File>
/export/apps/rDock/src/rDock_2013.1_src/data/scripts/dock_solv.prm

>  <Rbt.Receptor>
prm/pocket_docking_5.prm

>  <SCORE>
-43.0849

>  <SCORE.INTER>
-37.7389

>  <SCORE.INTER.CONST>
1

>  <SCORE.INTER.POLAR>
-4.73082

>  <SCORE.INTER.ROT>
9

>  <SCORE.INTER.SOLV>
19.6799

>  <SCORE.INTER.VDW>
-25.5498

>  <SCORE.INTER.norm>
-0.898546

>  <SCORE.INTRA>
-5.34592

>  <SCORE.INTRA.DIHEDRAL>
-1.33507

>  <SCORE.INTRA.DIHEDRAL.0>
30.1357

>  <SCORE.INTRA.POLAR>
-1.87188

>  <SCORE.INTRA.POLAR.0>
-0.631696

>  <SCORE.INTRA.REPUL>
0

>  <SCORE.INTRA.REPUL.0>
0

>  <SCORE.INTRA.SOLV>
3.79355

>  <SCORE.INTRA.SOLV.lig_0>
-55.904

>  <SCORE.INTRA.VDW>
-0.210757

>  <SCORE.INTRA.VDW.0>
-8.21197

>  <SCORE.INTRA.norm>
-0.127284

>  <SCORE.RESTR>
0

>  <SCORE.RESTR.CAVITY>
0

>  <SCORE.RESTR.norm>
0

>  <SCORE.SYSTEM>
0

>  <SCORE.SYSTEM.CONST>
0

>  <SCORE.SYSTEM.DIHEDRAL>
0

>  <SCORE.SYSTEM.SOLV>
0

>  <SCORE.SYSTEM.norm>
0

>  <SCORE.heavy>
42

>  <SCORE.norm>
-1.02583

>  <RMSD>
6.719

$$$$
lig.pdb
 OpenBabel11021811453D
libRbt.so/2013.1/901 2013/11/27
 42 45  0  0  0  0  0  0  0  0999 V2000
   -1.4449    4.2982    1.7485 C   0  0  2  0  0  0  0  0  0  0  0  0
   -1.5128    5.3609    0.7958 O   0  0  0  0  0  0  0  0  0  0  0  0
   -2.5400    3.2543    1.4827 C   0  0  2  0  0  0  0  0  0  0  0  0
   -2.4738    2.7597    0.0951 N   0  0  0  0  0  0  0  0  0  0  0  0
   -3.9295    3.8220    1.7996 C   0  0  1  0  0  0  0  0  0  0  0  0
   -4.8935    2.7922    1.6909 O   0  0  0  0  0  0  0  0  0  0  0  0
   -3.9573    4.3970    3.2238 C   0  0  2  0  0  0  0  0  0  0  0  0
   -5.1913    5.0543    3.4396 O   0  0  0  0  0  0  0  0  0  0  0  0
   -2.7935    5.3811    3.4591 C   0  0  2  0  0  0  0  0  0  0  0  0
   -1.5450    4.8045    3.0772 O   0  0  0  0  0  0  0  0  0  0  0  0
   -2.7646    5.7392    4.9572 C   0  0  0  0  0  0  0  0  0  0  0  0
   -2.3921    4.6048    5.7845 O   0  0  0  0  0  0  0  0  0  0  0  0
    1.5021    7.2088   -1.6591 C   0  0  2  0  0  0  0  0  0  0  0  0
    2.8996    7.5714   -1.9687 N   0  0  0  0  0  0  0  0  0  0  0  0
    1.0779    7.8199   -0.3212 C   0  0  0  0  0  0  0  0  0  0  0  0
   -0.3124    7.3360    0.0732 C   0  0  2  0  0  0  0  0  0  0  0  0
   -0.7503    8.0025    1.3061 N   0  0  0  0  0  0  0  0  0  0  0  0
   -0.2688    5.7982    0.2297 C   0  0  2  0  0  0  0  0  0  0  0  0
   -0.0124    5.1928   -1.1132 C   0  0  2  0  0  0  0  0  0  0  0  0
   -0.0179    3.7858   -0.9551 O   0  0  0  0  0  0  0  0  0  0  0  0
    1.3222    5.6792   -1.6458 C   0  0  1  0  0  0  0  0  0  0  0  0
    1.5782    5.2026   -2.9536 O   0  0  0  0  0  0  0  0  0  0  0  0
    1.1347    3.1787   -0.3808 C   0  0  1  0  0  0  0  0  0  0  0  0
    0.7725    2.7380    1.0391 C   0  0  2  0  0  0  0  0  0  0  0  0
    1.8951    2.9105    1.8834 O   0  0  0  0  0  0  0  0  0  0  0  0
    0.3954    1.2636    0.8416 C   0  0  2  0  0  0  0  0  0  0  0  0
    0.4816    0.5041    2.0477 O   0  0  0  0  0  0  0  0  0  0  0  0
    1.4098    0.8724   -0.2400 C   0  0  2  0  0  0  0  0  0  0  0  0
    1.4642    1.9992   -1.1036 O   0  0  0  0  0  0  0  0  0  0  0  0
    1.0178   -0.3635   -1.0582 C   0  0  0  0  0  0  0  0  0  0  0  0
    0.2898   -0.0116   -2.2155 O   0  0  0  0  0  0  0  0  0  0  0  0
    0.3767    1.2739    3.2437 C   0  0  2  0  0  0  0  0  0  0  0  0
    0.9065    0.5066    4.4646 C   0  0  2  0  0  0  0  0  0  0  0  0
    2.2889    0.0515    4.2408 N   0  0  0  0  0  0  0  0  0  0  0  0
   -0.0191   -0.6643    4.8279 C   0  0  1  0  0  0  0  0  0  0  0  0
    0.4698   -1.2778    6.0049 O   0  0  0  0  0  0  0  0  0  0  0  0
   -1.4337   -0.1097    5.0671 C   0  0  2  0  0  0  0  0  0  0  0  0
   -2.3390   -1.1569    5.3643 O   0  0  0  0  0  0  0  0  0  0  0  0
   -1.9246    0.6971    3.8474 C   0  0  1  0  0  0  0  0  0  0  0  0
   -0.9710    1.6878    3.4572 O   0  0  0  0  0  0  0  0  0  0  0  0
   -2.3511   -0.1857    2.6652 C   0  0  0  0  0  0  0  0  0  0  0  0
   -3.3981   -1.1417    3.0602 N   0  0  0  0  0  0  0  0  0  0  0  0
  1  3  1  0  0  0  0
  1  2  1  6  0  0  0
  3  4  1  6  0  0  0
  5  6  1  1  0  0  0
  5  3  1  0  0  0  0
  7  9  1  0  0  0  0
  7  5  1  0  0  0  0
  7  8  1  6  0  0  0
  9 10  1  0  0  0  0
  9 11  1  1  0  0  0
 10  1  1  0  0  0  0
 11 12  1  0  0  0  0
 13 14  1  1  0  0  0
 13 21  1  0  0  0  0
 15 13  1  0  0  0  0
 16 15  1  0  0  0  0
 16 18  1  0  0  0  0
 16 17  1  1  0  0  0
 18  2  1  6  0  0  0
 18 19  1  0  0  0  0
 19 21  1  0  0  0  0
 19 20  1  1  0  0  0
 21 22  1  6  0  0  0
 23 20  1  6  0  0  0
 23 29  1  0  0  0  0
 23 24  1  0  0  0  0
 24 26  1  0  0  0  0
 24 25  1  1  0  0  0
 26 27  1  1  0  0  0
 28 26  1  0  0  0  0
 28 30  1  6  0  0  0
 29 28  1  0  0  0  0
 30 31  1  0  0  0  0
 32 27  1  6  0  0  0
 32 40  1  0  0  0  0
 32 33  1  0  0  0  0
 33 35  1  0  0  0  0
 33 34  1  6  0  0  0
 35 37  1  0  0  0  0
 35 36  1  1  0  0  0
 37 38  1  6  0  0  0
 39 37  1  0  0  0  0
 39 41  1  6  0  0  0
 40 39  1  0  0  0  0
 42 41  1  0  0  0  0
M  END
>  <CHROM.1>
-141.77340771,-135.63532183,63.68658925,65.11847595,56.99959364,63.42440851
67.62758906,-44.85130570,-161.73474188,-76.90587020,107.14868747,51.16163456
-77.75464277,23.25389289,-162.06119239,91.44819317,63.99593561,-63.44036066
-59.94943982,169.18256214,56.65547432,-57.35603732,-0.67307950,3.03096810
1.66982194,1.19568071,0.76919949,-0.45994003

>  <Name>
lig.pdb

>  <RI>
0

>  <Rbt.Current_Directory>
/home/itssahil/PROJECTS/Mol_Feturizer/New_Systems/rnas/2mxs

>  <Rbt.Executable>
rbdock ($Id: //depot/dev/client3/rdock/2013.1/src/exe/rbdock.cxx#4 $)

>  <Rbt.Library>
libRbt.so (2013.1, Build901 2013/11/27)

>  <Rbt.Parameter_File>
/export/apps/rDock/src/rDock_2013.1_src/data/scripts/dock_solv.prm

>  <Rbt.Receptor>
prm/blind_docking_20.prm

>  <SCORE>
10.6134

>  <SCORE.INTER>
-19.5848

>  <SCORE.INTER.CONST>
1

>  <SCORE.INTER.POLAR>
-4.83082

>  <SCORE.INTER.ROT>
9

>  <SCORE.INTER.SOLV>
23.2884

>  <SCORE.INTER.VDW>
-14.3166

>  <SCORE.INTER.norm>
-0.466305

>  <SCORE.INTRA>
8.01058

>  <SCORE.INTRA.DIHEDRAL>
2.64129

>  <SCORE.INTRA.DIHEDRAL.0>
30.1357

>  <SCORE.INTRA.POLAR>
0.0857365

>  <SCORE.INTRA.POLAR.0>
-0.631696

>  <SCORE.INTRA.REPUL>
0

>  <SCORE.INTRA.REPUL.0>
0

>  <SCORE.INTRA.SOLV>
2.04044

>  <SCORE.INTRA.SOLV.lig_0>
-55.904

>  <SCORE.INTRA.VDW>
5.37821

>  <SCORE.INTRA.VDW.0>
-8.21197

>  <SCORE.INTRA.norm>
0.190728

>  <SCORE.RESTR>
22.1876

>  <SCORE.RESTR.CAVITY>
22.1876

>  <SCORE.RESTR.norm>
0.528277

>  <SCORE.SYSTEM>
0

>  <SCORE.SYSTEM.CONST>
0

>  <SCORE.SYSTEM.DIHEDRAL>
0

>  <SCORE.SYSTEM.SOLV>
0

>  <SCORE.SYSTEM.norm>
0

>  <SCORE.heavy>
42

>  <SCORE.norm>
0.2527

>  <RMSD>
6.724

$$$$
lig.pdb
 OpenBabel11021811453D
libRbt.so/2013.1/901 2013/11/27
 42 45  0  0  0  0  0  0  0  0999 V2000
   -1.8823    4.5415    1.3260 C   0  0  2  0  0  0  0  0  0  0  0  0
   -1.8703    5.7563    0.5740 O   0  0  0  0  0  0  0  0  0  0  0  0
   -3.2531    4.3176    1.9822 C   0  0  2  0  0  0  0  0  0  0  0  0
   -4.3330    4.3592    0.9789 N   0  0  0  0  0  0  0  0  0  0  0  0
   -3.5007    5.3382    3.1005 C   0  0  1  0  0  0  0  0  0  0  0  0
   -4.6970    5.0091    3.7803 O   0  0  0  0  0  0  0  0  0  0  0  0
   -2.3310    5.3307    4.0963 C   0  0  2  0  0  0  0  0  0  0  0  0
   -2.5009    6.3829    5.0265 O   0  0  0  0  0  0  0  0  0  0  0  0
   -0.9752    5.4833    3.3772 C   0  0  2  0  0  0  0  0  0  0  0  0
   -0.8495    4.5459    2.3084 O   0  0  0  0  0  0  0  0  0  0  0  0
    0.1436    5.2483    4.4098 C   0  0  0  0  0  0  0  0  0  0  0  0
    0.2174    6.3175    5.3905 O   0  0  0  0  0  0  0  0  0  0  0  0
    1.2524    7.7320   -1.6341 C   0  0  2  0  0  0  0  0  0  0  0  0
    2.6709    8.0177   -1.9281 N   0  0  0  0  0  0  0  0  0  0  0  0
    0.9160    8.1333   -0.1957 C   0  0  0  0  0  0  0  0  0  0  0  0
   -0.5050    7.7131    0.1605 C   0  0  2  0  0  0  0  0  0  0  0  0
   -0.8520    8.1883    1.5057 N   0  0  0  0  0  0  0  0  0  0  0  0
   -0.6030    6.1740    0.0462 C   0  0  2  0  0  0  0  0  0  0  0  0
   -0.4332    5.7942   -1.3899 C   0  0  2  0  0  0  0  0  0  0  0  0
   -0.5677    4.3876   -1.4780 O   0  0  0  0  0  0  0  0  0  0  0  0
    0.9297    6.2461   -1.8795 C   0  0  1  0  0  0  0  0  0  0  0  0
    1.1119    5.9865   -3.2588 O   0  0  0  0  0  0  0  0  0  0  0  0
    0.6165    3.6017   -1.3950 C   0  0  1  0  0  0  0  0  0  0  0  0
    1.0919    3.6249    0.0593 C   0  0  2  0  0  0  0  0  0  0  0  0
    2.5068    3.6301    0.0892 O   0  0  0  0  0  0  0  0  0  0  0  0
    0.4879    2.3326    0.6252 C   0  0  2  0  0  0  0  0  0  0  0  0
    1.1603    1.8753    1.7989 O   0  0  0  0  0  0  0  0  0  0  0  0
    0.6288    1.4162   -0.5964 C   0  0  2  0  0  0  0  0  0  0  0  0
    0.3143    2.2472   -1.7050 O   0  0  0  0  0  0  0  0  0  0  0  0
   -0.3168    0.2094   -0.5948 C   0  0  0  0  0  0  0  0  0  0  0  0
   -0.3876   -0.3975   -1.8675 O   0  0  0  0  0  0  0  0  0  0  0  0
    0.5015    0.8129    2.4854 C   0  0  2  0  0  0  0  0  0  0  0  0
    0.5712    0.9888    4.0100 C   0  0  2  0  0  0  0  0  0  0  0  0
    0.0358    2.2997    4.4135 N   0  0  0  0  0  0  0  0  0  0  0  0
    2.0030    0.7828    4.5269 C   0  0  1  0  0  0  0  0  0  0  0  0
    1.9904    0.8708    5.9386 O   0  0  0  0  0  0  0  0  0  0  0  0
    2.4833   -0.6105    4.0865 C   0  0  2  0  0  0  0  0  0  0  0  0
    3.8180   -0.8351    4.5018 O   0  0  0  0  0  0  0  0  0  0  0  0
    2.3585   -0.7806    2.5584 C   0  0  1  0  0  0  0  0  0  0  0  0
    1.0462   -0.4473    2.1002 O   0  0  0  0  0  0  0  0  0  0  0  0
    3.4472   -0.0355    1.7720 C   0  0  0  0  0  0  0  0  0  0  0  0
    3.3715   -0.3379    0.3335 N   0  0  0  0  0  0  0  0  0  0  0  0
  1  3  1  0  0  0  0
  1  2  1  1  0  0  0
  3  4  1  6  0  0  0
  5  6  1  1  0  0  0
  5  3  1  0  0  0  0
  7  9  1  0  0  0  0
  7  5  1  0  0  0  0
  7  8  1  1  0  0  0
  9 10  1  0  0  0  0
  9 11  1  1  0  0  0
 10  1  1  0  0  0  0
 11 12  1  0  0  0  0
 13 14  1  1  0  0  0
 13 21  1  0  0  0  0
 15 13  1  0  0  0  0
 16 15  1  0  0  0  0
 16 18  1  0  0  0  0
 16 17  1  1  0  0  0
 18  2  1  6  0  0  0
 18 19  1  0  0  0  0
 19 21  1  0  0  0  0
 19 20  1  1  0  0  0
 21 22  1  6  0  0  0
 23 20  1  1  0  0  0
 23 29  1  0  0  0  0
 23 24  1  0  0  0  0
 24 26  1  0  0  0  0
 24 25  1  6  0  0  0
 26 27  1  1  0  0  0
 28 26  1  0  0  0  0
 28 30  1  1  0  0  0
 29 28  1  0  0  0  0
 30 31  1  0  0  0  0
 32 27  1  6  0  0  0
 32 40  1  0  0  0  0
 32 33  1  0  0  0  0
 33 35  1  0  0  0  0
 33 34  1  6  0  0  0
 35 37  1  0  0  0  0
 35 36  1  1  0  0  0
 37 38  1  6  0  0  0
 39 37  1  0  0  0  0
 39 41  1  6  0  0  0
 40 39  1  0  0  0  0
 42 41  1  0  0  0  0
M  END
>  <CHROM.1>
-141.70854024,172.42462834,68.91277095,49.22946905,63.12248903,54.54207977
-69.06901440,-47.94607410,-160.91293509,-92.59978606,73.02464438,64.63896315
63.71883672,169.93828111,-139.90328516,165.10071854,-61.59698921,102.85259701
-67.80070130,134.26999132,174.15362948,-68.86522742,0.14206477,3.62583254
1.43299928,2.27505049,0.95953536,-0.95753552

>  <Name>
lig.pdb

>  <RI>
0

>  <Rbt.Current_Directory>
/home/itssahil/PROJECTS/Mol_Feturizer/New_Systems/rnas/2mxs

>  <Rbt.Executable>
rbdock ($Id: //depot/dev/client3/rdock/2013.1/src/exe/rbdock.cxx#4 $)

>  <Rbt.Library>
libRbt.so (2013.1, Build901 2013/11/27)

>  <Rbt.Parameter_File>
/export/apps/rDock/src/rDock_2013.1_src/data/scripts/dock_solv.prm

>  <Rbt.Receptor>
prm/blind_docking_80.prm

>  <SCORE>
4.19883

>  <SCORE.INTER>
-8.51199

>  <SCORE.INTER.CONST>
1

>  <SCORE.INTER.POLAR>
-2.75201

>  <SCORE.INTER.ROT>
9

>  <SCORE.INTER.SOLV>
32.4826

>  <SCORE.INTER.VDW>
-16.9288

>  <SCORE.INTER.norm>
-0.202667

>  <SCORE.INTRA>
1.12595

>  <SCORE.INTRA.DIHEDRAL>
-0.154641

>  <SCORE.INTRA.DIHEDRAL.0>
30.1357

>  <SCORE.INTRA.POLAR>
-0.542155

>  <SCORE.INTRA.POLAR.0>
-0.631696

>  <SCORE.INTRA.REPUL>
0

>  <SCORE.INTRA.REPUL.0>
0

>  <SCORE.INTRA.SOLV>
0.555235

>  <SCORE.INTRA.SOLV.lig_0>
-55.904

>  <SCORE.INTRA.VDW>
2.76898

>  <SCORE.INTRA.VDW.0>
-8.21197

>  <SCORE.INTRA.norm>
0.0268082

>  <SCORE.RESTR>
11.5849

>  <SCORE.RESTR.CAVITY>
11.5849

>  <SCORE.RESTR.norm>
0.27583

>  <SCORE.SYSTEM>
0

>  <SCORE.SYSTEM.CONST>
0

>  <SCORE.SYSTEM.DIHEDRAL>
0

>  <SCORE.SYSTEM.SOLV>
0

>  <SCORE.SYSTEM.norm>
0

>  <SCORE.heavy>
42

>  <SCORE.norm>
0.0999722

>  <RMSD>
6.726

$$$$
lig.pdb
 OpenBabel11021811453D
libRbt.so/2013.1/901 2013/11/27
 42 45  0  0  0  0  0  0  0  0999 V2000
   -1.7896    4.2043    1.4488 C   0  0  2  0  0  0  0  0  0  0  0  0
   -1.7366    5.3917    0.6559 O   0  0  0  0  0  0  0  0  0  0  0  0
   -3.1887    4.0120    2.0533 C   0  0  2  0  0  0  0  0  0  0  0  0
   -4.2247    4.0246    1.0040 N   0  0  0  0  0  0  0  0  0  0  0  0
   -3.4758    5.0729    3.1236 C   0  0  1  0  0  0  0  0  0  0  0  0
   -4.7023    4.7752    3.7628 O   0  0  0  0  0  0  0  0  0  0  0  0
   -2.3495    5.0935    4.1680 C   0  0  2  0  0  0  0  0  0  0  0  0
   -2.5508    6.1789    5.0528 O   0  0  0  0  0  0  0  0  0  0  0  0
   -0.9634    5.2125    3.5026 C   0  0  2  0  0  0  0  0  0  0  0  0
   -0.7995    4.2372    2.4737 O   0  0  0  0  0  0  0  0  0  0  0  0
    0.1089    5.0074    4.5896 C   0  0  0  0  0  0  0  0  0  0  0  0
    0.1805    6.1311    5.5074 O   0  0  0  0  0  0  0  0  0  0  0  0
    1.5034    7.1354   -1.5786 C   0  0  2  0  0  0  0  0  0  0  0  0
    2.9288    7.4627   -1.7818 N   0  0  0  0  0  0  0  0  0  0  0  0
    0.9893    7.7764   -0.2871 C   0  0  0  0  0  0  0  0  0  0  0  0
   -0.4384    7.3289    0.0030 C   0  0  2  0  0  0  0  0  0  0  0  0
   -0.9567    8.0239    1.1880 N   0  0  0  0  0  0  0  0  0  0  0  0
   -0.4423    5.7931    0.1838 C   0  0  2  0  0  0  0  0  0  0  0  0
   -0.0949    5.1613   -1.1261 C   0  0  2  0  0  0  0  0  0  0  0  0
   -0.1449    3.7575   -0.9493 O   0  0  0  0  0  0  0  0  0  0  0  0
    1.2882    5.6104   -1.5583 C   0  0  1  0  0  0  0  0  0  0  0  0
    1.6353    5.1080   -2.8350 O   0  0  0  0  0  0  0  0  0  0  0  0
    1.0881    3.0457   -0.9432 C   0  0  1  0  0  0  0  0  0  0  0  0
    1.4359    2.7256    0.5121 C   0  0  2  0  0  0  0  0  0  0  0  0
    2.8382    2.8042    0.6863 O   0  0  0  0  0  0  0  0  0  0  0  0
    0.8934    1.2995    0.6757 C   0  0  2  0  0  0  0  0  0  0  0  0
    1.4995    0.5981    1.7618 O   0  0  0  0  0  0  0  0  0  0  0  0
    1.2105    0.7334   -0.7139 C   0  0  2  0  0  0  0  0  0  0  0  0
    0.9240    1.7994   -1.6082 O   0  0  0  0  0  0  0  0  0  0  0  0
    0.3692   -0.4864   -1.1075 C   0  0  0  0  0  0  0  0  0  0  0  0
    0.7545   -1.6381   -0.3876 O   0  0  0  0  0  0  0  0  0  0  0  0
    1.1822    1.1136    3.0532 C   0  0  2  0  0  0  0  0  0  0  0  0
    1.6085    0.1512    4.1723 C   0  0  2  0  0  0  0  0  0  0  0  0
    3.0392   -0.1797    4.0651 N   0  0  0  0  0  0  0  0  0  0  0  0
    0.7375   -1.1141    4.1771 C   0  0  1  0  0  0  0  0  0  0  0  0
    1.1171   -1.9193    5.2763 O   0  0  0  0  0  0  0  0  0  0  0  0
   -0.7349   -0.6904    4.3132 C   0  0  2  0  0  0  0  0  0  0  0  0
   -1.5869   -1.8206    4.2796 O   0  0  0  0  0  0  0  0  0  0  0  0
   -1.1259    0.3124    3.2081 C   0  0  1  0  0  0  0  0  0  0  0  0
   -0.2097    1.4080    3.1477 O   0  0  0  0  0  0  0  0  0  0  0  0
   -1.3270   -0.3437    1.8341 C   0  0  0  0  0  0  0  0  0  0  0  0
   -0.5102   -1.5603    1.6962 N   0  0  0  0  0  0  0  0  0  0  0  0
  1  3  1  0  0  0  0
  1  2  1  1  0  0  0
  3  4  1  6  0  0  0
  5  6  1  1  0  0  0
  5  3  1  0  0  0  0
  7  9  1  0  0  0  0
  7  5  1  0  0  0  0
  7  8  1  1  0  0  0
  9 10  1  0  0  0  0
  9 11  1  1  0  0  0
 10  1  1  0  0  0  0
 11 12  1  0  0  0  0
 13 14  1  1  0  0  0
 13 21  1  0  0  0  0
 15 13  1  0  0  0  0
 16 15  1  0  0  0  0
 16 18  1  0  0  0  0
 16 17  1  1  0  0  0
 18  2  1  6  0  0  0
 18 19  1  0  0  0  0
 19 21  1  0  0  0  0
 19 20  1  1  0  0  0
 21 22  1  6  0  0  0
 23 20  1  1  0  0  0
 23 29  1  0  0  0  0
 23 24  1  0  0  0  0
 24 26  1  0  0  0  0
 24 25  1  6  0  0  0
 26 27  1  1  0  0  0
 28 26  1  0  0  0  0
 28 30  1  6  0  0  0
 29 28  1  0  0  0  0
 30 31  1  0  0  0  0
 32 27  1  6  0  0  0
 32 40  1  0  0  0  0
 32 33  1  0  0  0  0
 33 35  1  0  0  0  0
 33 34  1  6  0  0  0
 35 37  1  0  0  0  0
 35 36  1  1  0  0  0
 37 38  1  6  0  0  0
 39 37  1  0  0  0  0
 39 41  1  6  0  0  0
 40 39  1  0  0  0  0
 42 41  1  0  0  0  0
M  END
>  <CHROM.1>
-151.91417512,171.59252390,-177.77877261,60.42471787,-170.83359012,-162.96460401
-71.05422708,77.67811464,-25.11199836,-108.54407045,102.04320927,50.54423734
-57.32314048,67.39297273,167.74083017,-72.35982695,-152.43750488,-67.42846701
52.17105550,70.62725565,-27.95294316,58.88341477,-0.13442086,3.03996603,1.61312425
1.67676789,0.94830498,-0.46148119

>  <Name>
lig.pdb

>  <RI>
0

>  <Rbt.Current_Directory>
/home/itssahil/PROJECTS/Mol_Feturizer/New_Systems/rnas/2mxs

>  <Rbt.Executable>
rbdock ($Id: //depot/dev/client3/rdock/2013.1/src/exe/rbdock.cxx#4 $)

>  <Rbt.Library>
libRbt.so (2013.1, Build901 2013/11/27)

>  <Rbt.Parameter_File>
/export/apps/rDock/src/rDock_2013.1_src/data/scripts/dock_solv.prm

>  <Rbt.Receptor>
prm/blind_docking_20.prm

>  <SCORE>
1.31296

>  <SCORE.INTER>
-22.8103

>  <SCORE.INTER.CONST>
1

>  <SCORE.INTER.POLAR>
-3.65437

>  <SCORE.INTER.ROT>
9

>  <SCORE.INTER.SOLV>
25.9083

>  <SCORE.INTER.VDW>
-21.2617

>  <SCORE.INTER.norm>
-0.543102

>  <SCORE.INTRA>
7.10164

>  <SCORE.INTRA.DIHEDRAL>
0.47463

>  <SCORE.INTRA.DIHEDRAL.0>
30.1357

>  <SCORE.INTRA.POLAR>
-1.34223

>  <SCORE.INTRA.POLAR.0>
-0.631696

>  <SCORE.INTRA.REPUL>
0.638055

>  <SCORE.INTRA.REPUL.0>
0

>  <SCORE.INTRA.SOLV>
2.57387

>  <SCORE.INTRA.SOLV.lig_0>
-55.904

>  <SCORE.INTRA.VDW>
6.95068

>  <SCORE.INTRA.VDW.0>
-8.21197

>  <SCORE.INTRA.norm>
0.169087

>  <SCORE.RESTR>
17.0216

>  <SCORE.RESTR.CAVITY>
17.0216

>  <SCORE.RESTR.norm>
0.405276

>  <SCORE.SYSTEM>
0

>  <SCORE.SYSTEM.CONST>
0

>  <SCORE.SYSTEM.DIHEDRAL>
0

>  <SCORE.SYSTEM.SOLV>
0

>  <SCORE.SYSTEM.norm>
0

>  <SCORE.heavy>
42

>  <SCORE.norm>
0.031261

>  <RMSD>
6.730

$$$$
lig.pdb
 OpenBabel11021811453D
libRbt.so/2013.1/901 2013/11/27
 42 45  0  0  0  0  0  0  0  0999 V2000
   -3.4100    0.9051    2.5365 C   0  0  2  0  0  0  0  0  0  0  0  0
   -4.5246    0.2810    3.1767 O   0  0  0  0  0  0  0  0  0  0  0  0
   -3.7532    2.3433    2.1199 C   0  0  2  0  0  0  0  0  0  0  0  0
   -4.2407    3.1255    3.2709 N   0  0  0  0  0  0  0  0  0  0  0  0
   -4.7732    2.3553    0.9740 C   0  0  1  0  0  0  0  0  0  0  0  0
   -4.9491    3.6821    0.5157 O   0  0  0  0  0  0  0  0  0  0  0  0
   -4.2805    1.4772   -0.1862 C   0  0  2  0  0  0  0  0  0  0  0  0
   -5.3001    1.3740   -1.1614 O   0  0  0  0  0  0  0  0  0  0  0  0
   -3.8791    0.0700    0.3005 C   0  0  2  0  0  0  0  0  0  0  0  0
   -2.9839    0.1434    1.4096 O   0  0  0  0  0  0  0  0  0  0  0  0
   -3.1986   -0.6655   -0.8697 C   0  0  0  0  0  0  0  0  0  0  0  0
   -4.0904   -1.6148   -1.5128 O   0  0  0  0  0  0  0  0  0  0  0  0
   -4.7909   -2.2105    6.6770 C   0  0  2  0  0  0  0  0  0  0  0  0
   -4.2249   -3.1581    7.6578 N   0  0  0  0  0  0  0  0  0  0  0  0
   -4.7496   -2.8129    5.2704 C   0  0  0  0  0  0  0  0  0  0  0  0
   -5.2005   -1.7897    4.2347 C   0  0  2  0  0  0  0  0  0  0  0  0
   -5.2515   -2.4053    2.9027 N   0  0  0  0  0  0  0  0  0  0  0  0
   -4.2296   -0.5870    4.2807 C   0  0  2  0  0  0  0  0  0  0  0  0
   -4.3876    0.0988    5.5999 C   0  0  2  0  0  0  0  0  0  0  0  0
   -3.5219    1.2191    5.6048 O   0  0  0  0  0  0  0  0  0  0  0  0
   -4.0435   -0.8644    6.7202 C   0  0  1  0  0  0  0  0  0  0  0  0
   -4.2568   -0.2926    7.9971 O   0  0  0  0  0  0  0  0  0  0  0  0
   -2.1315    0.9818    5.7981 C   0  0  1  0  0  0  0  0  0  0  0  0
   -1.4756    0.8960    4.4183 C   0  0  2  0  0  0  0  0  0  0  0  0
   -0.4409   -0.0690    4.4511 O   0  0  0  0  0  0  0  0  0  0  0  0
   -0.9533    2.3240    4.2111 C   0  0  2  0  0  0  0  0  0  0  0  0
    0.0946    2.3950    3.2438 O   0  0  0  0  0  0  0  0  0  0  0  0
   -0.5300    2.6630    5.6456 C   0  0  2  0  0  0  0  0  0  0  0  0
   -1.5442    2.0940    6.4616 O   0  0  0  0  0  0  0  0  0  0  0  0
   -0.4378    4.1647    5.9403 C   0  0  0  0  0  0  0  0  0  0  0  0
   -1.6623    4.8204    5.6874 O   0  0  0  0  0  0  0  0  0  0  0  0
   -0.1742    1.7056    2.0246 C   0  0  2  0  0  0  0  0  0  0  0  0
    1.1105    1.1611    1.3816 C   0  0  2  0  0  0  0  0  0  0  0  0
    1.8512    0.3085    2.3263 N   0  0  0  0  0  0  0  0  0  0  0  0
    1.9888    2.3019    0.8461 C   0  0  1  0  0  0  0  0  0  0  0  0
    3.1098    1.7396    0.1918 O   0  0  0  0  0  0  0  0  0  0  0  0
    1.1566    3.1318   -0.1461 C   0  0  2  0  0  0  0  0  0  0  0  0
    1.9082    4.2257   -0.6388 O   0  0  0  0  0  0  0  0  0  0  0  0
   -0.1504    3.6265    0.5071 C   0  0  1  0  0  0  0  0  0  0  0  0
   -0.8719    2.5516    1.1132 O   0  0  0  0  0  0  0  0  0  0  0  0
    0.0600    4.7965    1.4795 C   0  0  0  0  0  0  0  0  0  0  0  0
    0.4534    6.0224    0.7662 N   0  0  0  0  0  0  0  0  0  0  0  0
  1  3  1  0  0  0  0
  1  2  1  6  0  0  0
  3  4  1  1  0  0  0
  5  6  1  6  0  0  0
  5  3  1  0  0  0  0
  7  9  1  0  0  0  0
  7  5  1  0  0  0  0
  7  8  1  6  0  0  0
  9 10  1  0  0  0  0
  9 11  1  6  0  0  0
 10  1  1  0  0  0  0
 11 12  1  0  0  0  0
 13 14  1  1  0  0  0
 13 21  1  0  0  0  0
 15 13  1  0  0  0  0
 16 15  1  0  0  0  0
 16 18  1  0  0  0  0
 16 17  1  6  0  0  0
 18  2  1  6  0  0  0
 18 19  1  0  0  0  0
 19 21  1  0  0  0  0
 19 20  1  6  0  0  0
 21 22  1  1  0  0  0
 23 20  1  6  0  0  0
 23 29  1  0  0  0  0
 23 24  1  0  0  0  0
 24 26  1  0  0  0  0
 24 25  1  1  0  0  0
 26 27  1  6  0  0  0
 28 26  1  0  0  0  0
 28 30  1  6  0  0  0
 29 28  1  0  0  0  0
 30 31  1  0  0  0  0
 32 27  1  1  0  0  0
 32 40  1  0  0  0  0
 32 33  1  0  0  0  0
 33 35  1  0  0  0  0
 33 34  1  1  0  0  0
 35 37  1  0  0  0  0
 35 36  1  6  0  0  0
 37 38  1  1  0  0  0
 39 37  1  0  0  0  0
 39 41  1  1  0  0  0
 40 39  1  0  0  0  0
 42 41  1  0  0  0  0
M  END
>  <CHROM.1>
-142.62693436,-142.33946080,-98.34374515,-67.06059266,172.67977338,58.47896026
-101.77572977,156.18071114,71.73156021,-76.27412810,94.92197401,79.79759277
60.94384206,48.06433303,-149.17876604,57.38201458,-55.72125361,-94.45349346
62.65483929,64.37620479,68.81349782,74.91689221,-2.19576744,1.26277916,2.91225237
2.41066412,0.64399821,1.70488870

>  <Name>
lig.pdb

>  <RI>
0

>  <Rbt.Current_Directory>
/home/itssahil/PROJECTS/Mol_Feturizer/New_Systems/rnas/2mxs

>  <Rbt.Executable>
rbdock ($Id: //depot/dev/client3/rdock/2013.1/src/exe/rbdock.cxx#4 $)

>  <Rbt.Library>
libRbt.so (2013.1, Build901 2013/11/27)

>  <Rbt.Parameter_File>
/export/apps/rDock/src/rDock_2013.1_src/data/scripts/dock_solv.prm

>  <Rbt.Receptor>
prm/pocket_docking_7.prm

>  <SCORE>
-42.2897

>  <SCORE.INTER>
-41.4996

>  <SCORE.INTER.CONST>
1

>  <SCORE.INTER.POLAR>
-6.55481

>  <SCORE.INTER.ROT>
9

>  <SCORE.INTER.SOLV>
22.0941

>  <SCORE.INTER.VDW>
-22.7817

>  <SCORE.INTER.norm>
-0.988085

>  <SCORE.INTRA>
-0.790193

>  <SCORE.INTRA.DIHEDRAL>
4.32366

>  <SCORE.INTRA.DIHEDRAL.0>
30.1357

>  <SCORE.INTRA.POLAR>
-1.9902

>  <SCORE.INTRA.POLAR.0>
-0.631696

>  <SCORE.INTRA.REPUL>
0

>  <SCORE.INTRA.REPUL.0>
0

>  <SCORE.INTRA.SOLV>
1.8216

>  <SCORE.INTRA.SOLV.lig_0>
-55.904

>  <SCORE.INTRA.VDW>
2.90386

>  <SCORE.INTRA.VDW.0>
-8.21197

>  <SCORE.INTRA.norm>
-0.0188141

>  <SCORE.RESTR>
0

>  <SCORE.RESTR.CAVITY>
0

>  <SCORE.RESTR.norm>
0

>  <SCORE.SYSTEM>
0

>  <SCORE.SYSTEM.CONST>
0

>  <SCORE.SYSTEM.DIHEDRAL>
0

>  <SCORE.SYSTEM.SOLV>
0

>  <SCORE.SYSTEM.norm>
0

>  <SCORE.heavy>
42

>  <SCORE.norm>
-1.0069

>  <RMSD>
6.731

$$$$
lig.pdb
 OpenBabel11021811453D
libRbt.so/2013.1/901 2013/11/27
 42 45  0  0  0  0  0  0  0  0999 V2000
   -1.9458    4.4140    1.2951 C   0  0  2  0  0  0  0  0  0  0  0  0
   -1.8608    5.6387    0.5640 O   0  0  0  0  0  0  0  0  0  0  0  0
   -3.3363    4.2492    1.9267 C   0  0  2  0  0  0  0  0  0  0  0  0
   -4.3967    4.3615    0.9082 N   0  0  0  0  0  0  0  0  0  0  0  0
   -3.5499    5.2628    3.0583 C   0  0  1  0  0  0  0  0  0  0  0  0
   -4.7719    4.9837    3.7144 O   0  0  0  0  0  0  0  0  0  0  0  0
   -2.3979    5.1801    4.0712 C   0  0  2  0  0  0  0  0  0  0  0  0
   -2.5294    6.2244    5.0165 O   0  0  0  0  0  0  0  0  0  0  0  0
   -1.0250    5.2757    3.3753 C   0  0  2  0  0  0  0  0  0  0  0  0
   -0.9297    4.3504    2.2928 O   0  0  0  0  0  0  0  0  0  0  0  0
    0.0641    4.9678    4.4204 C   0  0  0  0  0  0  0  0  0  0  0  0
    0.2815    3.5404    4.5807 O   0  0  0  0  0  0  0  0  0  0  0  0
    1.3951    7.4204   -1.6168 C   0  0  2  0  0  0  0  0  0  0  0  0
    2.8300    7.6764   -1.8531 N   0  0  0  0  0  0  0  0  0  0  0  0
    0.9831    7.9363   -0.2358 C   0  0  0  0  0  0  0  0  0  0  0  0
   -0.4589    7.5512    0.0730 C   0  0  2  0  0  0  0  0  0  0  0  0
   -0.8757    8.1335    1.3548 N   0  0  0  0  0  0  0  0  0  0  0  0
   -0.5629    6.0083    0.0761 C   0  0  2  0  0  0  0  0  0  0  0  0
   -0.3172    5.5145   -1.3137 C   0  0  2  0  0  0  0  0  0  0  0  0
   -0.4581    4.1058   -1.2971 O   0  0  0  0  0  0  0  0  0  0  0  0
    1.0743    5.9208   -1.7610 C   0  0  1  0  0  0  0  0  0  0  0  0
    1.3302    5.5513   -3.1030 O   0  0  0  0  0  0  0  0  0  0  0  0
    0.7002    3.3268   -1.0171 C   0  0  1  0  0  0  0  0  0  0  0  0
    0.5783    2.8065    0.4167 C   0  0  2  0  0  0  0  0  0  0  0  0
    1.8603    2.7792    1.0154 O   0  0  0  0  0  0  0  0  0  0  0  0
   -0.0142    1.4059    0.2109 C   0  0  2  0  0  0  0  0  0  0  0  0
    0.2161    0.5390    1.3219 O   0  0  0  0  0  0  0  0  0  0  0  0
    0.7042    1.0008   -1.0821 C   0  0  2  0  0  0  0  0  0  0  0  0
    0.7258    2.1859   -1.8654 O   0  0  0  0  0  0  0  0  0  0  0  0
    0.0025   -0.1077   -1.8754 C   0  0  0  0  0  0  0  0  0  0  0  0
   -1.0176    0.4105   -2.7023 O   0  0  0  0  0  0  0  0  0  0  0  0
    0.5155    1.2077    2.5456 C   0  0  2  0  0  0  0  0  0  0  0  0
    1.8091    0.6786    3.1833 C   0  0  2  0  0  0  0  0  0  0  0  0
    2.9348    0.7635    2.2380 N   0  0  0  0  0  0  0  0  0  0  0  0
    1.6230   -0.7527    3.7089 C   0  0  1  0  0  0  0  0  0  0  0  0
    2.8136   -1.1534    4.3590 O   0  0  0  0  0  0  0  0  0  0  0  0
    0.4488   -0.7570    4.7025 C   0  0  2  0  0  0  0  0  0  0  0  0
    0.2062   -2.0653    5.1861 O   0  0  0  0  0  0  0  0  0  0  0  0
   -0.8254   -0.1770    4.0548 C   0  0  1  0  0  0  0  0  0  0  0  0
   -0.5751    1.0973    3.4574 O   0  0  0  0  0  0  0  0  0  0  0  0
   -1.5059   -1.1456    3.0763 C   0  0  0  0  0  0  0  0  0  0  0  0
   -0.5161   -1.8651    2.2585 N   0  0  0  0  0  0  0  0  0  0  0  0
  1  3  1  0  0  0  0
  1  2  1  1  0  0  0
  3  4  1  6  0  0  0
  5  6  1  1  0  0  0
  5  3  1  0  0  0  0
  7  9  1  0  0  0  0
  7  5  1  0  0  0  0
  7  8  1  1  0  0  0
  9 10  1  0  0  0  0
  9 11  1  1  0  0  0
 10  1  1  0  0  0  0
 11 12  1  0  0  0  0
 13 14  1  1  0  0  0
 13 21  1  0  0  0  0
 15 13  1  0  0  0  0
 16 15  1  0  0  0  0
 16 18  1  0  0  0  0
 16 17  1  1  0  0  0
 18  2  1  6  0  0  0
 18 19  1  0  0  0  0
 19 21  1  0  0  0  0
 19 20  1  1  0  0  0
 21 22  1  6  0  0  0
 23 20  1  6  0  0  0
 23 29  1  0  0  0  0
 23 24  1  0  0  0  0
 24 26  1  0  0  0  0
 24 25  1  6  0  0  0
 26 27  1  1  0  0  0
 28 26  1  0  0  0  0
 28 30  1  6  0  0  0
 29 28  1  0  0  0  0
 30 31  1  0  0  0  0
 32 27  1  6  0  0  0
 32 40  1  0  0  0  0
 32 33  1  0  0  0  0
 33 35  1  0  0  0  0
 33 34  1  6  0  0  0
 35 37  1  0  0  0  0
 35 36  1  1  0  0  0
 37 38  1  6  0  0  0
 39 37  1  0  0  0  0
 39 41  1  6  0  0  0
 40 39  1  0  0  0  0
 42 41  1  0  0  0  0
M  END
>  <CHROM.1>
-147.84934181,171.70515301,-44.93540667,-172.06880819,58.83468183,-38.75699105
83.82771505,54.67392589,-28.75283036,-89.40372426,104.77632884,64.50061850
76.22689869,20.38762710,-127.43913197,83.65043072,78.93375570,-83.31817970
80.24830761,0.21377310,-40.46653814,-55.44422685,-0.24944408,3.18073154,1.40949608
1.73998587,0.98351636,-0.61100325

>  <Name>
lig.pdb

>  <RI>
0

>  <Rbt.Current_Directory>
/home/itssahil/PROJECTS/Mol_Feturizer/New_Systems/rnas/2mxs

>  <Rbt.Executable>
rbdock ($Id: //depot/dev/client3/rdock/2013.1/src/exe/rbdock.cxx#4 $)

>  <Rbt.Library>
libRbt.so (2013.1, Build901 2013/11/27)

>  <Rbt.Parameter_File>
/export/apps/rDock/src/rDock_2013.1_src/data/scripts/dock_solv.prm

>  <Rbt.Receptor>
prm/blind_docking_20.prm

>  <SCORE>
11.0765

>  <SCORE.INTER>
-18.307

>  <SCORE.INTER.CONST>
1

>  <SCORE.INTER.POLAR>
-4.30514

>  <SCORE.INTER.ROT>
9

>  <SCORE.INTER.SOLV>
29.1799

>  <SCORE.INTER.VDW>
-17.1808

>  <SCORE.INTER.norm>
-0.435881

>  <SCORE.INTRA>
13.4841

>  <SCORE.INTRA.DIHEDRAL>
19.1897

>  <SCORE.INTRA.DIHEDRAL.0>
30.1357

>  <SCORE.INTRA.POLAR>
-1.84787

>  <SCORE.INTRA.POLAR.0>
-0.631696

>  <SCORE.INTRA.REPUL>
0.237089

>  <SCORE.INTRA.REPUL.0>
0

>  <SCORE.INTRA.SOLV>
3.72467

>  <SCORE.INTRA.SOLV.lig_0>
-55.904

>  <SCORE.INTRA.VDW>
7.12423

>  <SCORE.INTRA.VDW.0>
-8.21197

>  <SCORE.INTRA.norm>
0.32105

>  <SCORE.RESTR>
15.8994

>  <SCORE.RESTR.CAVITY>
15.8994

>  <SCORE.RESTR.norm>
0.378556

>  <SCORE.SYSTEM>
0

>  <SCORE.SYSTEM.CONST>
0

>  <SCORE.SYSTEM.DIHEDRAL>
0

>  <SCORE.SYSTEM.SOLV>
0

>  <SCORE.SYSTEM.norm>
0

>  <SCORE.heavy>
42

>  <SCORE.norm>
0.263725

>  <RMSD>
6.749

$$$$
lig.pdb
 OpenBabel11021811453D
libRbt.so/2013.1/901 2013/11/27
 42 45  0  0  0  0  0  0  0  0999 V2000
    0.9809    0.0609    2.9108 C   0  0  2  0  0  0  0  0  0  0  0  0
    1.0643    1.2835    3.6455 O   0  0  0  0  0  0  0  0  0  0  0  0
    2.3643   -0.3629    2.3949 C   0  0  2  0  0  0  0  0  0  0  0  0
    3.3384   -0.4450    3.4989 N   0  0  0  0  0  0  0  0  0  0  0  0
    2.8562    0.5876    1.2958 C   0  0  1  0  0  0  0  0  0  0  0  0
    4.0554    0.0827    0.7403 O   0  0  0  0  0  0  0  0  0  0  0  0
    1.7976    0.7158    0.1901 C   0  0  2  0  0  0  0  0  0  0  0  0
    2.1993    1.7127   -0.7298 O   0  0  0  0  0  0  0  0  0  0  0  0
    0.4131    1.0686    0.7708 C   0  0  2  0  0  0  0  0  0  0  0  0
    0.0576    0.1825    1.8317 O   0  0  0  0  0  0  0  0  0  0  0  0
   -0.6232    0.9636   -0.3642 C   0  0  0  0  0  0  0  0  0  0  0  0
   -0.1960    1.6649   -1.5625 O   0  0  0  0  0  0  0  0  0  0  0  0
   -0.6194    0.2038    7.4573 C   0  0  2  0  0  0  0  0  0  0  0  0
   -1.2223    0.5323    8.7646 N   0  0  0  0  0  0  0  0  0  0  0  0
    0.7794    0.8157    7.3477 C   0  0  0  0  0  0  0  0  0  0  0  0
    1.3512    0.6015    5.9513 C   0  0  2  0  0  0  0  0  0  0  0  0
    2.7292    1.1041    5.8851 N   0  0  0  0  0  0  0  0  0  0  0  0
    0.4273    1.3066    4.9312 C   0  0  2  0  0  0  0  0  0  0  0  0
   -0.8926    0.6041    4.9233 C   0  0  2  0  0  0  0  0  0  0  0  0
   -1.7076    1.2381    3.9546 O   0  0  0  0  0  0  0  0  0  0  0  0
   -1.5198    0.6812    6.3024 C   0  0  1  0  0  0  0  0  0  0  0  0
   -2.7348   -0.0410    6.3749 O   0  0  0  0  0  0  0  0  0  0  0  0
   -1.8380    2.6542    4.0221 C   0  0  1  0  0  0  0  0  0  0  0  0
   -0.6611    3.2688    3.2613 C   0  0  2  0  0  0  0  0  0  0  0  0
   -0.2529    4.4575    3.9118 O   0  0  0  0  0  0  0  0  0  0  0  0
   -1.2625    3.5247    1.8728 C   0  0  2  0  0  0  0  0  0  0  0  0
   -0.5437    4.5111    1.1318 O   0  0  0  0  0  0  0  0  0  0  0  0
   -2.6873    3.9293    2.2707 C   0  0  2  0  0  0  0  0  0  0  0  0
   -3.0201    3.0585    3.3427 O   0  0  0  0  0  0  0  0  0  0  0  0
   -3.7265    3.7657    1.1554 C   0  0  0  0  0  0  0  0  0  0  0  0
   -4.7745    4.7034    1.2795 O   0  0  0  0  0  0  0  0  0  0  0  0
   -1.3401    5.2702    0.2243 C   0  0  2  0  0  0  0  0  0  0  0  0
   -0.4783    6.1573   -0.6870 C   0  0  2  0  0  0  0  0  0  0  0  0
    0.5295    5.3558   -1.4011 N   0  0  0  0  0  0  0  0  0  0  0  0
    0.1718    7.3008    0.1064 C   0  0  1  0  0  0  0  0  0  0  0  0
    0.8792    8.1304   -0.7948 O   0  0  0  0  0  0  0  0  0  0  0  0
   -0.9404    8.1024    0.8038 C   0  0  2  0  0  0  0  0  0  0  0  0
   -0.3906    9.1463    1.5864 O   0  0  0  0  0  0  0  0  0  0  0  0
   -1.8215    7.1830    1.6744 C   0  0  1  0  0  0  0  0  0  0  0  0
   -2.2955    6.0568    0.9325 O   0  0  0  0  0  0  0  0  0  0  0  0
   -1.1487    6.7617    2.9892 C   0  0  0  0  0  0  0  0  0  0  0  0
   -2.1426    6.5287    4.0495 N   0  0  0  0  0  0  0  0  0  0  0  0
  1  3  1  0  0  0  0
  1  2  1  6  0  0  0
  3  4  1  1  0  0  0
  5  6  1  6  0  0  0
  5  3  1  0  0  0  0
  7  9  1  0  0  0  0
  7  5  1  0  0  0  0
  7  8  1  6  0  0  0
  9 10  1  0  0  0  0
  9 11  1  6  0  0  0
 10  1  1  0  0  0  0
 11 12  1  0  0  0  0
 13 14  1  1  0  0  0
 13 21  1  0  0  0  0
 15 13  1  0  0  0  0
 16 15  1  0  0  0  0
 16 18  1  0  0  0  0
 16 17  1  1  0  0  0
 18  2  1  6  0  0  0
 18 19  1  0  0  0  0
 19 21  1  0  0  0  0
 19 20  1  6  0  0  0
 21 22  1  6  0  0  0
 23 20  1  6  0  0  0
 23 29  1  0  0  0  0
 23 24  1  0  0  0  0
 24 26  1  0  0  0  0
 24 25  1  1  0  0  0
 26 27  1  1  0  0  0
 28 26  1  0  0  0  0
 28 30  1  6  0  0  0
 29 28  1  0  0  0  0
 30 31  1  0  0  0  0
 32 27  1  1  0  0  0
 32 40  1  0  0  0  0
 32 33  1  0  0  0  0
 33 35  1  0  0  0  0
 33 34  1  1  0  0  0
 35 37  1  0  0  0  0
 35 36  1  6  0  0  0
 37 38  1  1  0  0  0
 39 37  1  0  0  0  0
 39 41  1  1  0  0  0
 40 39  1  0  0  0  0
 42 41  1  0  0  0  0
M  END
>  <CHROM.1>
79.18636871,-130.76847153,149.89443986,173.60576060,-175.25398307,-178.59380153
-48.66774325,79.19710006,80.42211428,-51.34473811,85.57387105,-169.25230997
160.16846251,-149.46496031,-171.33676335,-150.31424261,-58.30932315,76.76307939
43.54052630,-80.78811564,150.23884124,64.07235145,-0.29515710,2.98555728
2.56285352,-1.28096289,0.84109985,-0.87391052

>  <Name>
lig.pdb

>  <RI>
0

>  <Rbt.Current_Directory>
/home/itssahil/PROJECTS/Mol_Feturizer/New_Systems/rnas/2mxs

>  <Rbt.Executable>
rbdock ($Id: //depot/dev/client3/rdock/2013.1/src/exe/rbdock.cxx#4 $)

>  <Rbt.Library>
libRbt.so (2013.1, Build901 2013/11/27)

>  <Rbt.Parameter_File>
/export/apps/rDock/src/rDock_2013.1_src/data/scripts/dock_solv.prm

>  <Rbt.Receptor>
prm/blind_docking_80.prm

>  <SCORE>
-2.39585

>  <SCORE.INTER>
-32.2571

>  <SCORE.INTER.CONST>
1

>  <SCORE.INTER.POLAR>
-6.8963

>  <SCORE.INTER.ROT>
9

>  <SCORE.INTER.SOLV>
30.0101

>  <SCORE.INTER.VDW>
-18.1204

>  <SCORE.INTER.norm>
-0.768025

>  <SCORE.INTRA>
15.2252

>  <SCORE.INTRA.DIHEDRAL>
1.49983

>  <SCORE.INTRA.DIHEDRAL.0>
30.1357

>  <SCORE.INTRA.POLAR>
-0.298296

>  <SCORE.INTRA.POLAR.0>
-0.631696

>  <SCORE.INTRA.REPUL>
0

>  <SCORE.INTRA.REPUL.0>
0

>  <SCORE.INTRA.SOLV>
3.35522

>  <SCORE.INTRA.SOLV.lig_0>
-55.904

>  <SCORE.INTRA.VDW>
13.8119

>  <SCORE.INTRA.VDW.0>
-8.21197

>  <SCORE.INTRA.norm>
0.362506

>  <SCORE.RESTR>
14.636

>  <SCORE.RESTR.CAVITY>
14.636

>  <SCORE.RESTR.norm>
0.348475

>  <SCORE.SYSTEM>
0

>  <SCORE.SYSTEM.CONST>
0

>  <SCORE.SYSTEM.DIHEDRAL>
0

>  <SCORE.SYSTEM.SOLV>
0

>  <SCORE.SYSTEM.norm>
0

>  <SCORE.heavy>
42

>  <SCORE.norm>
-0.0570442

>  <RMSD>
6.749

$$$$
lig.pdb
 OpenBabel11021811453D
libRbt.so/2013.1/901 2013/11/27
 42 45  0  0  0  0  0  0  0  0999 V2000
   -1.8931    4.5898    1.4790 C   0  0  2  0  0  0  0  0  0  0  0  0
   -1.8469    5.7280    0.6164 O   0  0  0  0  0  0  0  0  0  0  0  0
   -3.2504    4.4988    2.1926 C   0  0  2  0  0  0  0  0  0  0  0  0
   -4.3601    4.5038    1.2215 N   0  0  0  0  0  0  0  0  0  0  0  0
   -3.4098    5.6295    3.2172 C   0  0  1  0  0  0  0  0  0  0  0  0
   -4.5973    5.4269    3.9591 O   0  0  0  0  0  0  0  0  0  0  0  0
   -2.2091    5.6530    4.1749 C   0  0  2  0  0  0  0  0  0  0  0  0
   -2.2958    6.7938    5.0071 O   0  0  0  0  0  0  0  0  0  0  0  0
   -0.8724    5.6682    3.4058 C   0  0  2  0  0  0  0  0  0  0  0  0
   -0.8288    4.6310    2.4263 O   0  0  0  0  0  0  0  0  0  0  0  0
    0.2677    5.4715    4.4230 C   0  0  0  0  0  0  0  0  0  0  0  0
    0.3507    6.5685    5.3717 O   0  0  0  0  0  0  0  0  0  0  0  0
    1.3768    7.5429   -1.5845 C   0  0  2  0  0  0  0  0  0  0  0  0
    2.8085    7.7941   -1.8445 N   0  0  0  0  0  0  0  0  0  0  0  0
    0.9985    8.0244   -0.1816 C   0  0  0  0  0  0  0  0  0  0  0  0
   -0.4398    7.6422    0.1475 C   0  0  2  0  0  0  0  0  0  0  0  0
   -0.8245    8.1927    1.4531 N   0  0  0  0  0  0  0  0  0  0  0  0
   -0.5566    6.1006    0.1110 C   0  0  2  0  0  0  0  0  0  0  0  0
   -0.3445    5.6429   -1.2965 C   0  0  2  0  0  0  0  0  0  0  0  0
   -0.4968    4.2354   -1.3150 O   0  0  0  0  0  0  0  0  0  0  0  0
    1.0405    6.0504   -1.7623 C   0  0  1  0  0  0  0  0  0  0  0  0
    1.2649    5.7155   -3.1190 O   0  0  0  0  0  0  0  0  0  0  0  0
    0.6651    3.4458   -1.5463 C   0  0  1  0  0  0  0  0  0  0  0  0
    1.1921    2.9803   -0.1873 C   0  0  2  0  0  0  0  0  0  0  0  0
    2.6067    2.9509   -0.2189 O   0  0  0  0  0  0  0  0  0  0  0  0
    0.5693    1.5843   -0.0516 C   0  0  2  0  0  0  0  0  0  0  0  0
    1.2684    0.7542    0.8762 O   0  0  0  0  0  0  0  0  0  0  0  0
    0.6386    1.1193   -1.5114 C   0  0  2  0  0  0  0  0  0  0  0  0
    0.3107    2.2745   -2.2706 O   0  0  0  0  0  0  0  0  0  0  0  0
   -0.3428   -0.0041   -1.8651 C   0  0  0  0  0  0  0  0  0  0  0  0
   -0.2980   -1.0510   -0.9189 O   0  0  0  0  0  0  0  0  0  0  0  0
    0.4309    0.0399    1.7831 C   0  0  2  0  0  0  0  0  0  0  0  0
   -0.1505    0.9593    2.8679 C   0  0  2  0  0  0  0  0  0  0  0  0
   -0.8630    2.0986    2.2658 N   0  0  0  0  0  0  0  0  0  0  0  0
    0.9421    1.4296    3.8399 C   0  0  1  0  0  0  0  0  0  0  0  0
    0.3371    2.1984    4.8615 O   0  0  0  0  0  0  0  0  0  0  0  0
    1.6237    0.1893    4.4423 C   0  0  2  0  0  0  0  0  0  0  0  0
    2.6714    0.5678    5.3161 O   0  0  0  0  0  0  0  0  0  0  0  0
    2.1563   -0.7419    3.3338 C   0  0  1  0  0  0  0  0  0  0  0  0
    1.1420   -1.0458    2.3736 O   0  0  0  0  0  0  0  0  0  0  0  0
    3.4397   -0.2237    2.6680 C   0  0  0  0  0  0  0  0  0  0  0  0
    3.4643   -0.5416    1.2311 N   0  0  0  0  0  0  0  0  0  0  0  0
  1  3  1  0  0  0  0
  1  2  1  1  0  0  0
  3  4  1  6  0  0  0
  5  6  1  1  0  0  0
  5  3  1  0  0  0  0
  7  9  1  0  0  0  0
  7  5  1  0  0  0  0
  7  8  1  6  0  0  0
  9 10  1  0  0  0  0
  9 11  1  1  0  0  0
 10  1  1  0  0  0  0
 11 12  1  0  0  0  0
 13 14  1  1  0  0  0
 13 21  1  0  0  0  0
 15 13  1  0  0  0  0
 16 15  1  0  0  0  0
 16 18  1  0  0  0  0
 16 17  1  1  0  0  0
 18  2  1  6  0  0  0
 18 19  1  0  0  0  0
 19 21  1  0  0  0  0
 19 20  1  1  0  0  0
 21 22  1  6  0  0  0
 23 20  1  1  0  0  0
 23 29  1  0  0  0  0
 23 24  1  0  0  0  0
 24 26  1  0  0  0  0
 24 25  1  6  0  0  0
 26 27  1  1  0  0  0
 28 26  1  0  0  0  0
 28 30  1  1  0  0  0
 29 28  1  0  0  0  0
 30 31  1  0  0  0  0
 32 27  1  6  0  0  0
 32 40  1  0  0  0  0
 32 33  1  0  0  0  0
 33 35  1  0  0  0  0
 33 34  1  6  0  0  0
 35 37  1  0  0  0  0
 35 36  1  1  0  0  0
 37 38  1  1  0  0  0
 39 37  1  0  0  0  0
 39 41  1  6  0  0  0
 40 39  1  0  0  0  0
 42 41  1  0  0  0  0
M  END
>  <CHROM.1>
-139.00348983,166.99133733,179.41448654,-179.84939986,65.78711437,48.73095176
-64.00016001,58.92911780,76.03128875,-110.69272935,97.60219997,-93.16343057
-55.42960906,134.62709662,-74.24407225,-48.25615217,173.40716167,-81.05437173
-59.10865186,167.83788672,-144.17968770,47.37129391,0.03610574,3.60178225
1.33959057,2.40211650,1.06150945,-0.85223266

>  <Name>
lig.pdb

>  <RI>
0

>  <Rbt.Current_Directory>
/home/itssahil/PROJECTS/Mol_Feturizer/New_Systems/rnas/2mxs

>  <Rbt.Executable>
rbdock ($Id: //depot/dev/client3/rdock/2013.1/src/exe/rbdock.cxx#4 $)

>  <Rbt.Library>
libRbt.so (2013.1, Build901 2013/11/27)

>  <Rbt.Parameter_File>
/export/apps/rDock/src/rDock_2013.1_src/data/scripts/dock_solv.prm

>  <Rbt.Receptor>
prm/blind_docking_20.prm

>  <SCORE>
8.95266

>  <SCORE.INTER>
-10.871

>  <SCORE.INTER.CONST>
1

>  <SCORE.INTER.POLAR>
-2.69978

>  <SCORE.INTER.ROT>
9

>  <SCORE.INTER.SOLV>
29.6375

>  <SCORE.INTER.VDW>
-17.7272

>  <SCORE.INTER.norm>
-0.258833

>  <SCORE.INTRA>
6.16166

>  <SCORE.INTRA.DIHEDRAL>
7.18718

>  <SCORE.INTRA.DIHEDRAL.0>
30.1357

>  <SCORE.INTRA.POLAR>
-1.01861

>  <SCORE.INTRA.POLAR.0>
-0.631696

>  <SCORE.INTRA.REPUL>
0

>  <SCORE.INTRA.REPUL.0>
0

>  <SCORE.INTRA.SOLV>
2.35187

>  <SCORE.INTRA.SOLV.lig_0>
-55.904

>  <SCORE.INTRA.VDW>
4.85542

>  <SCORE.INTRA.VDW.0>
-8.21197

>  <SCORE.INTRA.norm>
0.146706

>  <SCORE.RESTR>
13.662

>  <SCORE.RESTR.CAVITY>
13.662

>  <SCORE.RESTR.norm>
0.325285

>  <SCORE.SYSTEM>
0

>  <SCORE.SYSTEM.CONST>
0

>  <SCORE.SYSTEM.DIHEDRAL>
0

>  <SCORE.SYSTEM.SOLV>
0

>  <SCORE.SYSTEM.norm>
0

>  <SCORE.heavy>
42

>  <SCORE.norm>
0.213158

>  <RMSD>
6.765

$$$$
lig.pdb
 OpenBabel11021811453D
libRbt.so/2013.1/901 2013/11/27
 42 45  0  0  0  0  0  0  0  0999 V2000
   -0.6610    4.5736    1.1453 C   0  0  2  0  0  0  0  0  0  0  0  0
   -0.5429    5.0526   -0.1956 O   0  0  0  0  0  0  0  0  0  0  0  0
   -1.9012    3.6804    1.3001 C   0  0  2  0  0  0  0  0  0  0  0  0
   -1.8870    2.5806    0.3179 N   0  0  0  0  0  0  0  0  0  0  0  0
   -3.1901    4.5045    1.1858 C   0  0  1  0  0  0  0  0  0  0  0  0
   -4.3016    3.6816    1.4841 O   0  0  0  0  0  0  0  0  0  0  0  0
   -3.1545    5.6867    2.1660 C   0  0  2  0  0  0  0  0  0  0  0  0
   -4.2739    6.5204    1.9352 O   0  0  0  0  0  0  0  0  0  0  0  0
   -1.8553    6.5044    2.0188 C   0  0  2  0  0  0  0  0  0  0  0  0
   -0.7058    5.6599    2.0671 O   0  0  0  0  0  0  0  0  0  0  0  0
   -1.7993    7.5259    3.1706 C   0  0  0  0  0  0  0  0  0  0  0  0
   -0.7961    8.5520    2.9445 O   0  0  0  0  0  0  0  0  0  0  0  0
    2.4364    7.5024   -2.1068 C   0  0  2  0  0  0  0  0  0  0  0  0
    3.7461    8.1833   -2.1452 N   0  0  0  0  0  0  0  0  0  0  0  0
    1.5957    8.0317   -0.9422 C   0  0  0  0  0  0  0  0  0  0  0  0
    0.3017    7.2375   -0.8097 C   0  0  2  0  0  0  0  0  0  0  0  0
   -0.5413    7.8141    0.2452 N   0  0  0  0  0  0  0  0  0  0  0  0
    0.6614    5.7612   -0.5223 C   0  0  2  0  0  0  0  0  0  0  0  0
    1.3430    5.1967   -1.7274 C   0  0  2  0  0  0  0  0  0  0  0  0
    1.6257    3.8355   -1.4593 O   0  0  0  0  0  0  0  0  0  0  0  0
    2.6144    5.9758   -2.0063 C   0  0  1  0  0  0  0  0  0  0  0  0
    3.2581    5.5372   -3.1880 O   0  0  0  0  0  0  0  0  0  0  0  0
    2.2992    3.5251   -0.2440 C   0  0  1  0  0  0  0  0  0  0  0  0
    1.2634    2.9701    0.7360 C   0  0  2  0  0  0  0  0  0  0  0  0
    1.5820    3.3990    2.0464 O   0  0  0  0  0  0  0  0  0  0  0  0
    1.4129    1.4539    0.5515 C   0  0  2  0  0  0  0  0  0  0  0  0
    0.9198    0.7097    1.6659 O   0  0  0  0  0  0  0  0  0  0  0  0
    2.9282    1.3608    0.3342 C   0  0  2  0  0  0  0  0  0  0  0  0
    3.2436    2.4868   -0.4725 O   0  0  0  0  0  0  0  0  0  0  0  0
    3.3872    0.0877   -0.3863 C   0  0  0  0  0  0  0  0  0  0  0  0
    4.7240   -0.2363   -0.0687 O   0  0  0  0  0  0  0  0  0  0  0  0
    1.5454   -0.5575    1.8580 C   0  0  2  0  0  0  0  0  0  0  0  0
    0.5169   -1.6965    1.9304 C   0  0  2  0  0  0  0  0  0  0  0  0
   -0.3473   -1.7017    0.7382 N   0  0  0  0  0  0  0  0  0  0  0  0
   -0.3088   -1.6165    3.2232 C   0  0  1  0  0  0  0  0  0  0  0  0
   -1.1748   -2.7336    3.2756 O   0  0  0  0  0  0  0  0  0  0  0  0
    0.6576   -1.6377    4.4196 C   0  0  2  0  0  0  0  0  0  0  0  0
   -0.0519   -1.5225    5.6393 O   0  0  0  0  0  0  0  0  0  0  0  0
    1.7098   -0.5160    4.3002 C   0  0  1  0  0  0  0  0  0  0  0  0
    2.3606   -0.5423    3.0277 O   0  0  0  0  0  0  0  0  0  0  0  0
    1.1549    0.8771    4.6321 C   0  0  0  0  0  0  0  0  0  0  0  0
    1.5302    1.2935    5.9930 N   0  0  0  0  0  0  0  0  0  0  0  0
  1  3  1  0  0  0  0
  1  2  1  6  0  0  0
  3  4  1  6  0  0  0
  5  6  1  1  0  0  0
  5  3  1  0  0  0  0
  7  9  1  0  0  0  0
  7  5  1  0  0  0  0
  7  8  1  6  0  0  0
  9 10  1  0  0  0  0
  9 11  1  1  0  0  0
 10  1  1  0  0  0  0
 11 12  1  0  0  0  0
 13 14  1  1  0  0  0
 13 21  1  0  0  0  0
 15 13  1  0  0  0  0
 16 15  1  0  0  0  0
 16 18  1  0  0  0  0
 16 17  1  1  0  0  0
 18  2  1  6  0  0  0
 18 19  1  0  0  0  0
 19 21  1  0  0  0  0
 19 20  1  1  0  0  0
 21 22  1  6  0  0  0
 23 20  1  6  0  0  0
 23 29  1  0  0  0  0
 23 24  1  0  0  0  0
 24 26  1  0  0  0  0
 24 25  1  1  0  0  0
 26 27  1  1  0  0  0
 28 26  1  0  0  0  0
 28 30  1  6  0  0  0
 29 28  1  0  0  0  0
 30 31  1  0  0  0  0
 32 27  1  1  0  0  0
 32 40  1  0  0  0  0
 32 33  1  0  0  0  0
 33 35  1  0  0  0  0
 33 34  1  6  0  0  0
 35 37  1  0  0  0  0
 35 36  1  1  0  0  0
 37 38  1  1  0  0  0
 39 37  1  0  0  0  0
 39 41  1  6  0  0  0
 40 39  1  0  0  0  0
 42 41  1  0  0  0  0
M  END
>  <CHROM.1>
-113.10086632,-172.41073919,165.79165759,-55.42379603,-178.09812446,170.34125259
-165.94130004,-49.13048444,-152.97512786,-51.05457202,103.20802106,-16.97544680
169.79862018,-152.43421398,-126.29111891,-154.71105644,-72.74436774,-176.98565575
-61.91147400,-178.66475693,101.03823182,-22.00580143,0.49687708,3.21141308
1.16523290,1.64967065,0.61174057,-0.44406314

>  <Name>
lig.pdb

>  <RI>
0

>  <Rbt.Current_Directory>
/home/itssahil/PROJECTS/Mol_Feturizer/New_Systems/rnas/2mxs

>  <Rbt.Executable>
rbdock ($Id: //depot/dev/client3/rdock/2013.1/src/exe/rbdock.cxx#4 $)

>  <Rbt.Library>
libRbt.so (2013.1, Build901 2013/11/27)

>  <Rbt.Parameter_File>
/export/apps/rDock/src/rDock_2013.1_src/data/scripts/dock_solv.prm

>  <Rbt.Receptor>
prm/blind_docking_80.prm

>  <SCORE>
-9.67671

>  <SCORE.INTER>
-51.631

>  <SCORE.INTER.CONST>
1

>  <SCORE.INTER.POLAR>
-6.77221

>  <SCORE.INTER.ROT>
9

>  <SCORE.INTER.SOLV>
32.4958

>  <SCORE.INTER.VDW>
-32.2786

>  <SCORE.INTER.norm>
-1.22931

>  <SCORE.INTRA>
29.8556

>  <SCORE.INTRA.DIHEDRAL>
12.8596

>  <SCORE.INTRA.DIHEDRAL.0>
30.1357

>  <SCORE.INTRA.POLAR>
0.260817

>  <SCORE.INTRA.POLAR.0>
-0.631696

>  <SCORE.INTRA.REPUL>
0

>  <SCORE.INTRA.REPUL.0>
0

>  <SCORE.INTRA.SOLV>
1.2535

>  <SCORE.INTRA.SOLV.lig_0>
-55.904

>  <SCORE.INTRA.VDW>
21.9123

>  <SCORE.INTRA.VDW.0>
-8.21197

>  <SCORE.INTRA.norm>
0.710848

>  <SCORE.RESTR>
12.0987

>  <SCORE.RESTR.CAVITY>
12.0987

>  <SCORE.RESTR.norm>
0.288065

>  <SCORE.SYSTEM>
0

>  <SCORE.SYSTEM.CONST>
0

>  <SCORE.SYSTEM.DIHEDRAL>
0

>  <SCORE.SYSTEM.SOLV>
0

>  <SCORE.SYSTEM.norm>
0

>  <SCORE.heavy>
42

>  <SCORE.norm>
-0.230398

>  <RMSD>
6.767

$$$$
lig.pdb
 OpenBabel11021811453D
libRbt.so/2013.1/901 2013/11/27
 42 45  0  0  0  0  0  0  0  0999 V2000
   -1.6209    4.9027    1.4931 C   0  0  2  0  0  0  0  0  0  0  0  0
   -1.6631    5.9049    0.4756 O   0  0  0  0  0  0  0  0  0  0  0  0
   -3.0158    4.6753    2.0951 C   0  0  2  0  0  0  0  0  0  0  0  0
   -4.0002    4.3573    1.0443 N   0  0  0  0  0  0  0  0  0  0  0  0
   -3.4632    5.8889    2.9200 C   0  0  1  0  0  0  0  0  0  0  0  0
   -4.6767    5.5858    3.5811 O   0  0  0  0  0  0  0  0  0  0  0  0
   -2.3925    6.2486    3.9612 C   0  0  2  0  0  0  0  0  0  0  0  0
   -2.7493    7.4588    4.6012 O   0  0  0  0  0  0  0  0  0  0  0  0
   -0.9999    6.3911    3.3142 C   0  0  2  0  0  0  0  0  0  0  0  0
   -0.6859    5.2547    2.5097 O   0  0  0  0  0  0  0  0  0  0  0  0
    0.0399    6.5335    4.4420 C   0  0  0  0  0  0  0  0  0  0  0  0
    0.3318    5.2623    5.0815 O   0  0  0  0  0  0  0  0  0  0  0  0
    1.4207    7.7915   -1.8615 C   0  0  2  0  0  0  0  0  0  0  0  0
    2.8337    8.0441   -2.2079 N   0  0  0  0  0  0  0  0  0  0  0  0
    1.1434    8.2145   -0.4168 C   0  0  0  0  0  0  0  0  0  0  0  0
   -0.2728    7.8281   -0.0067 C   0  0  2  0  0  0  0  0  0  0  0  0
   -0.5625    8.3244    1.3444 N   0  0  0  0  0  0  0  0  0  0  0  0
   -0.4066    6.2904   -0.1006 C   0  0  2  0  0  0  0  0  0  0  0  0
   -0.2951    5.8923   -1.5375 C   0  0  2  0  0  0  0  0  0  0  0  0
   -0.4618    4.4880   -1.6054 O   0  0  0  0  0  0  0  0  0  0  0  0
    1.0588    6.3102   -2.0792 C   0  0  1  0  0  0  0  0  0  0  0  0
    1.1872    6.0326   -3.4610 O   0  0  0  0  0  0  0  0  0  0  0  0
    0.7000    3.6753   -1.4756 C   0  0  1  0  0  0  0  0  0  0  0  0
    1.1254    3.6991   -0.0060 C   0  0  2  0  0  0  0  0  0  0  0  0
    2.5382    3.6715    0.0728 O   0  0  0  0  0  0  0  0  0  0  0  0
    0.4719    2.4259    0.5480 C   0  0  2  0  0  0  0  0  0  0  0  0
    1.0924    1.9625    1.7476 O   0  0  0  0  0  0  0  0  0  0  0  0
    0.6330    1.4966   -0.6613 C   0  0  2  0  0  0  0  0  0  0  0  0
    0.3766    2.3258   -1.7861 O   0  0  0  0  0  0  0  0  0  0  0  0
   -0.3404    0.3123   -0.6836 C   0  0  0  0  0  0  0  0  0  0  0  0
   -0.4289   -0.2640   -1.9694 O   0  0  0  0  0  0  0  0  0  0  0  0
    0.4418    0.8524    2.3627 C   0  0  2  0  0  0  0  0  0  0  0  0
    0.5415    0.9097    3.8947 C   0  0  2  0  0  0  0  0  0  0  0  0
    0.0201    2.1873    4.4085 N   0  0  0  0  0  0  0  0  0  0  0  0
    1.9819    0.6598    4.3663 C   0  0  1  0  0  0  0  0  0  0  0  0
    1.9967    0.6385    5.7805 O   0  0  0  0  0  0  0  0  0  0  0  0
    2.4471   -0.6968    3.8104 C   0  0  2  0  0  0  0  0  0  0  0  0
    3.7884   -0.9572    4.1812 O   0  0  0  0  0  0  0  0  0  0  0  0
    2.2924   -0.7480    2.2764 C   0  0  1  0  0  0  0  0  0  0  0  0
    0.9731   -0.3760    1.8709 O   0  0  0  0  0  0  0  0  0  0  0  0
    3.3693    0.0521    1.5289 C   0  0  0  0  0  0  0  0  0  0  0  0
    3.3554   -0.2465    0.0877 N   0  0  0  0  0  0  0  0  0  0  0  0
  1  3  1  0  0  0  0
  1  2  1  6  0  0  0
  3  4  1  6  0  0  0
  5  6  1  1  0  0  0
  5  3  1  0  0  0  0
  7  9  1  0  0  0  0
  7  5  1  0  0  0  0
  7  8  1  6  0  0  0
  9 10  1  0  0  0  0
  9 11  1  1  0  0  0
 10  1  1  0  0  0  0
 11 12  1  0  0  0  0
 13 14  1  1  0  0  0
 13 21  1  0  0  0  0
 15 13  1  0  0  0  0
 16 15  1  0  0  0  0
 16 18  1  0  0  0  0
 16 17  1  1  0  0  0
 18  2  1  6  0  0  0
 18 19  1  0  0  0  0
 19 21  1  0  0  0  0
 19 20  1  1  0  0  0
 21 22  1  6  0  0  0
 23 20  1  1  0  0  0
 23 29  1  0  0  0  0
 23 24  1  0  0  0  0
 24 26  1  0  0  0  0
 24 25  1  6  0  0  0
 26 27  1  1  0  0  0
 28 26  1  0  0  0  0
 28 30  1  1  0  0  0
 29 28  1  0  0  0  0
 30 31  1  0  0  0  0
 32 27  1  6  0  0  0
 32 40  1  0  0  0  0
 32 33  1  0  0  0  0
 33 35  1  0  0  0  0
 33 34  1  6  0  0  0
 35 37  1  0  0  0  0
 35 36  1  1  0  0  0
 37 38  1  6  0  0  0
 39 37  1  0  0  0  0
 39 41  1  6  0  0  0
 40 39  1  0  0  0  0
 42 41  1  0  0  0  0
M  END
>  <CHROM.1>
-126.91501079,175.35025566,-56.76593836,-150.80628658,91.09046875,96.96280216
76.78346374,-63.06694756,-176.54064674,-88.97337151,73.70052495,67.25770242
82.30723178,174.58871822,-145.91603575,162.33975483,-170.46991100,-179.16587915
-58.79355617,80.08421942,168.20733002,60.42679840,0.19846798,3.78483303,1.30114765
2.29963567,0.98896254,-0.90252871

>  <Name>
lig.pdb

>  <RI>
0

>  <Rbt.Current_Directory>
/home/itssahil/PROJECTS/Mol_Feturizer/New_Systems/rnas/2mxs

>  <Rbt.Executable>
rbdock ($Id: //depot/dev/client3/rdock/2013.1/src/exe/rbdock.cxx#4 $)

>  <Rbt.Library>
libRbt.so (2013.1, Build901 2013/11/27)

>  <Rbt.Parameter_File>
/export/apps/rDock/src/rDock_2013.1_src/data/scripts/dock_solv.prm

>  <Rbt.Receptor>
prm/blind_docking_60.prm

>  <SCORE>
37.5418

>  <SCORE.INTER>
9.3446

>  <SCORE.INTER.CONST>
1

>  <SCORE.INTER.POLAR>
-3.87846

>  <SCORE.INTER.ROT>
9

>  <SCORE.INTER.SOLV>
35.2122

>  <SCORE.INTER.VDW>
-2.17949

>  <SCORE.INTER.norm>
0.22249

>  <SCORE.INTRA>
8.58451

>  <SCORE.INTRA.DIHEDRAL>
5.84737

>  <SCORE.INTRA.DIHEDRAL.0>
30.1357

>  <SCORE.INTRA.POLAR>
0.626227

>  <SCORE.INTRA.POLAR.0>
-0.631696

>  <SCORE.INTRA.REPUL>
0

>  <SCORE.INTRA.REPUL.0>
0

>  <SCORE.INTRA.SOLV>
0.90371

>  <SCORE.INTRA.SOLV.lig_0>
-55.904

>  <SCORE.INTRA.VDW>
3.07979

>  <SCORE.INTRA.VDW.0>
-8.21197

>  <SCORE.INTRA.norm>
0.204393

>  <SCORE.RESTR>
19.6127

>  <SCORE.RESTR.CAVITY>
19.6127

>  <SCORE.RESTR.norm>
0.466968

>  <SCORE.SYSTEM>
0

>  <SCORE.SYSTEM.CONST>
0

>  <SCORE.SYSTEM.DIHEDRAL>
0

>  <SCORE.SYSTEM.SOLV>
0

>  <SCORE.SYSTEM.norm>
0

>  <SCORE.heavy>
42

>  <SCORE.norm>
0.893852

>  <RMSD>
6.773

$$$$
lig.pdb
 OpenBabel11021811453D
libRbt.so/2013.1/901 2013/11/27
 42 45  0  0  0  0  0  0  0  0999 V2000
   -2.0744    4.6852    1.3676 C   0  0  2  0  0  0  0  0  0  0  0  0
   -1.9819    5.8631    0.5641 O   0  0  0  0  0  0  0  0  0  0  0  0
   -3.4024    4.6518    2.1389 C   0  0  2  0  0  0  0  0  0  0  0  0
   -4.5498    4.7895    1.2229 N   0  0  0  0  0  0  0  0  0  0  0  0
   -3.4336    5.7326    3.2272 C   0  0  1  0  0  0  0  0  0  0  0  0
   -4.5994    5.5745    4.0129 O   0  0  0  0  0  0  0  0  0  0  0  0
   -2.1939    5.6176    4.1270 C   0  0  2  0  0  0  0  0  0  0  0  0
   -2.1602    6.7139    5.0205 O   0  0  0  0  0  0  0  0  0  0  0  0
   -0.8944    5.5800    3.2974 C   0  0  2  0  0  0  0  0  0  0  0  0
   -0.9699    4.5981    2.2644 O   0  0  0  0  0  0  0  0  0  0  0  0
    0.2712    5.2467    4.2480 C   0  0  0  0  0  0  0  0  0  0  0  0
    0.0160    4.0483    5.0284 O   0  0  0  0  0  0  0  0  0  0  0  0
    1.3203    7.6680   -1.5260 C   0  0  2  0  0  0  0  0  0  0  0  0
    2.7618    7.8851   -1.7611 N   0  0  0  0  0  0  0  0  0  0  0  0
    0.9415    8.1012   -0.1075 C   0  0  0  0  0  0  0  0  0  0  0  0
   -0.5114    7.7506    0.1909 C   0  0  2  0  0  0  0  0  0  0  0  0
   -0.8934    8.2570    1.5151 N   0  0  0  0  0  0  0  0  0  0  0  0
   -0.6752    6.2163    0.0876 C   0  0  2  0  0  0  0  0  0  0  0  0
   -0.4618    5.8122   -1.3360 C   0  0  2  0  0  0  0  0  0  0  0  0
   -0.6571    4.4122   -1.4160 O   0  0  0  0  0  0  0  0  0  0  0  0
    0.9402    6.1956   -1.7705 C   0  0  1  0  0  0  0  0  0  0  0  0
    1.1691    5.9116   -3.1380 O   0  0  0  0  0  0  0  0  0  0  0  0
    0.4874    3.5945   -1.6356 C   0  0  1  0  0  0  0  0  0  0  0  0
    1.1234    3.3051   -0.2742 C   0  0  2  0  0  0  0  0  0  0  0  0
    2.5311    3.2660   -0.4141 O   0  0  0  0  0  0  0  0  0  0  0  0
    0.5216    1.9408    0.0885 C   0  0  2  0  0  0  0  0  0  0  0  0
    1.2972    1.2338    1.0568 O   0  0  0  0  0  0  0  0  0  0  0  0
    0.4778    1.2919   -1.3004 C   0  0  2  0  0  0  0  0  0  0  0  0
    0.0838    2.3414   -2.1731 O   0  0  0  0  0  0  0  0  0  0  0  0
   -0.5218    0.1365   -1.4279 C   0  0  0  0  0  0  0  0  0  0  0  0
   -0.9433   -0.0414   -2.7635 O   0  0  0  0  0  0  0  0  0  0  0  0
    0.5631    0.2858    1.8291 C   0  0  2  0  0  0  0  0  0  0  0  0
    0.1472    0.8598    3.1921 C   0  0  2  0  0  0  0  0  0  0  0  0
   -0.6065    2.1139    3.0272 N   0  0  0  0  0  0  0  0  0  0  0  0
    1.3656    1.0521    4.1077 C   0  0  1  0  0  0  0  0  0  0  0  0
    0.9144    1.4988    5.3717 O   0  0  0  0  0  0  0  0  0  0  0  0
    2.0861   -0.2995    4.2488 C   0  0  2  0  0  0  0  0  0  0  0  0
    3.2452   -0.1683    5.0511 O   0  0  0  0  0  0  0  0  0  0  0  0
    2.4503   -0.8786    2.8662 C   0  0  1  0  0  0  0  0  0  0  0  0
    1.3152   -0.9137    1.9980 O   0  0  0  0  0  0  0  0  0  0  0  0
    3.6520   -0.1814    2.2115 C   0  0  0  0  0  0  0  0  0  0  0  0
    3.5386   -0.1829    0.7440 N   0  0  0  0  0  0  0  0  0  0  0  0
  1  3  1  0  0  0  0
  1  2  1  1  0  0  0
  3  4  1  6  0  0  0
  5  6  1  1  0  0  0
  5  3  1  0  0  0  0
  7  9  1  0  0  0  0
  7  5  1  0  0  0  0
  7  8  1  1  0  0  0
  9 10  1  0  0  0  0
  9 11  1  1  0  0  0
 10  1  1  0  0  0  0
 11 12  1  0  0  0  0
 13 14  1  1  0  0  0
 13 21  1  0  0  0  0
 15 13  1  0  0  0  0
 16 15  1  0  0  0  0
 16 18  1  0  0  0  0
 16 17  1  1  0  0  0
 18  2  1  6  0  0  0
 18 19  1  0  0  0  0
 19 21  1  0  0  0  0
 19 20  1  1  0  0  0
 21 22  1  6  0  0  0
 23 20  1  1  0  0  0
 23 29  1  0  0  0  0
 23 24  1  0  0  0  0
 24 26  1  0  0  0  0
 24 25  1  6  0  0  0
 26 27  1  1  0  0  0
 28 26  1  0  0  0  0
 28 30  1  1  0  0  0
 29 28  1  0  0  0  0
 30 31  1  0  0  0  0
 32 27  1  1  0  0  0
 32 40  1  0  0  0  0
 32 33  1  0  0  0  0
 33 35  1  0  0  0  0
 33 34  1  6  0  0  0
 35 37  1  0  0  0  0
 35 36  1  1  0  0  0
 37 38  1  1  0  0  0
 39 37  1  0  0  0  0
 39 41  1  6  0  0  0
 40 39  1  0  0  0  0
 42 41  1  0  0  0  0
M  END
>  <CHROM.1>
-139.51072441,163.20774894,175.79770133,-173.52613502,53.78609613,-144.95509495
52.64154956,-49.00970357,80.92116902,-109.12900362,85.71628600,66.93068018
71.78423673,154.96667160,-97.81710508,154.85558200,-164.91444040,-54.26885712
-54.51480637,-173.14833416,-148.80646484,76.90251760,0.03954395,3.60902840
1.28036475,2.37151705,0.99457983,-0.96093883

>  <Name>
lig.pdb

>  <RI>
0

>  <Rbt.Current_Directory>
/home/itssahil/PROJECTS/Mol_Feturizer/New_Systems/rnas/2mxs

>  <Rbt.Executable>
rbdock ($Id: //depot/dev/client3/rdock/2013.1/src/exe/rbdock.cxx#4 $)

>  <Rbt.Library>
libRbt.so (2013.1, Build901 2013/11/27)

>  <Rbt.Parameter_File>
/export/apps/rDock/src/rDock_2013.1_src/data/scripts/dock_solv.prm

>  <Rbt.Receptor>
prm/blind_docking_20.prm

>  <SCORE>
20.3947

>  <SCORE.INTER>
7.93865

>  <SCORE.INTER.CONST>
1

>  <SCORE.INTER.POLAR>
-2.62793

>  <SCORE.INTER.ROT>
9

>  <SCORE.INTER.SOLV>
31.6876

>  <SCORE.INTER.VDW>
-6.11036

>  <SCORE.INTER.norm>
0.189016

>  <SCORE.INTRA>
2.10081

>  <SCORE.INTRA.DIHEDRAL>
8.52167

>  <SCORE.INTRA.DIHEDRAL.0>
30.1357

>  <SCORE.INTRA.POLAR>
-2.15993

>  <SCORE.INTRA.POLAR.0>
-0.631696

>  <SCORE.INTRA.REPUL>
0

>  <SCORE.INTRA.REPUL.0>
0

>  <SCORE.INTRA.SOLV>
2.93084

>  <SCORE.INTRA.SOLV.lig_0>
-55.904

>  <SCORE.INTRA.VDW>
3.71831

>  <SCORE.INTRA.VDW.0>
-8.21197

>  <SCORE.INTRA.norm>
0.0500192

>  <SCORE.RESTR>
10.3553

>  <SCORE.RESTR.CAVITY>
10.3553

>  <SCORE.RESTR.norm>
0.246554

>  <SCORE.SYSTEM>
0

>  <SCORE.SYSTEM.CONST>
0

>  <SCORE.SYSTEM.DIHEDRAL>
0

>  <SCORE.SYSTEM.SOLV>
0

>  <SCORE.SYSTEM.norm>
0

>  <SCORE.heavy>
42

>  <SCORE.norm>
0.485589

>  <RMSD>
6.779

$$$$
lig.pdb
 OpenBabel11021811453D
libRbt.so/2013.1/901 2013/11/27
 42 45  0  0  0  0  0  0  0  0999 V2000
   -1.2485    4.5089    1.7787 C   0  0  2  0  0  0  0  0  0  0  0  0
   -1.5028    5.4381    0.7234 O   0  0  0  0  0  0  0  0  0  0  0  0
   -2.3860    3.4825    1.8898 C   0  0  2  0  0  0  0  0  0  0  0  0
   -2.6166    2.8066    0.5997 N   0  0  0  0  0  0  0  0  0  0  0  0
   -3.6725    4.1409    2.4045 C   0  0  1  0  0  0  0  0  0  0  0  0
   -4.6487    3.1442    2.6391 O   0  0  0  0  0  0  0  0  0  0  0  0
   -3.3958    4.8998    3.7112 C   0  0  2  0  0  0  0  0  0  0  0  0
   -4.5505    5.6275    4.0837 O   0  0  0  0  0  0  0  0  0  0  0  0
   -2.1982    5.8603    3.5646 C   0  0  2  0  0  0  0  0  0  0  0  0
   -1.0633    5.1900    3.0171 O   0  0  0  0  0  0  0  0  0  0  0  0
   -1.8530    6.4119    4.9609 C   0  0  0  0  0  0  0  0  0  0  0  0
   -0.7015    7.2971    4.9310 O   0  0  0  0  0  0  0  0  0  0  0  0
    1.1204    7.8276   -1.7137 C   0  0  2  0  0  0  0  0  0  0  0  0
    2.4578    8.2815   -2.1448 N   0  0  0  0  0  0  0  0  0  0  0  0
    0.9053    8.1394   -0.2306 C   0  0  0  0  0  0  0  0  0  0  0  0
   -0.4129    7.5495    0.2563 C   0  0  2  0  0  0  0  0  0  0  0  0
   -0.6570    7.9368    1.6514 N   0  0  0  0  0  0  0  0  0  0  0  0
   -0.3553    6.0140    0.0825 C   0  0  2  0  0  0  0  0  0  0  0  0
   -0.3068    5.7045   -1.3795 C   0  0  2  0  0  0  0  0  0  0  0  0
   -0.2968    4.2955   -1.5173 O   0  0  0  0  0  0  0  0  0  0  0  0
    0.9356    6.3238   -1.9912 C   0  0  1  0  0  0  0  0  0  0  0  0
    0.9896    6.1332   -3.3926 O   0  0  0  0  0  0  0  0  0  0  0  0
    0.9242    3.6122   -1.2541 C   0  0  1  0  0  0  0  0  0  0  0  0
    1.2094    3.7253    0.2450 C   0  0  2  0  0  0  0  0  0  0  0  0
    2.6047    3.8469    0.4481 O   0  0  0  0  0  0  0  0  0  0  0  0
    0.6396    2.4089    0.7903 C   0  0  2  0  0  0  0  0  0  0  0  0
    1.1917    2.0495    2.0570 O   0  0  0  0  0  0  0  0  0  0  0  0
    1.0028    1.4645   -0.3622 C   0  0  2  0  0  0  0  0  0  0  0  0
    0.7679    2.2275   -1.5374 O   0  0  0  0  0  0  0  0  0  0  0  0
    0.1596    0.1854   -0.4222 C   0  0  0  0  0  0  0  0  0  0  0  0
    0.9660   -0.9721   -0.3673 O   0  0  0  0  0  0  0  0  0  0  0  0
    0.4843    1.0184    2.7429 C   0  0  2  0  0  0  0  0  0  0  0  0
    0.6113    1.1561    4.2677 C   0  0  2  0  0  0  0  0  0  0  0  0
    0.1771    2.4905    4.7135 N   0  0  0  0  0  0  0  0  0  0  0  0
    2.0410    0.8446    4.7352 C   0  0  1  0  0  0  0  0  0  0  0  0
    2.0766    0.9025    6.1481 O   0  0  0  0  0  0  0  0  0  0  0  0
    2.4137   -0.5674    4.2526 C   0  0  2  0  0  0  0  0  0  0  0  0
    3.7423   -0.8889    4.6213 O   0  0  0  0  0  0  0  0  0  0  0  0
    2.2321   -0.6957    2.7261 C   0  0  1  0  0  0  0  0  0  0  0  0
    0.9318   -0.2664    2.3160 O   0  0  0  0  0  0  0  0  0  0  0  0
    3.3440   -0.0073    1.9207 C   0  0  0  0  0  0  0  0  0  0  0  0
    3.5503   -0.6655    0.6205 N   0  0  0  0  0  0  0  0  0  0  0  0
  1  3  1  0  0  0  0
  1  2  1  6  0  0  0
  3  4  1  6  0  0  0
  5  6  1  1  0  0  0
  5  3  1  0  0  0  0
  7  9  1  0  0  0  0
  7  5  1  0  0  0  0
  7  8  1  6  0  0  0
  9 10  1  0  0  0  0
  9 11  1  1  0  0  0
 10  1  1  0  0  0  0
 11 12  1  0  0  0  0
 13 14  1  1  0  0  0
 13 21  1  0  0  0  0
 15 13  1  0  0  0  0
 16 15  1  0  0  0  0
 16 18  1  0  0  0  0
 16 17  1  1  0  0  0
 18  2  1  6  0  0  0
 18 19  1  0  0  0  0
 19 21  1  0  0  0  0
 19 20  1  1  0  0  0
 21 22  1  6  0  0  0
 23 20  1  1  0  0  0
 23 29  1  0  0  0  0
 23 24  1  0  0  0  0
 24 26  1  0  0  0  0
 24 25  1  6  0  0  0
 26 27  1  1  0  0  0
 28 26  1  0  0  0  0
 28 30  1  6  0  0  0
 29 28  1  0  0  0  0
 30 31  1  0  0  0  0
 32 27  1  6  0  0  0
 32 40  1  0  0  0  0
 32 33  1  0  0  0  0
 33 35  1  0  0  0  0
 33 34  1  6  0  0  0
 35 37  1  0  0  0  0
 35 36  1  1  0  0  0
 37 38  1  6  0  0  0
 39 37  1  0  0  0  0
 39 41  1  6  0  0  0
 40 39  1  0  0  0  0
 42 41  1  0  0  0  0
M  END
>  <CHROM.1>
-120.22455987,-151.33893976,71.94390236,-161.63807139,-159.69632536,-46.02155372
178.06815921,-172.68659492,68.30833391,-76.70740949,68.42148466,-132.95468350
-66.64617983,166.18684585,-150.58404757,-122.81478953,-90.30397990,-144.03902749
92.29461217,-49.43211758,151.36741888,67.49269232,0.14550425,3.53312943,1.50190156
2.12575069,0.85544517,-0.80536828

>  <Name>
lig.pdb

>  <RI>
0

>  <Rbt.Current_Directory>
/home/itssahil/PROJECTS/Mol_Feturizer/New_Systems/rnas/2mxs

>  <Rbt.Executable>
rbdock ($Id: //depot/dev/client3/rdock/2013.1/src/exe/rbdock.cxx#4 $)

>  <Rbt.Library>
libRbt.so (2013.1, Build901 2013/11/27)

>  <Rbt.Parameter_File>
/export/apps/rDock/src/rDock_2013.1_src/data/scripts/dock_solv.prm

>  <Rbt.Receptor>
prm/blind_docking_20.prm

>  <SCORE>
7.46376

>  <SCORE.INTER>
-17.417

>  <SCORE.INTER.CONST>
1

>  <SCORE.INTER.POLAR>
-4.4379

>  <SCORE.INTER.ROT>
9

>  <SCORE.INTER.SOLV>
31.7841

>  <SCORE.INTER.VDW>
-17.013

>  <SCORE.INTER.norm>
-0.414689

>  <SCORE.INTRA>
12.6779

>  <SCORE.INTRA.DIHEDRAL>
16.6633

>  <SCORE.INTRA.DIHEDRAL.0>
30.1357

>  <SCORE.INTRA.POLAR>
-0.223207

>  <SCORE.INTRA.POLAR.0>
-0.631696

>  <SCORE.INTRA.REPUL>
0

>  <SCORE.INTRA.REPUL.0>
0

>  <SCORE.INTRA.SOLV>
2.33359

>  <SCORE.INTRA.SOLV.lig_0>
-55.904

>  <SCORE.INTRA.VDW>
3.93834

>  <SCORE.INTRA.VDW.0>
-8.21197

>  <SCORE.INTRA.norm>
0.301854

>  <SCORE.RESTR>
12.2028

>  <SCORE.RESTR.CAVITY>
12.2028

>  <SCORE.RESTR.norm>
0.290544

>  <SCORE.SYSTEM>
0

>  <SCORE.SYSTEM.CONST>
0

>  <SCORE.SYSTEM.DIHEDRAL>
0

>  <SCORE.SYSTEM.SOLV>
0

>  <SCORE.SYSTEM.norm>
0

>  <SCORE.heavy>
42

>  <SCORE.norm>
0.177709

>  <RMSD>
6.796

$$$$
lig.pdb
 OpenBabel11021811453D
libRbt.so/2013.1/901 2013/11/27
 42 45  0  0  0  0  0  0  0  0999 V2000
    0.1461    0.7358    2.5617 C   0  0  2  0  0  0  0  0  0  0  0  0
    0.3410    2.0132    1.9521 O   0  0  0  0  0  0  0  0  0  0  0  0
    1.1219   -0.3006    1.9842 C   0  0  2  0  0  0  0  0  0  0  0  0
    2.5168    0.1629    2.1021 N   0  0  0  0  0  0  0  0  0  0  0  0
    0.7729   -0.6326    0.5276 C   0  0  1  0  0  0  0  0  0  0  0  0
    1.5915   -1.6958    0.0792 O   0  0  0  0  0  0  0  0  0  0  0  0
   -0.7028   -1.0438    0.4144 C   0  0  2  0  0  0  0  0  0  0  0  0
   -1.0446   -1.1916   -0.9504 O   0  0  0  0  0  0  0  0  0  0  0  0
   -1.6316   -0.0054    1.0758 C   0  0  2  0  0  0  0  0  0  0  0  0
   -1.2018    0.3007    2.4019 O   0  0  0  0  0  0  0  0  0  0  0  0
   -3.0558   -0.5915    1.1126 C   0  0  0  0  0  0  0  0  0  0  0  0
   -4.0331    0.3735    1.5860 O   0  0  0  0  0  0  0  0  0  0  0  0
   -1.7124    5.7619    2.4645 C   0  0  2  0  0  0  0  0  0  0  0  0
   -2.9023    6.5699    2.7984 N   0  0  0  0  0  0  0  0  0  0  0  0
   -2.0078    4.8468    1.2735 C   0  0  0  0  0  0  0  0  0  0  0  0
   -0.8342    3.9103    1.0118 C   0  0  2  0  0  0  0  0  0  0  0  0
   -1.0858    3.1059   -0.1904 N   0  0  0  0  0  0  0  0  0  0  0  0
   -0.6227    3.0294    2.2651 C   0  0  2  0  0  0  0  0  0  0  0  0
   -0.1772    3.9068    3.3908 C   0  0  2  0  0  0  0  0  0  0  0  0
    0.0506    3.0764    4.5146 O   0  0  0  0  0  0  0  0  0  0  0  0
   -1.2452    4.9438    3.6830 C   0  0  1  0  0  0  0  0  0  0  0  0
   -0.8399    5.8560    4.6863 O   0  0  0  0  0  0  0  0  0  0  0  0
   -0.9833    2.9806    5.4886 C   0  0  1  0  0  0  0  0  0  0  0  0
   -2.0755    2.0703    4.9231 C   0  0  2  0  0  0  0  0  0  0  0  0
   -3.3419    2.5415    5.3438 O   0  0  0  0  0  0  0  0  0  0  0  0
   -1.7152    0.7066    5.5279 C   0  0  2  0  0  0  0  0  0  0  0  0
   -2.8204   -0.1972    5.5524 O   0  0  0  0  0  0  0  0  0  0  0  0
   -1.2160    1.1515    6.9080 C   0  0  2  0  0  0  0  0  0  0  0  0
   -0.4826    2.3420    6.6563 O   0  0  0  0  0  0  0  0  0  0  0  0
   -0.2992    0.1400    7.6058 C   0  0  0  0  0  0  0  0  0  0  0  0
    0.2044    0.6479    8.8230 O   0  0  0  0  0  0  0  0  0  0  0  0
   -2.4875   -1.5333    5.9240 C   0  0  2  0  0  0  0  0  0  0  0  0
   -2.0377   -2.3667    4.7144 C   0  0  2  0  0  0  0  0  0  0  0  0
   -0.9215   -1.7133    4.0108 N   0  0  0  0  0  0  0  0  0  0  0  0
   -3.2133   -2.6468    3.7662 C   0  0  1  0  0  0  0  0  0  0  0  0
   -2.7607   -3.4862    2.7216 O   0  0  0  0  0  0  0  0  0  0  0  0
   -4.3261   -3.3467    4.5648 C   0  0  2  0  0  0  0  0  0  0  0  0
   -5.4545   -3.5897    3.7449 O   0  0  0  0  0  0  0  0  0  0  0  0
   -4.7269   -2.5145    5.8003 C   0  0  1  0  0  0  0  0  0  0  0  0
   -3.5857   -2.1588    6.5841 O   0  0  0  0  0  0  0  0  0  0  0  0
   -5.5906   -1.2919    5.4567 C   0  0  0  0  0  0  0  0  0  0  0  0
   -7.0042   -1.6648    5.2868 N   0  0  0  0  0  0  0  0  0  0  0  0
  1  3  1  0  0  0  0
  1  2  1  6  0  0  0
  3  4  1  6  0  0  0
  5  6  1  1  0  0  0
  5  3  1  0  0  0  0
  7  9  1  0  0  0  0
  7  5  1  0  0  0  0
  7  8  1  6  0  0  0
  9 10  1  0  0  0  0
  9 11  1  1  0  0  0
 10  1  1  0  0  0  0
 11 12  1  0  0  0  0
 13 14  1  1  0  0  0
 13 21  1  0  0  0  0
 15 13  1  0  0  0  0
 16 15  1  0  0  0  0
 16 18  1  0  0  0  0
 16 17  1  6  0  0  0
 18  2  1  6  0  0  0
 18 19  1  0  0  0  0
 19 21  1  0  0  0  0
 19 20  1  1  0  0  0
 21 22  1  1  0  0  0
 23 20  1  6  0  0  0
 23 29  1  0  0  0  0
 23 24  1  0  0  0  0
 24 26  1  0  0  0  0
 24 25  1  1  0  0  0
 26 27  1  1  0  0  0
 28 26  1  0  0  0  0
 28 30  1  6  0  0  0
 29 28  1  0  0  0  0
 30 31  1  0  0  0  0
 32 27  1  6  0  0  0
 32 40  1  0  0  0  0
 32 33  1  0  0  0  0
 33 35  1  0  0  0  0
 33 34  1  6  0  0  0
 35 37  1  0  0  0  0
 35 36  1  6  0  0  0
 37 38  1  6  0  0  0
 39 37  1  0  0  0  0
 39 41  1  6  0  0  0
 40 39  1  0  0  0  0
 42 41  1  0  0  0  0
M  END
>  <CHROM.1>
-144.94734675,171.77340742,-9.03410402,174.94255989,-176.39245420,61.00055688
-173.68349501,-174.75662788,165.20477288,-98.09437939,76.16219203,73.48927723
67.07141914,171.33313460,-86.49837014,175.63248645,-53.36952997,-66.48389132
48.83925839,-46.84773874,81.66017895,-60.89027860,-1.71680822,0.68664919
3.56050619,-0.52434084,-1.05645417,-2.49457065

>  <Name>
lig.pdb

>  <RI>
4.11275e+07

>  <Rbt.Current_Directory>
/home/itssahil/PROJECTS/Mol_Feturizer/New_Systems/rnas/2mxs

>  <Rbt.Executable>
rbdock ($Id: //depot/dev/client3/rdock/2013.1/src/exe/rbdock.cxx#4 $)

>  <Rbt.Library>
libRbt.so (2013.1, Build901 2013/11/27)

>  <Rbt.Parameter_File>
/export/apps/rDock/src/rDock_2013.1_src/data/scripts/dock_solv.prm

>  <Rbt.Receptor>
prm/pocket_docking_8.prm

>  <SCORE>
-28.4624

>  <SCORE.INTER>
-26.5076

>  <SCORE.INTER.CONST>
1

>  <SCORE.INTER.POLAR>
-3.81569

>  <SCORE.INTER.ROT>
9

>  <SCORE.INTER.SOLV>
15.3886

>  <SCORE.INTER.VDW>
-19.6823

>  <SCORE.INTER.norm>
-0.631134

>  <SCORE.INTRA>
-1.9548

>  <SCORE.INTRA.DIHEDRAL>
-6.29184

>  <SCORE.INTRA.DIHEDRAL.0>
30.1357

>  <SCORE.INTRA.POLAR>
-0.528108

>  <SCORE.INTRA.POLAR.0>
-0.631696

>  <SCORE.INTRA.REPUL>
0.000546998

>  <SCORE.INTRA.REPUL.0>
0

>  <SCORE.INTRA.SOLV>
0.842158

>  <SCORE.INTRA.SOLV.lig_0>
-55.904

>  <SCORE.INTRA.VDW>
2.56287

>  <SCORE.INTRA.VDW.0>
-8.21197

>  <SCORE.INTRA.norm>
-0.0465429

>  <SCORE.RESTR>
0

>  <SCORE.RESTR.CAVITY>
0

>  <SCORE.RESTR.norm>
0

>  <SCORE.SYSTEM>
0

>  <SCORE.SYSTEM.CONST>
0

>  <SCORE.SYSTEM.DIHEDRAL>
0

>  <SCORE.SYSTEM.SOLV>
0

>  <SCORE.SYSTEM.norm>
0

>  <SCORE.heavy>
42

>  <SCORE.norm>
-0.677677

>  <RMSD>
6.800

$$$$
lig.pdb
 OpenBabel11021811453D
libRbt.so/2013.1/901 2013/11/27
 42 45  0  0  0  0  0  0  0  0999 V2000
    2.9364    0.5345    0.3789 C   0  0  2  0  0  0  0  0  0  0  0  0
    3.2062    1.9376    0.3858 O   0  0  0  0  0  0  0  0  0  0  0  0
    1.4605    0.2627    0.0511 C   0  0  2  0  0  0  0  0  0  0  0  0
    1.0726    0.9079   -1.2168 N   0  0  0  0  0  0  0  0  0  0  0  0
    0.5498    0.7142    1.2002 C   0  0  1  0  0  0  0  0  0  0  0  0
   -0.7796    0.3116    0.9318 O   0  0  0  0  0  0  0  0  0  0  0  0
    1.0137    0.0884    2.5242 C   0  0  2  0  0  0  0  0  0  0  0  0
    0.2638    0.6383    3.5904 O   0  0  0  0  0  0  0  0  0  0  0  0
    2.5179    0.3272    2.7662 C   0  0  2  0  0  0  0  0  0  0  0  0
    3.2905   -0.0535    1.6281 O   0  0  0  0  0  0  0  0  0  0  0  0
    2.9449   -0.5083    3.9881 C   0  0  0  0  0  0  0  0  0  0  0  0
    1.8397   -1.2692    4.5446 O   0  0  0  0  0  0  0  0  0  0  0  0
    5.4932    3.7134   -2.7997 C   0  0  2  0  0  0  0  0  0  0  0  0
    5.6563    4.1938   -4.1864 N   0  0  0  0  0  0  0  0  0  0  0  0
    5.1669    2.2179   -2.7897 C   0  0  0  0  0  0  0  0  0  0  0  0
    4.8586    1.7451   -1.3740 C   0  0  2  0  0  0  0  0  0  0  0  0
    4.6436    0.2927   -1.3601 N   0  0  0  0  0  0  0  0  0  0  0  0
    3.6230    2.5190   -0.8582 C   0  0  2  0  0  0  0  0  0  0  0  0
    3.9931    3.9606   -0.7153 C   0  0  2  0  0  0  0  0  0  0  0  0
    2.8629    4.6425   -0.2033 O   0  0  0  0  0  0  0  0  0  0  0  0
    4.4046    4.5180   -2.0648 C   0  0  1  0  0  0  0  0  0  0  0  0
    4.8463    5.8595   -1.9735 O   0  0  0  0  0  0  0  0  0  0  0  0
    1.6834    4.6625   -1.0003 C   0  0  1  0  0  0  0  0  0  0  0  0
    0.5747    3.9616   -0.2122 C   0  0  2  0  0  0  0  0  0  0  0  0
   -0.2521    3.2415   -1.1070 O   0  0  0  0  0  0  0  0  0  0  0  0
   -0.1507    5.1378    0.4553 C   0  0  2  0  0  0  0  0  0  0  0  0
   -1.4845    4.8138    0.8488 O   0  0  0  0  0  0  0  0  0  0  0  0
   -0.0444    6.1838   -0.6613 C   0  0  2  0  0  0  0  0  0  0  0  0
    1.2603    6.0062   -1.1946 O   0  0  0  0  0  0  0  0  0  0  0  0
   -0.1952    7.6338   -0.1866 C   0  0  0  0  0  0  0  0  0  0  0  0
   -0.5901    8.4872   -1.2396 O   0  0  0  0  0  0  0  0  0  0  0  0
   -1.5798    4.0261    2.0339 C   0  0  2  0  0  0  0  0  0  0  0  0
   -2.7076    2.9871    1.9393 C   0  0  2  0  0  0  0  0  0  0  0  0
   -2.5443    2.1403    0.7459 N   0  0  0  0  0  0  0  0  0  0  0  0
   -4.0870    3.6624    1.9653 C   0  0  1  0  0  0  0  0  0  0  0  0
   -5.0820    2.6569    1.9629 O   0  0  0  0  0  0  0  0  0  0  0  0
   -4.1905    4.5081    3.2459 C   0  0  2  0  0  0  0  0  0  0  0  0
   -5.4309    5.1886    3.2984 O   0  0  0  0  0  0  0  0  0  0  0  0
   -3.0215    5.5100    3.3425 C   0  0  1  0  0  0  0  0  0  0  0  0
   -1.7596    4.8593    3.1769 O   0  0  0  0  0  0  0  0  0  0  0  0
   -3.1734    6.7151    2.4025 C   0  0  0  0  0  0  0  0  0  0  0  0
   -2.1446    7.7340    2.6666 N   0  0  0  0  0  0  0  0  0  0  0  0
  1  3  1  0  0  0  0
  1  2  1  1  0  0  0
  3  4  1  6  0  0  0
  5  6  1  6  0  0  0
  5  3  1  0  0  0  0
  7  9  1  0  0  0  0
  7  5  1  0  0  0  0
  7  8  1  1  0  0  0
  9 10  1  0  0  0  0
  9 11  1  1  0  0  0
 10  1  1  0  0  0  0
 11 12  1  0  0  0  0
 13 14  1  6  0  0  0
 13 21  1  0  0  0  0
 15 13  1  0  0  0  0
 16 15  1  0  0  0  0
 16 18  1  0  0  0  0
 16 17  1  6  0  0  0
 18  2  1  1  0  0  0
 18 19  1  0  0  0  0
 19 21  1  0  0  0  0
 19 20  1  6  0  0  0
 21 22  1  1  0  0  0
 23 20  1  1  0  0  0
 23 29  1  0  0  0  0
 23 24  1  0  0  0  0
 24 26  1  0  0  0  0
 24 25  1  6  0  0  0
 26 27  1  6  0  0  0
 28 26  1  0  0  0  0
 28 30  1  1  0  0  0
 29 28  1  0  0  0  0
 30 31  1  0  0  0  0
 32 27  1  6  0  0  0
 32 40  1  0  0  0  0
 32 33  1  0  0  0  0
 33 35  1  0  0  0  0
 33 34  1  6  0  0  0
 35 37  1  0  0  0  0
 35 36  1  1  0  0  0
 37 38  1  6  0  0  0
 39 37  1  0  0  0  0
 39 41  1  6  0  0  0
 40 39  1  0  0  0  0
 42 41  1  0  0  0  0
M  END
>  <CHROM.1>
-55.07581359,-90.41654190,60.33882635,-31.28865197,79.37824888,-169.64469015
0.33742812,-171.78759885,156.85463890,-62.82327043,118.47272589,-168.80350560
-34.01880780,76.77284997,-142.25673555,-157.77691989,-41.55627947,101.11824078
59.94681934,96.27033295,171.74068719,68.41112046,0.70047973,3.27825357,0.58984905
0.04343744,-0.52152940,2.65443424

>  <Name>
lig.pdb

>  <RI>
0

>  <Rbt.Current_Directory>
/home/itssahil/PROJECTS/Mol_Feturizer/New_Systems/rnas/2mxs

>  <Rbt.Executable>
rbdock ($Id: //depot/dev/client3/rdock/2013.1/src/exe/rbdock.cxx#4 $)

>  <Rbt.Library>
libRbt.so (2013.1, Build901 2013/11/27)

>  <Rbt.Parameter_File>
/export/apps/rDock/src/rDock_2013.1_src/data/scripts/dock_solv.prm

>  <Rbt.Receptor>
prm/blind_docking_80.prm

>  <SCORE>
73.474

>  <SCORE.INTER>
40.0511

>  <SCORE.INTER.CONST>
1

>  <SCORE.INTER.POLAR>
-2.77105

>  <SCORE.INTER.ROT>
9

>  <SCORE.INTER.SOLV>
33.5712

>  <SCORE.INTER.VDW>
15.1472

>  <SCORE.INTER.norm>
0.953598

>  <SCORE.INTRA>
17.9792

>  <SCORE.INTRA.DIHEDRAL>
14.3089

>  <SCORE.INTRA.DIHEDRAL.0>
30.1357

>  <SCORE.INTRA.POLAR>
-1.4892

>  <SCORE.INTRA.POLAR.0>
-0.631696

>  <SCORE.INTRA.REPUL>
0

>  <SCORE.INTRA.REPUL.0>
0

>  <SCORE.INTRA.SOLV>
3.23981

>  <SCORE.INTRA.SOLV.lig_0>
-55.904

>  <SCORE.INTRA.VDW>
14.2681

>  <SCORE.INTRA.VDW.0>
-8.21197

>  <SCORE.INTRA.norm>
0.428077

>  <SCORE.RESTR>
15.4437

>  <SCORE.RESTR.CAVITY>
15.4437

>  <SCORE.RESTR.norm>
0.367706

>  <SCORE.SYSTEM>
0

>  <SCORE.SYSTEM.CONST>
0

>  <SCORE.SYSTEM.DIHEDRAL>
0

>  <SCORE.SYSTEM.SOLV>
0

>  <SCORE.SYSTEM.norm>
0

>  <SCORE.heavy>
42

>  <SCORE.norm>
1.74938

>  <RMSD>
6.805

$$$$
lig.pdb
 OpenBabel11021811453D
libRbt.so/2013.1/901 2013/11/27
 42 45  0  0  0  0  0  0  0  0999 V2000
   -0.8986    4.6734    0.9400 C   0  0  2  0  0  0  0  0  0  0  0  0
   -0.9564    5.4272   -0.2724 O   0  0  0  0  0  0  0  0  0  0  0  0
   -2.0997    3.7223    1.0509 C   0  0  2  0  0  0  0  0  0  0  0  0
   -2.1989    2.8545   -0.1372 N   0  0  0  0  0  0  0  0  0  0  0  0
   -3.4012    4.5037    1.2724 C   0  0  1  0  0  0  0  0  0  0  0  0
   -4.4574    3.5960    1.5217 O   0  0  0  0  0  0  0  0  0  0  0  0
   -3.2539    5.4544    2.4700 C   0  0  2  0  0  0  0  0  0  0  0  0
   -4.4021    6.2759    2.5600 O   0  0  0  0  0  0  0  0  0  0  0  0
   -1.9923    6.3323    2.3432 C   0  0  2  0  0  0  0  0  0  0  0  0
   -0.8373    5.5396    2.0704 O   0  0  0  0  0  0  0  0  0  0  0  0
   -1.8013    7.0907    3.6705 C   0  0  0  0  0  0  0  0  0  0  0  0
   -1.7165    6.1912    4.8080 O   0  0  0  0  0  0  0  0  0  0  0  0
    1.9814    7.8876   -2.2337 C   0  0  2  0  0  0  0  0  0  0  0  0
    3.3624    8.3676   -2.4402 N   0  0  0  0  0  0  0  0  0  0  0  0
    1.5261    8.1774   -0.8012 C   0  0  0  0  0  0  0  0  0  0  0  0
    0.1574    7.5610   -0.5378 C   0  0  2  0  0  0  0  0  0  0  0  0
   -0.3137    7.9269    0.8039 N   0  0  0  0  0  0  0  0  0  0  0  0
    0.2687    6.0288   -0.7153 C   0  0  2  0  0  0  0  0  0  0  0  0
    0.5561    5.7386   -2.1536 C   0  0  2  0  0  0  0  0  0  0  0  0
    0.6126    4.3317   -2.3020 O   0  0  0  0  0  0  0  0  0  0  0  0
    1.8695    6.3847   -2.5520 C   0  0  1  0  0  0  0  0  0  0  0  0
    2.1506    6.2126   -3.9284 O   0  0  0  0  0  0  0  0  0  0  0  0
    1.7651    3.6584   -1.8067 C   0  0  1  0  0  0  0  0  0  0  0  0
    1.7298    3.7335   -0.2788 C   0  0  2  0  0  0  0  0  0  0  0  0
    3.0496    3.8688    0.2138 O   0  0  0  0  0  0  0  0  0  0  0  0
    1.0848    2.3944    0.1032 C   0  0  2  0  0  0  0  0  0  0  0  0
    1.3681    2.0075    1.4481 O   0  0  0  0  0  0  0  0  0  0  0  0
    1.6983    1.4879   -0.9709 C   0  0  2  0  0  0  0  0  0  0  0  0
    1.6983    2.2801   -2.1502 O   0  0  0  0  0  0  0  0  0  0  0  0
    0.9112    0.1993   -1.2367 C   0  0  0  0  0  0  0  0  0  0  0  0
   -0.2734    0.4537   -1.9615 O   0  0  0  0  0  0  0  0  0  0  0  0
    0.5030    1.0019    1.9721 C   0  0  2  0  0  0  0  0  0  0  0  0
    0.1670    1.2517    3.4502 C   0  0  2  0  0  0  0  0  0  0  0  0
   -0.3996    2.5973    3.6409 N   0  0  0  0  0  0  0  0  0  0  0  0
    1.3962    1.0274    4.3437 C   0  0  1  0  0  0  0  0  0  0  0  0
    1.0076    1.1864    5.6944 O   0  0  0  0  0  0  0  0  0  0  0  0
    1.9163   -0.4005    4.1058 C   0  0  2  0  0  0  0  0  0  0  0  0
    3.0786   -0.6454    4.8761 O   0  0  0  0  0  0  0  0  0  0  0  0
    2.2006   -0.6430    2.6092 C   0  0  1  0  0  0  0  0  0  0  0  0
    1.0760   -0.2924    1.7995 O   0  0  0  0  0  0  0  0  0  0  0  0
    3.4922    0.0275    2.1184 C   0  0  0  0  0  0  0  0  0  0  0  0
    4.4405    0.2381    3.2241 N   0  0  0  0  0  0  0  0  0  0  0  0
  1  3  1  0  0  0  0
  1  2  1  6  0  0  0
  3  4  1  6  0  0  0
  5  6  1  1  0  0  0
  5  3  1  0  0  0  0
  7  9  1  0  0  0  0
  7  5  1  0  0  0  0
  7  8  1  6  0  0  0
  9 10  1  0  0  0  0
  9 11  1  1  0  0  0
 10  1  1  0  0  0  0
 11 12  1  0  0  0  0
 13 14  1  1  0  0  0
 13 21  1  0  0  0  0
 15 13  1  0  0  0  0
 16 15  1  0  0  0  0
 16 18  1  0  0  0  0
 16 17  1  1  0  0  0
 18  2  1  6  0  0  0
 18 19  1  0  0  0  0
 19 21  1  0  0  0  0
 19 20  1  1  0  0  0
 21 22  1  6  0  0  0
 23 20  1  6  0  0  0
 23 29  1  0  0  0  0
 23 24  1  0  0  0  0
 24 26  1  0  0  0  0
 24 25  1  1  0  0  0
 26 27  1  1  0  0  0
 28 26  1  0  0  0  0
 28 30  1  6  0  0  0
 29 28  1  0  0  0  0
 30 31  1  0  0  0  0
 32 27  1  1  0  0  0
 32 40  1  0  0  0  0
 32 33  1  0  0  0  0
 33 35  1  0  0  0  0
 33 34  1  6  0  0  0
 35 37  1  0  0  0  0
 35 36  1  1  0  0  0
 37 38  1  1  0  0  0
 39 37  1  0  0  0  0
 39 41  1  6  0  0  0
 40 39  1  0  0  0  0
 42 41  1  0  0  0  0
M  END
>  <CHROM.1>
-109.68236211,-161.01482336,67.32181230,174.77690763,66.99015288,-179.65695541
56.46329135,-41.22635073,157.09781304,-74.35065912,69.39334353,63.59398893
54.59989926,162.71076689,-141.87832784,73.90653491,52.40939430,-41.44863724
52.98849534,160.45026289,24.66113422,-85.08771689,0.37996571,3.70263253,0.90059347
1.84573310,0.73199386,-0.74430349

>  <Name>
lig.pdb

>  <RI>
0

>  <Rbt.Current_Directory>
/home/itssahil/PROJECTS/Mol_Feturizer/New_Systems/rnas/2mxs

>  <Rbt.Executable>
rbdock ($Id: //depot/dev/client3/rdock/2013.1/src/exe/rbdock.cxx#4 $)

>  <Rbt.Library>
libRbt.so (2013.1, Build901 2013/11/27)

>  <Rbt.Parameter_File>
/export/apps/rDock/src/rDock_2013.1_src/data/scripts/dock_solv.prm

>  <Rbt.Receptor>
prm/blind_docking_60.prm

>  <SCORE>
45.9969

>  <SCORE.INTER>
19.245

>  <SCORE.INTER.CONST>
1

>  <SCORE.INTER.POLAR>
-3.43407

>  <SCORE.INTER.ROT>
9

>  <SCORE.INTER.SOLV>
32.5122

>  <SCORE.INTER.VDW>
3.83949

>  <SCORE.INTER.norm>
0.458214

>  <SCORE.INTRA>
6.80328

>  <SCORE.INTRA.DIHEDRAL>
-2.25252

>  <SCORE.INTRA.DIHEDRAL.0>
30.1357

>  <SCORE.INTRA.POLAR>
-0.0246452

>  <SCORE.INTRA.POLAR.0>
-0.631696

>  <SCORE.INTRA.REPUL>
0

>  <SCORE.INTRA.REPUL.0>
0

>  <SCORE.INTRA.SOLV>
2.76728

>  <SCORE.INTRA.SOLV.lig_0>
-55.904

>  <SCORE.INTRA.VDW>
6.62969

>  <SCORE.INTRA.VDW.0>
-8.21197

>  <SCORE.INTRA.norm>
0.161983

>  <SCORE.RESTR>
19.9486

>  <SCORE.RESTR.CAVITY>
19.9486

>  <SCORE.RESTR.norm>
0.474967

>  <SCORE.SYSTEM>
0

>  <SCORE.SYSTEM.CONST>
0

>  <SCORE.SYSTEM.DIHEDRAL>
0

>  <SCORE.SYSTEM.SOLV>
0

>  <SCORE.SYSTEM.norm>
0

>  <SCORE.heavy>
42

>  <SCORE.norm>
1.09516

>  <RMSD>
6.819

$$$$
lig.pdb
 OpenBabel11021811453D
libRbt.so/2013.1/901 2013/11/27
 42 45  0  0  0  0  0  0  0  0999 V2000
   -1.9029    4.7294    1.2874 C   0  0  2  0  0  0  0  0  0  0  0  0
   -1.7727    5.8143    0.3667 O   0  0  0  0  0  0  0  0  0  0  0  0
   -3.2538    4.7895    2.0162 C   0  0  2  0  0  0  0  0  0  0  0  0
   -4.3715    4.8385    1.0556 N   0  0  0  0  0  0  0  0  0  0  0  0
   -3.3050    5.9803    2.9821 C   0  0  1  0  0  0  0  0  0  0  0  0
   -4.4956    5.9165    3.7436 O   0  0  0  0  0  0  0  0  0  0  0  0
   -2.0943    5.9513    3.9272 C   0  0  2  0  0  0  0  0  0  0  0  0
   -2.0746    7.1362    4.6999 O   0  0  0  0  0  0  0  0  0  0  0  0
   -0.7710    5.8147    3.1471 C   0  0  2  0  0  0  0  0  0  0  0  0
   -0.8269    4.7290    2.2223 O   0  0  0  0  0  0  0  0  0  0  0  0
    0.3615    5.5747    4.1634 C   0  0  0  0  0  0  0  0  0  0  0  0
    0.2308    6.4185    5.3386 O   0  0  0  0  0  0  0  0  0  0  0  0
    1.6323    7.4075   -1.7306 C   0  0  2  0  0  0  0  0  0  0  0  0
    3.0827    7.6260   -1.9007 N   0  0  0  0  0  0  0  0  0  0  0  0
    1.1544    8.0136   -0.4087 C   0  0  0  0  0  0  0  0  0  0  0  0
   -0.3095    7.6708   -0.1590 C   0  0  2  0  0  0  0  0  0  0  0  0
   -0.7854    8.3372    1.0597 N   0  0  0  0  0  0  0  0  0  0  0  0
   -0.4429    6.1328   -0.0687 C   0  0  2  0  0  0  0  0  0  0  0  0
   -0.1302    5.5509   -1.4100 C   0  0  2  0  0  0  0  0  0  0  0  0
   -0.2987    4.1483   -1.3164 O   0  0  0  0  0  0  0  0  0  0  0  0
    1.2914    5.9072   -1.8019 C   0  0  1  0  0  0  0  0  0  0  0  0
    1.6141    5.4520   -3.1025 O   0  0  0  0  0  0  0  0  0  0  0  0
    0.8260    3.3246   -1.6054 C   0  0  1  0  0  0  0  0  0  0  0  0
    1.3093    2.7141   -0.2882 C   0  0  2  0  0  0  0  0  0  0  0  0
    2.7210    2.6163   -0.3077 O   0  0  0  0  0  0  0  0  0  0  0  0
    0.6163    1.3449   -0.2844 C   0  0  2  0  0  0  0  0  0  0  0  0
    1.2598    0.4014    0.5726 O   0  0  0  0  0  0  0  0  0  0  0  0
    0.6842    1.0086   -1.7792 C   0  0  2  0  0  0  0  0  0  0  0  0
    0.4250    2.2417   -2.4353 O   0  0  0  0  0  0  0  0  0  0  0  0
   -0.3463   -0.0279   -2.2422 C   0  0  0  0  0  0  0  0  0  0  0  0
   -0.3709   -1.1533   -1.3901 O   0  0  0  0  0  0  0  0  0  0  0  0
    0.4142   -0.1696    1.5691 C   0  0  2  0  0  0  0  0  0  0  0  0
   -0.1522    0.8983    2.5172 C   0  0  2  0  0  0  0  0  0  0  0  0
   -0.8501    1.9537    1.7641 N   0  0  0  0  0  0  0  0  0  0  0  0
    0.9487    1.4826    3.4151 C   0  0  1  0  0  0  0  0  0  0  0  0
    0.3564    2.3929    4.3213 O   0  0  0  0  0  0  0  0  0  0  0  0
    1.6144    0.3275    4.1824 C   0  0  2  0  0  0  0  0  0  0  0  0
    2.6690    0.8080    4.9957 O   0  0  0  0  0  0  0  0  0  0  0  0
    2.1318   -0.7546    3.2125 C   0  0  1  0  0  0  0  0  0  0  0  0
    1.1114   -1.1736    2.3033 O   0  0  0  0  0  0  0  0  0  0  0  0
    3.4209   -0.3510    2.4817 C   0  0  0  0  0  0  0  0  0  0  0  0
    3.4247   -0.8378    1.0927 N   0  0  0  0  0  0  0  0  0  0  0  0
  1  3  1  0  0  0  0
  1  2  1  6  0  0  0
  3  4  1  6  0  0  0
  5  6  1  1  0  0  0
  5  3  1  0  0  0  0
  7  9  1  0  0  0  0
  7  5  1  0  0  0  0
  7  8  1  6  0  0  0
  9 10  1  0  0  0  0
  9 11  1  1  0  0  0
 10  1  1  0  0  0  0
 11 12  1  0  0  0  0
 13 14  1  1  0  0  0
 13 21  1  0  0  0  0
 15 13  1  0  0  0  0
 16 15  1  0  0  0  0
 16 18  1  0  0  0  0
 16 17  1  1  0  0  0
 18  2  1  6  0  0  0
 18 19  1  0  0  0  0
 19 21  1  0  0  0  0
 19 20  1  1  0  0  0
 21 22  1  6  0  0  0
 23 20  1  1  0  0  0
 23 29  1  0  0  0  0
 23 24  1  0  0  0  0
 24 26  1  0  0  0  0
 24 25  1  6  0  0  0
 26 27  1  1  0  0  0
 28 26  1  0  0  0  0
 28 30  1  1  0  0  0
 29 28  1  0  0  0  0
 30 31  1  0  0  0  0
 32 27  1  6  0  0  0
 32 40  1  0  0  0  0
 32 33  1  0  0  0  0
 33 35  1  0  0  0  0
 33 34  1  6  0  0  0
 35 37  1  0  0  0  0
 35 36  1  1  0  0  0
 37 38  1  6  0  0  0
 39 37  1  0  0  0  0
 39 41  1  6  0  0  0
 40 39  1  0  0  0  0
 42 41  1  0  0  0  0
M  END
>  <CHROM.1>
-140.92991215,161.15785185,-63.52520845,-89.16837647,-35.52464140,-35.56255643
-41.90922850,64.01547115,136.86408387,-120.81109929,108.85356720,-57.33305535
-53.55696917,123.71734088,-60.94005310,-48.02277342,61.00224670,149.47888805
68.94297246,174.24156650,-142.89140996,163.66329841,0.10967824,3.60153113
1.11823893,2.46979931,1.07693644,-0.81304948

>  <Name>
lig.pdb

>  <RI>
0

>  <Rbt.Current_Directory>
/home/itssahil/PROJECTS/Mol_Feturizer/New_Systems/rnas/2mxs

>  <Rbt.Executable>
rbdock ($Id: //depot/dev/client3/rdock/2013.1/src/exe/rbdock.cxx#4 $)

>  <Rbt.Library>
libRbt.so (2013.1, Build901 2013/11/27)

>  <Rbt.Parameter_File>
/export/apps/rDock/src/rDock_2013.1_src/data/scripts/dock_solv.prm

>  <Rbt.Receptor>
prm/blind_docking_60.prm

>  <SCORE>
31.315

>  <SCORE.INTER>
-12.2086

>  <SCORE.INTER.CONST>
1

>  <SCORE.INTER.POLAR>
-2.82007

>  <SCORE.INTER.ROT>
9

>  <SCORE.INTER.SOLV>
30.8535

>  <SCORE.INTER.VDW>
-18.6233

>  <SCORE.INTER.norm>
-0.29068

>  <SCORE.INTRA>
20.4755

>  <SCORE.INTRA.DIHEDRAL>
17.9727

>  <SCORE.INTRA.DIHEDRAL.0>
30.1357

>  <SCORE.INTRA.POLAR>
-0.569432

>  <SCORE.INTRA.POLAR.0>
-0.631696

>  <SCORE.INTRA.REPUL>
0.0993909

>  <SCORE.INTRA.REPUL.0>
0

>  <SCORE.INTRA.SOLV>
2.69053

>  <SCORE.INTRA.SOLV.lig_0>
-55.904

>  <SCORE.INTRA.VDW>
11.583

>  <SCORE.INTRA.VDW.0>
-8.21197

>  <SCORE.INTRA.norm>
0.487511

>  <SCORE.RESTR>
23.0482

>  <SCORE.RESTR.CAVITY>
23.0482

>  <SCORE.RESTR.norm>
0.548766

>  <SCORE.SYSTEM>
0

>  <SCORE.SYSTEM.CONST>
0

>  <SCORE.SYSTEM.DIHEDRAL>
0

>  <SCORE.SYSTEM.SOLV>
0

>  <SCORE.SYSTEM.norm>
0

>  <SCORE.heavy>
42

>  <SCORE.norm>
0.745596

>  <RMSD>
6.831

$$$$
lig.pdb
 OpenBabel11021811453D
libRbt.so/2013.1/901 2013/11/27
 42 45  0  0  0  0  0  0  0  0999 V2000
   -2.1740    4.5577    1.2323 C   0  0  2  0  0  0  0  0  0  0  0  0
   -2.0798    5.8055    0.5427 O   0  0  0  0  0  0  0  0  0  0  0  0
   -3.5582    4.3924    1.8777 C   0  0  2  0  0  0  0  0  0  0  0  0
   -4.6306    4.5561    0.8790 N   0  0  0  0  0  0  0  0  0  0  0  0
   -3.7401    5.3692    3.0466 C   0  0  1  0  0  0  0  0  0  0  0  0
   -4.9571    5.0862    3.7101 O   0  0  0  0  0  0  0  0  0  0  0  0
   -2.5757    5.2338    4.0394 C   0  0  2  0  0  0  0  0  0  0  0  0
   -2.6776    6.2466    5.0219 O   0  0  0  0  0  0  0  0  0  0  0  0
   -1.2112    5.3324    3.3275 C   0  0  2  0  0  0  0  0  0  0  0  0
   -1.1455    4.4439    2.2125 O   0  0  0  0  0  0  0  0  0  0  0  0
   -0.1127    4.9718    4.3457 C   0  0  0  0  0  0  0  0  0  0  0  0
    0.4420    3.6504    4.1079 O   0  0  0  0  0  0  0  0  0  0  0  0
    1.1848    7.7024   -1.5249 C   0  0  2  0  0  0  0  0  0  0  0  0
    2.6217    7.9151   -1.7905 N   0  0  0  0  0  0  0  0  0  0  0  0
    0.8567    8.0436   -0.0693 C   0  0  0  0  0  0  0  0  0  0  0  0
   -0.5917    7.6935    0.2509 C   0  0  2  0  0  0  0  0  0  0  0  0
   -0.9248    8.1143    1.6175 N   0  0  0  0  0  0  0  0  0  0  0  0
   -0.7829    6.1722    0.0498 C   0  0  2  0  0  0  0  0  0  0  0  0
   -0.6197    5.8625   -1.4038 C   0  0  2  0  0  0  0  0  0  0  0  0
   -0.8396    4.4740   -1.5716 O   0  0  0  0  0  0  0  0  0  0  0  0
    0.7741    6.2552   -1.8558 C   0  0  1  0  0  0  0  0  0  0  0  0
    0.9564    6.0614   -3.2458 O   0  0  0  0  0  0  0  0  0  0  0  0
    0.2635    3.5982   -1.3640 C   0  0  1  0  0  0  0  0  0  0  0  0
    0.6357    3.6584    0.1189 C   0  0  2  0  0  0  0  0  0  0  0  0
    2.0401    3.5479    0.2539 O   0  0  0  0  0  0  0  0  0  0  0  0
   -0.1161    2.4523    0.6978 C   0  0  2  0  0  0  0  0  0  0  0  0
    0.4300    2.0032    1.9383 O   0  0  0  0  0  0  0  0  0  0  0  0
    0.0305    1.4643   -0.4660 C   0  0  2  0  0  0  0  0  0  0  0  0
   -0.1322    2.2589   -1.6324 O   0  0  0  0  0  0  0  0  0  0  0  0
   -1.0137    0.3418   -0.4787 C   0  0  0  0  0  0  0  0  0  0  0  0
   -0.6916   -0.6575   -1.4225 O   0  0  0  0  0  0  0  0  0  0  0  0
    0.2493    0.6126    2.1986 C   0  0  2  0  0  0  0  0  0  0  0  0
    0.8144    0.2105    3.5694 C   0  0  2  0  0  0  0  0  0  0  0  0
    0.2324    1.0355    4.6411 N   0  0  0  0  0  0  0  0  0  0  0  0
    2.3490    0.2785    3.5780 C   0  0  1  0  0  0  0  0  0  0  0  0
    2.8144   -0.1831    4.8314 O   0  0  0  0  0  0  0  0  0  0  0  0
    2.8820   -0.6213    2.4501 C   0  0  2  0  0  0  0  0  0  0  0  0
    4.2950   -0.5612    2.3862 O   0  0  0  0  0  0  0  0  0  0  0  0
    2.2639   -0.2299    1.0920 C   0  0  1  0  0  0  0  0  0  0  0  0
    0.8374   -0.1720    1.1635 O   0  0  0  0  0  0  0  0  0  0  0  0
    2.8611    1.0549    0.4990 C   0  0  0  0  0  0  0  0  0  0  0  0
    3.8572    0.7525   -0.5415 N   0  0  0  0  0  0  0  0  0  0  0  0
  1  3  1  0  0  0  0
  1  2  1  1  0  0  0
  3  4  1  6  0  0  0
  5  6  1  1  0  0  0
  5  3  1  0  0  0  0
  7  9  1  0  0  0  0
  7  5  1  0  0  0  0
  7  8  1  1  0  0  0
  9 10  1  0  0  0  0
  9 11  1  1  0  0  0
 10  1  1  0  0  0  0
 11 12  1  0  0  0  0
 13 14  1  1  0  0  0
 13 21  1  0  0  0  0
 15 13  1  0  0  0  0
 16 15  1  0  0  0  0
 16 18  1  0  0  0  0
 16 17  1  1  0  0  0
 18  2  1  6  0  0  0
 18 19  1  0  0  0  0
 19 21  1  0  0  0  0
 19 20  1  1  0  0  0
 21 22  1  6  0  0  0
 23 20  1  1  0  0  0
 23 29  1  0  0  0  0
 23 24  1  0  0  0  0
 24 26  1  0  0  0  0
 24 25  1  6  0  0  0
 26 27  1  1  0  0  0
 28 26  1  0  0  0  0
 28 30  1  1  0  0  0
 29 28  1  0  0  0  0
 30 31  1  0  0  0  0
 32 27  1  6  0  0  0
 32 40  1  0  0  0  0
 32 33  1  0  0  0  0
 33 35  1  0  0  0  0
 33 34  1  1  0  0  0
 35 37  1  0  0  0  0
 35 36  1  1  0  0  0
 37 38  1  6  0  0  0
 39 37  1  0  0  0  0
 39 41  1  1  0  0  0
 40 39  1  0  0  0  0
 42 41  1  0  0  0  0
M  END
>  <CHROM.1>
-141.35647244,171.67520621,-168.90592870,-43.43200484,-171.72404488,46.77939980
105.68982451,-166.37533413,91.28710268,-85.23341183,66.68256320,73.34858645
84.22464933,-151.39789448,-177.91333896,-169.66982662,-50.33021872,-161.58479823
-160.68905160,8.89949076,100.42513072,74.33863121,-0.00110167,3.53226425
1.16272186,2.31632197,0.80201629,-0.76397438

>  <Name>
lig.pdb

>  <RI>
0

>  <Rbt.Current_Directory>
/home/itssahil/PROJECTS/Mol_Feturizer/New_Systems/rnas/2mxs

>  <Rbt.Executable>
rbdock ($Id: //depot/dev/client3/rdock/2013.1/src/exe/rbdock.cxx#4 $)

>  <Rbt.Library>
libRbt.so (2013.1, Build901 2013/11/27)

>  <Rbt.Parameter_File>
/export/apps/rDock/src/rDock_2013.1_src/data/scripts/dock_solv.prm

>  <Rbt.Receptor>
prm/blind_docking_20.prm

>  <SCORE>
20.846

>  <SCORE.INTER>
-7.76622

>  <SCORE.INTER.CONST>
1

>  <SCORE.INTER.POLAR>
-3.66337

>  <SCORE.INTER.ROT>
9

>  <SCORE.INTER.SOLV>
31.5814

>  <SCORE.INTER.VDW>
-13.0934

>  <SCORE.INTER.norm>
-0.18491

>  <SCORE.INTRA>
17.054

>  <SCORE.INTRA.DIHEDRAL>
9.55429

>  <SCORE.INTRA.DIHEDRAL.0>
30.1357

>  <SCORE.INTRA.POLAR>
-1.33714

>  <SCORE.INTRA.POLAR.0>
-0.631696

>  <SCORE.INTRA.REPUL>
0.025354

>  <SCORE.INTRA.REPUL.0>
0

>  <SCORE.INTRA.SOLV>
3.39813

>  <SCORE.INTRA.SOLV.lig_0>
-55.904

>  <SCORE.INTRA.VDW>
14.9973

>  <SCORE.INTRA.VDW.0>
-8.21197

>  <SCORE.INTRA.norm>
0.406049

>  <SCORE.RESTR>
11.5581

>  <SCORE.RESTR.CAVITY>
11.5581

>  <SCORE.RESTR.norm>
0.275194

>  <SCORE.SYSTEM>
0

>  <SCORE.SYSTEM.CONST>
0

>  <SCORE.SYSTEM.DIHEDRAL>
0

>  <SCORE.SYSTEM.SOLV>
0

>  <SCORE.SYSTEM.norm>
0

>  <SCORE.heavy>
42

>  <SCORE.norm>
0.496333

>  <RMSD>
6.842

$$$$
lig.pdb
 OpenBabel11021811453D
libRbt.so/2013.1/901 2013/11/27
 42 45  0  0  0  0  0  0  0  0999 V2000
   -1.2419    4.3115    1.5256 C   0  0  2  0  0  0  0  0  0  0  0  0
   -1.4524    5.3166    0.5321 O   0  0  0  0  0  0  0  0  0  0  0  0
   -2.3540    3.2528    1.4770 C   0  0  2  0  0  0  0  0  0  0  0  0
   -2.4787    2.6782    0.1247 N   0  0  0  0  0  0  0  0  0  0  0  0
   -3.6904    3.8369    1.9527 C   0  0  1  0  0  0  0  0  0  0  0  0
   -4.6507    2.8017    2.0403 O   0  0  0  0  0  0  0  0  0  0  0  0
   -3.5234    4.4941    3.3311 C   0  0  2  0  0  0  0  0  0  0  0  0
   -4.7208    5.1618    3.6800 O   0  0  0  0  0  0  0  0  0  0  0  0
   -2.3470    5.4912    3.3434 C   0  0  2  0  0  0  0  0  0  0  0  0
   -1.1592    4.8945    2.8237 O   0  0  0  0  0  0  0  0  0  0  0  0
   -2.1116    5.9363    4.7993 C   0  0  0  0  0  0  0  0  0  0  0  0
   -3.3017    5.7833    5.6181 O   0  0  0  0  0  0  0  0  0  0  0  0
    1.2703    7.7872   -1.7070 C   0  0  2  0  0  0  0  0  0  0  0  0
    2.6235    8.2646   -2.0552 N   0  0  0  0  0  0  0  0  0  0  0  0
    0.9720    8.0636   -0.2313 C   0  0  0  0  0  0  0  0  0  0  0  0
   -0.3636    7.4492    0.1707 C   0  0  2  0  0  0  0  0  0  0  0  0
   -0.6869    7.8027    1.5586 N   0  0  0  0  0  0  0  0  0  0  0  0
   -0.2788    5.9186   -0.0331 C   0  0  2  0  0  0  0  0  0  0  0  0
   -0.1481    5.6425   -1.4967 C   0  0  2  0  0  0  0  0  0  0  0  0
   -0.1143    4.2370   -1.6644 O   0  0  0  0  0  0  0  0  0  0  0  0
    1.1181    6.2882   -2.0267 C   0  0  1  0  0  0  0  0  0  0  0  0
    1.2498    6.1295   -3.4269 O   0  0  0  0  0  0  0  0  0  0  0  0
    1.0879    3.5569   -1.3194 C   0  0  1  0  0  0  0  0  0  0  0  0
    1.2941    3.7080    0.1892 C   0  0  2  0  0  0  0  0  0  0  0  0
    2.6773    3.8303    0.4626 O   0  0  0  0  0  0  0  0  0  0  0  0
    0.6902    2.4080    0.7373 C   0  0  2  0  0  0  0  0  0  0  0  0
    1.1731    2.0798    2.0403 O   0  0  0  0  0  0  0  0  0  0  0  0
    1.1095    1.4328   -0.3697 C   0  0  2  0  0  0  0  0  0  0  0  0
    0.9405    2.1658   -1.5749 O   0  0  0  0  0  0  0  0  0  0  0  0
    0.2648    0.1553   -0.4412 C   0  0  0  0  0  0  0  0  0  0  0  0
    0.1900   -0.3455   -1.7590 O   0  0  0  0  0  0  0  0  0  0  0  0
    0.4249    1.0701    2.7146 C   0  0  2  0  0  0  0  0  0  0  0  0
    0.5317    1.2044    4.2413 C   0  0  2  0  0  0  0  0  0  0  0  0
    0.1298    2.5511    4.6805 N   0  0  0  0  0  0  0  0  0  0  0  0
    1.9440    0.8512    4.7314 C   0  0  1  0  0  0  0  0  0  0  0  0
    1.9589    0.9084    6.1447 O   0  0  0  0  0  0  0  0  0  0  0  0
    2.2827   -0.5713    4.2544 C   0  0  2  0  0  0  0  0  0  0  0  0
    3.5952   -0.9315    4.6442 O   0  0  0  0  0  0  0  0  0  0  0  0
    2.1216   -0.6946    2.7252 C   0  0  1  0  0  0  0  0  0  0  0  0
    0.8411   -0.2274    2.2946 O   0  0  0  0  0  0  0  0  0  0  0  0
    3.2659   -0.0394    1.9378 C   0  0  0  0  0  0  0  0  0  0  0  0
    3.4225   -0.6529    0.6091 N   0  0  0  0  0  0  0  0  0  0  0  0
  1  3  1  0  0  0  0
  1  2  1  6  0  0  0
  3  4  1  6  0  0  0
  5  6  1  1  0  0  0
  5  3  1  0  0  0  0
  7  9  1  0  0  0  0
  7  5  1  0  0  0  0
  7  8  1  6  0  0  0
  9 10  1  0  0  0  0
  9 11  1  1  0  0  0
 10  1  1  0  0  0  0
 11 12  1  0  0  0  0
 13 14  1  1  0  0  0
 13 21  1  0  0  0  0
 15 13  1  0  0  0  0
 16 15  1  0  0  0  0
 16 18  1  0  0  0  0
 16 17  1  1  0  0  0
 18  2  1  6  0  0  0
 18 19  1  0  0  0  0
 19 21  1  0  0  0  0
 19 20  1  1  0  0  0
 21 22  1  6  0  0  0
 23 20  1  1  0  0  0
 23 29  1  0  0  0  0
 23 24  1  0  0  0  0
 24 26  1  0  0  0  0
 24 25  1  6  0  0  0
 26 27  1  1  0  0  0
 28 26  1  0  0  0  0
 28 30  1  6  0  0  0
 29 28  1  0  0  0  0
 30 31  1  0  0  0  0
 32 27  1  6  0  0  0
 32 40  1  0  0  0  0
 32 33  1  0  0  0  0
 33 35  1  0  0  0  0
 33 34  1  6  0  0  0
 35 37  1  0  0  0  0
 35 36  1  1  0  0  0
 37 38  1  6  0  0  0
 39 37  1  0  0  0  0
 39 41  1  6  0  0  0
 40 39  1  0  0  0  0
 42 41  1  0  0  0  0
M  END
>  <CHROM.1>
-123.68203923,-148.08992108,-46.65280074,-161.15938467,47.01292205,67.47502759
-23.74332564,63.10135325,-31.91028174,-75.20526259,65.17034824,63.45452775
53.40300133,166.12529132,-153.52804146,149.92239108,120.19938020,-4.97952494
156.49943085,-57.55460877,154.65336235,-61.74125613,0.06107028,3.41508991
1.37366801,1.99631332,0.76876354,-0.78228296

>  <Name>
lig.pdb

>  <RI>
0

>  <Rbt.Current_Directory>
/home/itssahil/PROJECTS/Mol_Feturizer/New_Systems/rnas/2mxs

>  <Rbt.Executable>
rbdock ($Id: //depot/dev/client3/rdock/2013.1/src/exe/rbdock.cxx#4 $)

>  <Rbt.Library>
libRbt.so (2013.1, Build901 2013/11/27)

>  <Rbt.Parameter_File>
/export/apps/rDock/src/rDock_2013.1_src/data/scripts/dock_solv.prm

>  <Rbt.Receptor>
prm/blind_docking_20.prm

>  <SCORE>
10.0175

>  <SCORE.INTER>
-19.7275

>  <SCORE.INTER.CONST>
1

>  <SCORE.INTER.POLAR>
-4.51117

>  <SCORE.INTER.ROT>
9

>  <SCORE.INTER.SOLV>
31.9829

>  <SCORE.INTER.VDW>
-18.3754

>  <SCORE.INTER.norm>
-0.469704

>  <SCORE.INTRA>
15.186

>  <SCORE.INTRA.DIHEDRAL>
12.9824

>  <SCORE.INTRA.DIHEDRAL.0>
30.1357

>  <SCORE.INTRA.POLAR>
0.0999344

>  <SCORE.INTRA.POLAR.0>
-0.631696

>  <SCORE.INTRA.REPUL>
0

>  <SCORE.INTRA.REPUL.0>
0

>  <SCORE.INTRA.SOLV>
1.85859

>  <SCORE.INTRA.SOLV.lig_0>
-55.904

>  <SCORE.INTRA.VDW>
7.42575

>  <SCORE.INTRA.VDW.0>
-8.21197

>  <SCORE.INTRA.norm>
0.361572

>  <SCORE.RESTR>
14.559

>  <SCORE.RESTR.CAVITY>
14.559

>  <SCORE.RESTR.norm>
0.346642

>  <SCORE.SYSTEM>
0

>  <SCORE.SYSTEM.CONST>
0

>  <SCORE.SYSTEM.DIHEDRAL>
0

>  <SCORE.SYSTEM.SOLV>
0

>  <SCORE.SYSTEM.norm>
0

>  <SCORE.heavy>
42

>  <SCORE.norm>
0.238511

>  <RMSD>
6.847

$$$$
lig.pdb
 OpenBabel11021811453D
libRbt.so/2013.1/901 2013/11/27
 42 45  0  0  0  0  0  0  0  0999 V2000
   -1.2122    4.6529    1.5704 C   0  0  2  0  0  0  0  0  0  0  0  0
   -1.4096    5.5549    0.4801 O   0  0  0  0  0  0  0  0  0  0  0  0
   -2.3852    3.6676    1.6847 C   0  0  2  0  0  0  0  0  0  0  0  0
   -2.6060    2.9579    0.4111 N   0  0  0  0  0  0  0  0  0  0  0  0
   -3.6617    4.3834    2.1449 C   0  0  1  0  0  0  0  0  0  0  0  0
   -4.6757    3.4267    2.3857 O   0  0  0  0  0  0  0  0  0  0  0  0
   -3.3926    5.1751    3.4335 C   0  0  2  0  0  0  0  0  0  0  0  0
   -4.5315    5.9512    3.7529 O   0  0  0  0  0  0  0  0  0  0  0  0
   -2.1607    6.0913    3.2875 C   0  0  2  0  0  0  0  0  0  0  0  0
   -1.0353    5.3675    2.7909 O   0  0  0  0  0  0  0  0  0  0  0  0
   -1.8323    6.6767    4.6741 C   0  0  0  0  0  0  0  0  0  0  0  0
   -0.8735    5.8615    5.3998 O   0  0  0  0  0  0  0  0  0  0  0  0
    1.3442    7.8967   -1.8573 C   0  0  2  0  0  0  0  0  0  0  0  0
    2.7044    8.3266   -2.2385 N   0  0  0  0  0  0  0  0  0  0  0  0
    1.0801    8.2126   -0.3830 C   0  0  0  0  0  0  0  0  0  0  0  0
   -0.2656    7.6464    0.0546 C   0  0  2  0  0  0  0  0  0  0  0  0
   -0.5541    8.0382    1.4399 N   0  0  0  0  0  0  0  0  0  0  0  0
   -0.2290    6.1101   -0.1178 C   0  0  2  0  0  0  0  0  0  0  0  0
   -0.1321    5.7996   -1.5771 C   0  0  2  0  0  0  0  0  0  0  0  0
   -0.1422    4.3906   -1.7152 O   0  0  0  0  0  0  0  0  0  0  0  0
    1.1429    6.3965   -2.1422 C   0  0  1  0  0  0  0  0  0  0  0  0
    1.2453    6.2047   -3.5407 O   0  0  0  0  0  0  0  0  0  0  0  0
    1.0732    3.6915   -1.4684 C   0  0  1  0  0  0  0  0  0  0  0  0
    1.3444    3.7421    0.0367 C   0  0  2  0  0  0  0  0  0  0  0  0
    2.7381    3.8488    0.2579 O   0  0  0  0  0  0  0  0  0  0  0  0
    0.7636    2.4071    0.5223 C   0  0  2  0  0  0  0  0  0  0  0  0
    1.3019    1.9939    1.7786 O   0  0  0  0  0  0  0  0  0  0  0  0
    1.1341    1.5088   -0.6642 C   0  0  2  0  0  0  0  0  0  0  0  0
    0.9139    2.3202   -1.8095 O   0  0  0  0  0  0  0  0  0  0  0  0
    0.2862    0.2372   -0.7844 C   0  0  0  0  0  0  0  0  0  0  0  0
   -1.0945    0.5246   -0.7185 O   0  0  0  0  0  0  0  0  0  0  0  0
    0.5579    0.9700    2.4361 C   0  0  2  0  0  0  0  0  0  0  0  0
    0.6559    1.0858    3.9649 C   0  0  2  0  0  0  0  0  0  0  0  0
    0.2415    2.4237    4.4190 N   0  0  0  0  0  0  0  0  0  0  0  0
    2.0683    0.7370    4.4579 C   0  0  1  0  0  0  0  0  0  0  0  0
    2.0755    0.7764    5.8718 O   0  0  0  0  0  0  0  0  0  0  0  0
    2.4203   -0.6768    3.9647 C   0  0  2  0  0  0  0  0  0  0  0  0
    3.7335   -1.0320    4.3567 O   0  0  0  0  0  0  0  0  0  0  0  0
    2.2680   -0.7818    2.4332 C   0  0  1  0  0  0  0  0  0  0  0  0
    0.9862   -0.3188    2.0019 O   0  0  0  0  0  0  0  0  0  0  0  0
    3.4113   -0.1080    1.6602 C   0  0  0  0  0  0  0  0  0  0  0  0
    3.3683   -0.4537    0.2301 N   0  0  0  0  0  0  0  0  0  0  0  0
  1  3  1  0  0  0  0
  1  2  1  6  0  0  0
  3  4  1  6  0  0  0
  5  6  1  1  0  0  0
  5  3  1  0  0  0  0
  7  9  1  0  0  0  0
  7  5  1  0  0  0  0
  7  8  1  6  0  0  0
  9 10  1  0  0  0  0
  9 11  1  1  0  0  0
 10  1  1  0  0  0  0
 11 12  1  0  0  0  0
 13 14  1  1  0  0  0
 13 21  1  0  0  0  0
 15 13  1  0  0  0  0
 16 15  1  0  0  0  0
 16 18  1  0  0  0  0
 16 17  1  1  0  0  0
 18  2  1  6  0  0  0
 18 19  1  0  0  0  0
 19 21  1  0  0  0  0
 19 20  1  1  0  0  0
 21 22  1  6  0  0  0
 23 20  1  1  0  0  0
 23 29  1  0  0  0  0
 23 24  1  0  0  0  0
 24 26  1  0  0  0  0
 24 25  1  6  0  0  0
 26 27  1  1  0  0  0
 28 26  1  0  0  0  0
 28 30  1  6  0  0  0
 29 28  1  0  0  0  0
 30 31  1  0  0  0  0
 32 27  1  6  0  0  0
 32 40  1  0  0  0  0
 32 33  1  0  0  0  0
 33 35  1  0  0  0  0
 33 34  1  6  0  0  0
 35 37  1  0  0  0  0
 35 36  1  1  0  0  0
 37 38  1  6  0  0  0
 39 37  1  0  0  0  0
 39 41  1  6  0  0  0
 40 39  1  0  0  0  0
 42 41  1  0  0  0  0
M  END
>  <CHROM.1>
-118.37020781,-153.52353966,-45.84102402,67.29948618,-57.66767902,49.77894697
91.90628217,71.88745350,60.22475997,-79.60578598,71.14213510,-133.91830148
-54.92683410,164.17709118,-148.93894033,50.05145265,74.94444231,-151.19378948
-76.80127755,40.18762914,168.91452126,28.86714260,0.16031454,3.60203638,1.27361379
2.06543397,0.82133666,-0.78310830

>  <Name>
lig.pdb

>  <RI>
0

>  <Rbt.Current_Directory>
/home/itssahil/PROJECTS/Mol_Feturizer/New_Systems/rnas/2mxs

>  <Rbt.Executable>
rbdock ($Id: //depot/dev/client3/rdock/2013.1/src/exe/rbdock.cxx#4 $)

>  <Rbt.Library>
libRbt.so (2013.1, Build901 2013/11/27)

>  <Rbt.Parameter_File>
/export/apps/rDock/src/rDock_2013.1_src/data/scripts/dock_solv.prm

>  <Rbt.Receptor>
prm/blind_docking_60.prm

>  <SCORE>
33.9475

>  <SCORE.INTER>
5.94087

>  <SCORE.INTER.CONST>
1

>  <SCORE.INTER.POLAR>
-2.6262

>  <SCORE.INTER.ROT>
9

>  <SCORE.INTER.SOLV>
31.251

>  <SCORE.INTER.VDW>
-7.30241

>  <SCORE.INTER.norm>
0.141449

>  <SCORE.INTRA>
6.17026

>  <SCORE.INTRA.DIHEDRAL>
7.09153

>  <SCORE.INTRA.DIHEDRAL.0>
30.1357

>  <SCORE.INTRA.POLAR>
-0.432772

>  <SCORE.INTRA.POLAR.0>
-0.631696

>  <SCORE.INTRA.REPUL>
0

>  <SCORE.INTRA.REPUL.0>
0

>  <SCORE.INTRA.SOLV>
2.05262

>  <SCORE.INTRA.SOLV.lig_0>
-55.904

>  <SCORE.INTRA.VDW>
3.06961

>  <SCORE.INTRA.VDW.0>
-8.21197

>  <SCORE.INTRA.norm>
0.146911

>  <SCORE.RESTR>
21.8364

>  <SCORE.RESTR.CAVITY>
21.8364

>  <SCORE.RESTR.norm>
0.519914

>  <SCORE.SYSTEM>
0

>  <SCORE.SYSTEM.CONST>
0

>  <SCORE.SYSTEM.DIHEDRAL>
0

>  <SCORE.SYSTEM.SOLV>
0

>  <SCORE.SYSTEM.norm>
0

>  <SCORE.heavy>
42

>  <SCORE.norm>
0.808274

>  <RMSD>
6.848

$$$$
lig.pdb
 OpenBabel11021811453D
libRbt.so/2013.1/901 2013/11/27
 42 45  0  0  0  0  0  0  0  0999 V2000
   -1.7865    4.6194    1.3751 C   0  0  2  0  0  0  0  0  0  0  0  0
   -1.8159    5.8495    0.6488 O   0  0  0  0  0  0  0  0  0  0  0  0
   -3.1723    4.2906    1.9506 C   0  0  2  0  0  0  0  0  0  0  0  0
   -4.1974    4.2841    0.8907 N   0  0  0  0  0  0  0  0  0  0  0  0
   -3.5470    5.2664    3.0736 C   0  0  1  0  0  0  0  0  0  0  0  0
   -4.7531    4.8434    3.6802 O   0  0  0  0  0  0  0  0  0  0  0  0
   -2.4342    5.3128    4.1315 C   0  0  2  0  0  0  0  0  0  0  0  0
   -2.7237    6.3297    5.0716 O   0  0  0  0  0  0  0  0  0  0  0  0
   -1.0553    5.5712    3.4910 C   0  0  2  0  0  0  0  0  0  0  0  0
   -0.8102    4.6691    2.4125 O   0  0  0  0  0  0  0  0  0  0  0  0
    0.0201    5.3865    4.5785 C   0  0  0  0  0  0  0  0  0  0  0  0
    0.2850    3.9851    4.8544 O   0  0  0  0  0  0  0  0  0  0  0  0
    1.1914    7.9015   -1.6482 C   0  0  2  0  0  0  0  0  0  0  0  0
    2.5933    8.1968   -2.0058 N   0  0  0  0  0  0  0  0  0  0  0  0
    0.9318    8.2513   -0.1808 C   0  0  0  0  0  0  0  0  0  0  0  0
   -0.4696    7.8193    0.2343 C   0  0  2  0  0  0  0  0  0  0  0  0
   -0.7446    8.2463    1.6119 N   0  0  0  0  0  0  0  0  0  0  0  0
   -0.5770    6.2853    0.0705 C   0  0  2  0  0  0  0  0  0  0  0  0
   -0.4835    5.9569   -1.3851 C   0  0  2  0  0  0  0  0  0  0  0  0
   -0.6257    4.5543   -1.5161 O   0  0  0  0  0  0  0  0  0  0  0  0
    0.8529    6.4254   -1.9291 C   0  0  1  0  0  0  0  0  0  0  0  0
    0.9620    6.2151   -3.3244 O   0  0  0  0  0  0  0  0  0  0  0  0
    0.5611    3.7725   -1.5994 C   0  0  1  0  0  0  0  0  0  0  0  0
    1.0669    3.5371   -0.1746 C   0  0  2  0  0  0  0  0  0  0  0  0
    2.4821    3.5442   -0.1731 O   0  0  0  0  0  0  0  0  0  0  0  0
    0.4768    2.1612    0.1627 C   0  0  2  0  0  0  0  0  0  0  0  0
    1.1742    1.5044    1.2214 O   0  0  0  0  0  0  0  0  0  0  0  0
    0.5933    1.4793   -1.2061 C   0  0  2  0  0  0  0  0  0  0  0  0
    0.2544    2.4939   -2.1411 O   0  0  0  0  0  0  0  0  0  0  0  0
   -0.3504    0.2869   -1.4015 C   0  0  0  0  0  0  0  0  0  0  0  0
   -0.7377    0.1461   -2.7518 O   0  0  0  0  0  0  0  0  0  0  0  0
    0.4285    0.4830    1.8807 C   0  0  2  0  0  0  0  0  0  0  0  0
    0.1528    0.8360    3.3502 C   0  0  2  0  0  0  0  0  0  0  0  0
   -0.5162    2.1429    3.4609 N   0  0  0  0  0  0  0  0  0  0  0  0
    1.4434    0.7926    4.1822 C   0  0  1  0  0  0  0  0  0  0  0  0
    1.1163    1.0398    5.5360 O   0  0  0  0  0  0  0  0  0  0  0  0
    2.0706   -0.6040    4.0344 C   0  0  2  0  0  0  0  0  0  0  0  0
    3.2897   -0.6843    4.7497 O   0  0  0  0  0  0  0  0  0  0  0  0
    2.2931   -0.9556    2.5490 C   0  0  1  0  0  0  0  0  0  0  0  0
    1.1003   -0.7709    1.7832 O   0  0  0  0  0  0  0  0  0  0  0  0
    3.4938   -0.2294    1.9248 C   0  0  0  0  0  0  0  0  0  0  0  0
    3.3846   -0.1755    0.4580 N   0  0  0  0  0  0  0  0  0  0  0  0
  1  3  1  0  0  0  0
  1  2  1  1  0  0  0
  3  4  1  6  0  0  0
  5  6  1  1  0  0  0
  5  3  1  0  0  0  0
  7  9  1  0  0  0  0
  7  5  1  0  0  0  0
  7  8  1  1  0  0  0
  9 10  1  0  0  0  0
  9 11  1  1  0  0  0
 10  1  1  0  0  0  0
 11 12  1  0  0  0  0
 13 14  1  1  0  0  0
 13 21  1  0  0  0  0
 15 13  1  0  0  0  0
 16 15  1  0  0  0  0
 16 18  1  0  0  0  0
 16 17  1  1  0  0  0
 18  2  1  6  0  0  0
 18 19  1  0  0  0  0
 19 21  1  0  0  0  0
 19 20  1  1  0  0  0
 21 22  1  6  0  0  0
 23 20  1  1  0  0  0
 23 29  1  0  0  0  0
 23 24  1  0  0  0  0
 24 26  1  0  0  0  0
 24 25  1  6  0  0  0
 26 27  1  1  0  0  0
 28 26  1  0  0  0  0
 28 30  1  1  0  0  0
 29 28  1  0  0  0  0
 30 31  1  0  0  0  0
 32 27  1  1  0  0  0
 32 40  1  0  0  0  0
 32 33  1  0  0  0  0
 33 35  1  0  0  0  0
 33 34  1  6  0  0  0
 35 37  1  0  0  0  0
 35 36  1  1  0  0  0
 37 38  1  1  0  0  0
 39 37  1  0  0  0  0
 39 41  1  6  0  0  0
 40 39  1  0  0  0  0
 42 41  1  0  0  0  0
M  END
>  <CHROM.1>
-140.72838494,179.21887932,-70.98496688,-53.97114824,-56.21372809,175.02930622
77.22466965,-146.88739726,-46.29901753,-96.07814729,82.54941175,-151.25340424
-54.40429192,159.17857020,-115.33217315,148.89525769,176.91593535,-38.35072560
-58.33499945,53.66758337,-158.62502384,-72.49259263,0.03263039,3.59014210
1.24833156,2.16407570,0.97690984,-0.88455564

>  <Name>
lig.pdb

>  <RI>
0

>  <Rbt.Current_Directory>
/home/itssahil/PROJECTS/Mol_Feturizer/New_Systems/rnas/2mxs

>  <Rbt.Executable>
rbdock ($Id: //depot/dev/client3/rdock/2013.1/src/exe/rbdock.cxx#4 $)

>  <Rbt.Library>
libRbt.so (2013.1, Build901 2013/11/27)

>  <Rbt.Parameter_File>
/export/apps/rDock/src/rDock_2013.1_src/data/scripts/dock_solv.prm

>  <Rbt.Receptor>
prm/blind_docking_80.prm

>  <SCORE>
18.4767

>  <SCORE.INTER>
3.46618

>  <SCORE.INTER.CONST>
1

>  <SCORE.INTER.POLAR>
-3.74745

>  <SCORE.INTER.ROT>
9

>  <SCORE.INTER.SOLV>
31.174

>  <SCORE.INTER.VDW>
-5.18906

>  <SCORE.INTER.norm>
0.0825281

>  <SCORE.INTRA>
3.10755

>  <SCORE.INTRA.DIHEDRAL>
5.14876

>  <SCORE.INTRA.DIHEDRAL.0>
30.1357

>  <SCORE.INTRA.POLAR>
-1.59324

>  <SCORE.INTRA.POLAR.0>
-0.631696

>  <SCORE.INTRA.REPUL>
0.0283961

>  <SCORE.INTRA.REPUL.0>
0

>  <SCORE.INTRA.SOLV>
2.37827

>  <SCORE.INTRA.SOLV.lig_0>
-55.904

>  <SCORE.INTRA.VDW>
4.61908

>  <SCORE.INTRA.VDW.0>
-8.21197

>  <SCORE.INTRA.norm>
0.0739892

>  <SCORE.RESTR>
11.903

>  <SCORE.RESTR.CAVITY>
11.903

>  <SCORE.RESTR.norm>
0.283404

>  <SCORE.SYSTEM>
0

>  <SCORE.SYSTEM.CONST>
0

>  <SCORE.SYSTEM.DIHEDRAL>
0

>  <SCORE.SYSTEM.SOLV>
0

>  <SCORE.SYSTEM.norm>
0

>  <SCORE.heavy>
42

>  <SCORE.norm>
0.439922

>  <RMSD>
6.849

$$$$
lig.pdb
 OpenBabel11021811453D
libRbt.so/2013.1/901 2013/11/27
 42 45  0  0  0  0  0  0  0  0999 V2000
   -1.9374    4.8024    1.4687 C   0  0  2  0  0  0  0  0  0  0  0  0
   -1.9176    5.9228    0.5823 O   0  0  0  0  0  0  0  0  0  0  0  0
   -3.2525    4.7550    2.2613 C   0  0  2  0  0  0  0  0  0  0  0  0
   -4.4165    4.7663    1.3561 N   0  0  0  0  0  0  0  0  0  0  0  0
   -3.3282    5.9080    3.2704 C   0  0  1  0  0  0  0  0  0  0  0  0
   -4.4744    5.7458    4.0837 O   0  0  0  0  0  0  0  0  0  0  0  0
   -2.0735    5.9229    4.1565 C   0  0  2  0  0  0  0  0  0  0  0  0
   -2.0876    7.0809    4.9692 O   0  0  0  0  0  0  0  0  0  0  0  0
   -0.7839    5.8941    3.3113 C   0  0  2  0  0  0  0  0  0  0  0  0
   -0.8192    4.8379    2.3519 O   0  0  0  0  0  0  0  0  0  0  0  0
    0.4092    5.6913    4.2646 C   0  0  0  0  0  0  0  0  0  0  0  0
    0.0305    4.9776    5.4719 O   0  0  0  0  0  0  0  0  0  0  0  0
    1.2524    7.7884   -1.6542 C   0  0  2  0  0  0  0  0  0  0  0  0
    2.6765    8.0030   -1.9799 N   0  0  0  0  0  0  0  0  0  0  0  0
    0.9781    8.1626   -0.1955 C   0  0  0  0  0  0  0  0  0  0  0  0
   -0.4546    7.8119    0.1885 C   0  0  2  0  0  0  0  0  0  0  0  0
   -0.7377    8.2635    1.5566 N   0  0  0  0  0  0  0  0  0  0  0  0
   -0.6431    6.2851    0.0312 C   0  0  2  0  0  0  0  0  0  0  0  0
   -0.5338    5.9416   -1.4198 C   0  0  2  0  0  0  0  0  0  0  0  0
   -0.7506    4.5482   -1.5460 O   0  0  0  0  0  0  0  0  0  0  0  0
    0.8390    6.3314   -1.9345 C   0  0  1  0  0  0  0  0  0  0  0  0
    0.9691    6.1053   -3.3255 O   0  0  0  0  0  0  0  0  0  0  0  0
    0.3566    3.6819   -1.3214 C   0  0  1  0  0  0  0  0  0  0  0  0
    0.6993    3.7378    0.1688 C   0  0  2  0  0  0  0  0  0  0  0  0
    2.1018    3.6401    0.3306 O   0  0  0  0  0  0  0  0  0  0  0  0
   -0.0519    2.5215    0.7268 C   0  0  2  0  0  0  0  0  0  0  0  0
    0.4743    2.0712    1.9754 O   0  0  0  0  0  0  0  0  0  0  0  0
    0.1268    1.5411   -0.4389 C   0  0  2  0  0  0  0  0  0  0  0  0
   -0.0208    2.3403   -1.6042 O   0  0  0  0  0  0  0  0  0  0  0  0
   -0.9060    0.4087   -0.4777 C   0  0  0  0  0  0  0  0  0  0  0  0
   -0.4175   -0.7171   -1.1755 O   0  0  0  0  0  0  0  0  0  0  0  0
    0.3418    0.6699    2.2055 C   0  0  2  0  0  0  0  0  0  0  0  0
    0.9443    0.2539    3.5561 C   0  0  2  0  0  0  0  0  0  0  0  0
    0.3567    1.0349    4.6574 N   0  0  0  0  0  0  0  0  0  0  0  0
    2.4759    0.3701    3.5392 C   0  0  1  0  0  0  0  0  0  0  0  0
    2.9785   -0.1057    4.7728 O   0  0  0  0  0  0  0  0  0  0  0  0
    3.0158   -0.4859    2.3809 C   0  0  2  0  0  0  0  0  0  0  0  0
    4.4249   -0.3797    2.2935 O   0  0  0  0  0  0  0  0  0  0  0  0
    2.3610   -0.0825    1.0437 C   0  0  1  0  0  0  0  0  0  0  0  0
    0.9349   -0.0714    1.1417 O   0  0  0  0  0  0  0  0  0  0  0  0
    2.9069    1.2339    0.4711 C   0  0  0  0  0  0  0  0  0  0  0  0
    3.8809    0.9877   -0.6045 N   0  0  0  0  0  0  0  0  0  0  0  0
  1  3  1  0  0  0  0
  1  2  1  1  0  0  0
  3  4  1  6  0  0  0
  5  6  1  1  0  0  0
  5  3  1  0  0  0  0
  7  9  1  0  0  0  0
  7  5  1  0  0  0  0
  7  8  1  6  0  0  0
  9 10  1  0  0  0  0
  9 11  1  1  0  0  0
 10  1  1  0  0  0  0
 11 12  1  0  0  0  0
 13 14  1  1  0  0  0
 13 21  1  0  0  0  0
 15 13  1  0  0  0  0
 16 15  1  0  0  0  0
 16 18  1  0  0  0  0
 16 17  1  1  0  0  0
 18  2  1  6  0  0  0
 18 19  1  0  0  0  0
 19 21  1  0  0  0  0
 19 20  1  1  0  0  0
 21 22  1  6  0  0  0
 23 20  1  1  0  0  0
 23 29  1  0  0  0  0
 23 24  1  0  0  0  0
 24 26  1  0  0  0  0
 24 25  1  6  0  0  0
 26 27  1  1  0  0  0
 28 26  1  0  0  0  0
 28 30  1  1  0  0  0
 29 28  1  0  0  0  0
 30 31  1  0  0  0  0
 32 27  1  6  0  0  0
 32 40  1  0  0  0  0
 32 33  1  0  0  0  0
 33 35  1  0  0  0  0
 33 34  1  1  0  0  0
 35 37  1  0  0  0  0
 35 36  1  1  0  0  0
 37 38  1  6  0  0  0
 39 37  1  0  0  0  0
 39 41  1  1  0  0  0
 40 39  1  0  0  0  0
 42 41  1  0  0  0  0
M  END
>  <CHROM.1>
-132.27640810,164.94118277,-79.09407804,65.61433492,53.56696966,52.57153911
27.40841611,173.39183885,-38.10023698,-83.41436335,69.18991709,-144.14473224
85.66619701,-149.40936824,179.25088417,-156.03604344,74.49023159,-34.97502301
70.31205183,25.46947904,101.08823028,72.49689826,0.15312817,3.75335460,1.23604138
2.42258970,0.93109416,-0.83377333

>  <Name>
lig.pdb

>  <RI>
0

>  <Rbt.Current_Directory>
/home/itssahil/PROJECTS/Mol_Feturizer/New_Systems/rnas/2mxs

>  <Rbt.Executable>
rbdock ($Id: //depot/dev/client3/rdock/2013.1/src/exe/rbdock.cxx#4 $)

>  <Rbt.Library>
libRbt.so (2013.1, Build901 2013/11/27)

>  <Rbt.Parameter_File>
/export/apps/rDock/src/rDock_2013.1_src/data/scripts/dock_solv.prm

>  <Rbt.Receptor>
prm/blind_docking_60.prm

>  <SCORE>
42.0682

>  <SCORE.INTER>
-4.0933

>  <SCORE.INTER.CONST>
1

>  <SCORE.INTER.POLAR>
-3.87499

>  <SCORE.INTER.ROT>
9

>  <SCORE.INTER.SOLV>
31.3211

>  <SCORE.INTER.VDW>
-9.85261

>  <SCORE.INTER.norm>
-0.0974596

>  <SCORE.INTRA>
24.4965

>  <SCORE.INTRA.DIHEDRAL>
10.5863

>  <SCORE.INTRA.DIHEDRAL.0>
30.1357

>  <SCORE.INTRA.POLAR>
0.217704

>  <SCORE.INTRA.POLAR.0>
-0.631696

>  <SCORE.INTRA.REPUL>
0.056166

>  <SCORE.INTRA.REPUL.0>
0

>  <SCORE.INTRA.SOLV>
2.67977

>  <SCORE.INTRA.SOLV.lig_0>
-55.904

>  <SCORE.INTRA.VDW>
16.8425

>  <SCORE.INTRA.VDW.0>
-8.21197

>  <SCORE.INTRA.norm>
0.58325

>  <SCORE.RESTR>
21.665

>  <SCORE.RESTR.CAVITY>
21.665

>  <SCORE.RESTR.norm>
0.515834

>  <SCORE.SYSTEM>
0

>  <SCORE.SYSTEM.CONST>
0

>  <SCORE.SYSTEM.DIHEDRAL>
0

>  <SCORE.SYSTEM.SOLV>
0

>  <SCORE.SYSTEM.norm>
0

>  <SCORE.heavy>
42

>  <SCORE.norm>
1.00162

>  <RMSD>
6.863

$$$$
lig.pdb
 OpenBabel11021811453D
libRbt.so/2013.1/901 2013/11/27
 42 45  0  0  0  0  0  0  0  0999 V2000
   -1.4284    1.1946    1.7348 C   0  0  2  0  0  0  0  0  0  0  0  0
   -0.5428    2.3107    1.6277 O   0  0  0  0  0  0  0  0  0  0  0  0
   -0.6452   -0.1269    1.7395 C   0  0  2  0  0  0  0  0  0  0  0  0
    0.3810   -0.1300    2.7984 N   0  0  0  0  0  0  0  0  0  0  0  0
   -0.0198   -0.4003    0.3656 C   0  0  1  0  0  0  0  0  0  0  0  0
    0.5608   -1.6905    0.3622 O   0  0  0  0  0  0  0  0  0  0  0  0
   -1.0916   -0.3217   -0.7321 C   0  0  2  0  0  0  0  0  0  0  0  0
   -0.4716   -0.4187   -2.0000 O   0  0  0  0  0  0  0  0  0  0  0  0
   -1.8966    0.9907   -0.6436 C   0  0  2  0  0  0  0  0  0  0  0  0
   -2.3864    1.2074    0.6794 O   0  0  0  0  0  0  0  0  0  0  0  0
   -3.0786    0.8948   -1.6268 C   0  0  0  0  0  0  0  0  0  0  0  0
   -4.0305   -0.1323   -1.2405 O   0  0  0  0  0  0  0  0  0  0  0  0
   -1.1886    6.5465    2.0416 C   0  0  2  0  0  0  0  0  0  0  0  0
   -2.0485    7.7469    2.0501 N   0  0  0  0  0  0  0  0  0  0  0  0
   -1.2461    5.8607    0.6743 C   0  0  0  0  0  0  0  0  0  0  0  0
   -0.4747    4.5465    0.7000 C   0  0  2  0  0  0  0  0  0  0  0  0
   -0.4527    3.9453   -0.6394 N   0  0  0  0  0  0  0  0  0  0  0  0
   -1.1326    3.6138    1.7433 C   0  0  2  0  0  0  0  0  0  0  0  0
   -0.9347    4.2079    3.1010 C   0  0  2  0  0  0  0  0  0  0  0  0
   -1.5067    3.3193    4.0432 O   0  0  0  0  0  0  0  0  0  0  0  0
   -1.5960    5.5718    3.1625 C   0  0  1  0  0  0  0  0  0  0  0  0
   -1.3679    6.2178    4.4009 O   0  0  0  0  0  0  0  0  0  0  0  0
   -2.8415    3.5728    4.4683 C   0  0  1  0  0  0  0  0  0  0  0  0
   -3.7376    2.4878    3.8673 C   0  0  2  0  0  0  0  0  0  0  0  0
   -4.9920    3.0501    3.5309 O   0  0  0  0  0  0  0  0  0  0  0  0
   -3.8288    1.4651    5.0079 C   0  0  2  0  0  0  0  0  0  0  0  0
   -4.9663    0.6095    4.8942 O   0  0  0  0  0  0  0  0  0  0  0  0
   -3.8533    2.4129    6.2134 C   0  0  2  0  0  0  0  0  0  0  0  0
   -2.9272    3.4378    5.8813 O   0  0  0  0  0  0  0  0  0  0  0  0
   -3.4266    1.7657    7.5361 C   0  0  0  0  0  0  0  0  0  0  0  0
   -2.1879    1.0996    7.4134 O   0  0  0  0  0  0  0  0  0  0  0  0
   -5.0815   -0.3665    5.9278 C   0  0  2  0  0  0  0  0  0  0  0  0
   -4.2119   -1.6012    5.6462 C   0  0  2  0  0  0  0  0  0  0  0  0
   -2.8074   -1.2170    5.4274 N   0  0  0  0  0  0  0  0  0  0  0  0
   -4.7644   -2.4102    4.4630 C   0  0  1  0  0  0  0  0  0  0  0  0
   -3.9776   -3.5752    4.3060 O   0  0  0  0  0  0  0  0  0  0  0  0
   -6.2217   -2.7921    4.7733 C   0  0  2  0  0  0  0  0  0  0  0  0
   -6.7942   -3.5050    3.6923 O   0  0  0  0  0  0  0  0  0  0  0  0
   -7.0633   -1.5413    5.1000 C   0  0  1  0  0  0  0  0  0  0  0  0
   -6.4442   -0.7437    6.1118 O   0  0  0  0  0  0  0  0  0  0  0  0
   -7.4287   -0.7124    3.8597 C   0  0  0  0  0  0  0  0  0  0  0  0
   -7.7531    0.6773    4.2201 N   0  0  0  0  0  0  0  0  0  0  0  0
  1  3  1  0  0  0  0
  1  2  1  6  0  0  0
  3  4  1  1  0  0  0
  5  6  1  1  0  0  0
  5  3  1  0  0  0  0
  7  9  1  0  0  0  0
  7  5  1  0  0  0  0
  7  8  1  6  0  0  0
  9 10  1  0  0  0  0
  9 11  1  6  0  0  0
 10  1  1  0  0  0  0
 11 12  1  0  0  0  0
 13 14  1  6  0  0  0
 13 21  1  0  0  0  0
 15 13  1  0  0  0  0
 16 15  1  0  0  0  0
 16 18  1  0  0  0  0
 16 17  1  6  0  0  0
 18  2  1  1  0  0  0
 18 19  1  0  0  0  0
 19 21  1  0  0  0  0
 19 20  1  1  0  0  0
 21 22  1  1  0  0  0
 23 20  1  6  0  0  0
 23 29  1  0  0  0  0
 23 24  1  0  0  0  0
 24 26  1  0  0  0  0
 24 25  1  1  0  0  0
 26 27  1  6  0  0  0
 28 26  1  0  0  0  0
 28 30  1  1  0  0  0
 29 28  1  0  0  0  0
 30 31  1  0  0  0  0
 32 27  1  6  0  0  0
 32 40  1  0  0  0  0
 32 33  1  0  0  0  0
 33 35  1  0  0  0  0
 33 34  1  6  0  0  0
 35 37  1  0  0  0  0
 35 36  1  1  0  0  0
 37 38  1  6  0  0  0
 39 37  1  0  0  0  0
 39 41  1  6  0  0  0
 40 39  1  0  0  0  0
 42 41  1  0  0  0  0
M  END
>  <CHROM.1>
-139.32699014,-174.09366803,-56.42437886,176.36839699,175.09346467,-57.72836713
65.74490046,-153.68943521,-170.64279718,-95.26518264,109.26243538,74.02190589
63.99976494,179.37204675,-82.54194764,51.60075966,63.18506848,50.23540207
-176.71571059,178.82821425,-158.10055007,-51.24101625,-2.90373606,1.33917683
3.00220454,-0.30984167,-0.92864395,-2.60191813

>  <Name>
lig.pdb

>  <RI>
0

>  <Rbt.Current_Directory>
/home/itssahil/PROJECTS/Mol_Feturizer/New_Systems/rnas/2mxs

>  <Rbt.Executable>
rbdock ($Id: //depot/dev/client3/rdock/2013.1/src/exe/rbdock.cxx#4 $)

>  <Rbt.Library>
libRbt.so (2013.1, Build901 2013/11/27)

>  <Rbt.Parameter_File>
/export/apps/rDock/src/rDock_2013.1_src/data/scripts/dock_solv.prm

>  <Rbt.Receptor>
prm/pocket_docking_7.prm

>  <SCORE>
-26.3246

>  <SCORE.INTER>
-23.0478

>  <SCORE.INTER.CONST>
1

>  <SCORE.INTER.POLAR>
-3.21489

>  <SCORE.INTER.ROT>
9

>  <SCORE.INTER.SOLV>
13.567

>  <SCORE.INTER.VDW>
-18.7713

>  <SCORE.INTER.norm>
-0.548758

>  <SCORE.INTRA>
-3.27682

>  <SCORE.INTRA.DIHEDRAL>
-5.06618

>  <SCORE.INTRA.DIHEDRAL.0>
30.1357

>  <SCORE.INTRA.POLAR>
-1.11558

>  <SCORE.INTRA.POLAR.0>
-0.631696

>  <SCORE.INTRA.REPUL>
0

>  <SCORE.INTRA.REPUL.0>
0

>  <SCORE.INTRA.SOLV>
1.03833

>  <SCORE.INTRA.SOLV.lig_0>
-55.904

>  <SCORE.INTRA.VDW>
2.53008

>  <SCORE.INTRA.VDW.0>
-8.21197

>  <SCORE.INTRA.norm>
-0.0780194

>  <SCORE.RESTR>
0

>  <SCORE.RESTR.CAVITY>
0

>  <SCORE.RESTR.norm>
0

>  <SCORE.SYSTEM>
0

>  <SCORE.SYSTEM.CONST>
0

>  <SCORE.SYSTEM.DIHEDRAL>
0

>  <SCORE.SYSTEM.SOLV>
0

>  <SCORE.SYSTEM.norm>
0

>  <SCORE.heavy>
42

>  <SCORE.norm>
-0.626777

>  <RMSD>
6.872

$$$$
lig.pdb
 OpenBabel11021811453D
libRbt.so/2013.1/901 2013/11/27
 42 45  0  0  0  0  0  0  0  0999 V2000
   -1.6759    4.8495    1.5211 C   0  0  2  0  0  0  0  0  0  0  0  0
   -1.6852    5.8715    0.5226 O   0  0  0  0  0  0  0  0  0  0  0  0
   -3.0658    4.6926    2.1563 C   0  0  2  0  0  0  0  0  0  0  0  0
   -4.0939    4.4525    1.1269 N   0  0  0  0  0  0  0  0  0  0  0  0
   -3.4196    5.9145    3.0138 C   0  0  1  0  0  0  0  0  0  0  0  0
   -4.6314    5.6703    3.7018 O   0  0  0  0  0  0  0  0  0  0  0  0
   -2.3031    6.1915    4.0319 C   0  0  2  0  0  0  0  0  0  0  0  0
   -2.5716    7.4081    4.7021 O   0  0  0  0  0  0  0  0  0  0  0  0
   -0.9217    6.2646    3.3504 C   0  0  2  0  0  0  0  0  0  0  0  0
   -0.6959    5.1272    2.5182 O   0  0  0  0  0  0  0  0  0  0  0  0
    0.1533    6.3247    4.4522 C   0  0  0  0  0  0  0  0  0  0  0  0
    0.1783    7.6129    5.1233 O   0  0  0  0  0  0  0  0  0  0  0  0
    1.4640    7.7348   -1.7450 C   0  0  2  0  0  0  0  0  0  0  0  0
    2.8862    7.9791   -2.0578 N   0  0  0  0  0  0  0  0  0  0  0  0
    1.1539    8.1639   -0.3087 C   0  0  0  0  0  0  0  0  0  0  0  0
   -0.2737    7.7860    0.0681 C   0  0  2  0  0  0  0  0  0  0  0  0
   -0.5935    8.2881    1.4103 N   0  0  0  0  0  0  0  0  0  0  0  0
   -0.4131    6.2487   -0.0242 C   0  0  2  0  0  0  0  0  0  0  0  0
   -0.2690    5.8454   -1.4567 C   0  0  2  0  0  0  0  0  0  0  0  0
   -0.4412    4.4417   -1.5242 O   0  0  0  0  0  0  0  0  0  0  0  0
    1.0998    6.2547   -1.9667 C   0  0  1  0  0  0  0  0  0  0  0  0
    1.2602    5.9720   -3.3442 O   0  0  0  0  0  0  0  0  0  0  0  0
    0.7249    3.6364   -1.6597 C   0  0  1  0  0  0  0  0  0  0  0  0
    1.0639    3.0686   -0.2798 C   0  0  2  0  0  0  0  0  0  0  0  0
    2.4699    3.0014   -0.1337 O   0  0  0  0  0  0  0  0  0  0  0  0
    0.4014    1.6849   -0.3198 C   0  0  2  0  0  0  0  0  0  0  0  0
    0.9591    0.7767    0.6304 O   0  0  0  0  0  0  0  0  0  0  0  0
    0.6485    1.3142   -1.7873 C   0  0  2  0  0  0  0  0  0  0  0  0
    0.4436    2.5253   -2.5014 O   0  0  0  0  0  0  0  0  0  0  0  0
   -0.3013    0.2444   -2.3385 C   0  0  0  0  0  0  0  0  0  0  0  0
   -1.6009    0.7573   -2.5411 O   0  0  0  0  0  0  0  0  0  0  0  0
    0.0128    0.2007    1.5286 C   0  0  2  0  0  0  0  0  0  0  0  0
   -0.2922    1.1327    2.7111 C   0  0  2  0  0  0  0  0  0  0  0  0
   -0.7386    2.4538    2.2385 N   0  0  0  0  0  0  0  0  0  0  0  0
    0.9177    1.2508    3.6502 C   0  0  1  0  0  0  0  0  0  0  0  0
    0.5518    2.0478    4.7600 O   0  0  0  0  0  0  0  0  0  0  0  0
    1.3103   -0.1610    4.1174 C   0  0  2  0  0  0  0  0  0  0  0  0
    2.4512   -0.1129    4.9545 O   0  0  0  0  0  0  0  0  0  0  0  0
    1.5643   -1.0911    2.9132 C   0  0  1  0  0  0  0  0  0  0  0  0
    0.4700   -1.0672    1.9938 O   0  0  0  0  0  0  0  0  0  0  0  0
    2.9066   -0.8294    2.2144 C   0  0  0  0  0  0  0  0  0  0  0  0
    3.0249    0.5746    1.7890 N   0  0  0  0  0  0  0  0  0  0  0  0
  1  3  1  0  0  0  0
  1  2  1  6  0  0  0
  3  4  1  6  0  0  0
  5  6  1  1  0  0  0
  5  3  1  0  0  0  0
  7  9  1  0  0  0  0
  7  5  1  0  0  0  0
  7  8  1  6  0  0  0
  9 10  1  0  0  0  0
  9 11  1  1  0  0  0
 10  1  1  0  0  0  0
 11 12  1  0  0  0  0
 13 14  1  1  0  0  0
 13 21  1  0  0  0  0
 15 13  1  0  0  0  0
 16 15  1  0  0  0  0
 16 18  1  0  0  0  0
 16 17  1  1  0  0  0
 18  2  1  6  0  0  0
 18 19  1  0  0  0  0
 19 21  1  0  0  0  0
 19 20  1  1  0  0  0
 21 22  1  6  0  0  0
 23 20  1  1  0  0  0
 23 29  1  0  0  0  0
 23 24  1  0  0  0  0
 24 26  1  0  0  0  0
 24 25  1  6  0  0  0
 26 27  1  1  0  0  0
 28 26  1  0  0  0  0
 28 30  1  6  0  0  0
 29 28  1  0  0  0  0
 30 31  1  0  0  0  0
 32 27  1  6  0  0  0
 32 40  1  0  0  0  0
 32 33  1  0  0  0  0
 33 35  1  0  0  0  0
 33 34  1  6  0  0  0
 35 37  1  0  0  0  0
 35 36  1  1  0  0  0
 37 38  1  6  0  0  0
 39 37  1  0  0  0  0
 39 41  1  6  0  0  0
 40 39  1  0  0  0  0
 42 41  1  0  0  0  0
M  END
>  <CHROM.1>
-128.36914201,171.80952572,73.98225468,59.75490396,-135.56817099,-65.05299842
-72.55046787,67.44885517,-170.00565526,-102.48066872,100.64354277,-118.25801186
-144.89229299,124.33745318,-82.78596409,72.76149984,55.80937258,-63.10008434
-68.39733222,54.66732785,-55.79047602,94.93247962,-0.04625158,3.84197181
1.14365343,2.32007380,1.14701744,-0.78147475

>  <Name>
lig.pdb

>  <RI>
0

>  <Rbt.Current_Directory>
/home/itssahil/PROJECTS/Mol_Feturizer/New_Systems/rnas/2mxs

>  <Rbt.Executable>
rbdock ($Id: //depot/dev/client3/rdock/2013.1/src/exe/rbdock.cxx#4 $)

>  <Rbt.Library>
libRbt.so (2013.1, Build901 2013/11/27)

>  <Rbt.Parameter_File>
/export/apps/rDock/src/rDock_2013.1_src/data/scripts/dock_solv.prm

>  <Rbt.Receptor>
prm/blind_docking_60.prm

>  <SCORE>
56.2553

>  <SCORE.INTER>
12.8125

>  <SCORE.INTER.CONST>
1

>  <SCORE.INTER.POLAR>
-2.90427

>  <SCORE.INTER.ROT>
9

>  <SCORE.INTER.SOLV>
31.369

>  <SCORE.INTER.VDW>
-1.83374

>  <SCORE.INTER.norm>
0.30506

>  <SCORE.INTRA>
21.5881

>  <SCORE.INTRA.DIHEDRAL>
20.3812

>  <SCORE.INTRA.DIHEDRAL.0>
30.1357

>  <SCORE.INTRA.POLAR>
-0.581636

>  <SCORE.INTRA.POLAR.0>
-0.631696

>  <SCORE.INTRA.REPUL>
0

>  <SCORE.INTRA.REPUL.0>
0

>  <SCORE.INTRA.SOLV>
3.18534

>  <SCORE.INTRA.SOLV.lig_0>
-55.904

>  <SCORE.INTRA.VDW>
11.7824

>  <SCORE.INTRA.VDW.0>
-8.21197

>  <SCORE.INTRA.norm>
0.514003

>  <SCORE.RESTR>
21.8546

>  <SCORE.RESTR.CAVITY>
21.8546

>  <SCORE.RESTR.norm>
0.520348

>  <SCORE.SYSTEM>
0

>  <SCORE.SYSTEM.CONST>
0

>  <SCORE.SYSTEM.DIHEDRAL>
0

>  <SCORE.SYSTEM.SOLV>
0

>  <SCORE.SYSTEM.norm>
0

>  <SCORE.heavy>
42

>  <SCORE.norm>
1.33941

>  <RMSD>
6.881

$$$$
lig.pdb
 OpenBabel11021811453D
libRbt.so/2013.1/901 2013/11/27
 42 45  0  0  0  0  0  0  0  0999 V2000
   -1.8324    4.4804    1.5353 C   0  0  2  0  0  0  0  0  0  0  0  0
   -1.8803    5.7336    0.8507 O   0  0  0  0  0  0  0  0  0  0  0  0
   -3.2402    4.0331    1.9569 C   0  0  2  0  0  0  0  0  0  0  0  0
   -4.1530    3.9979    0.7993 N   0  0  0  0  0  0  0  0  0  0  0  0
   -3.7941    4.9347    3.0678 C   0  0  1  0  0  0  0  0  0  0  0  0
   -5.0197    4.4048    3.5353 O   0  0  0  0  0  0  0  0  0  0  0  0
   -2.7971    5.0160    4.2336 C   0  0  2  0  0  0  0  0  0  0  0  0
   -3.2513    5.9717    5.1727 O   0  0  0  0  0  0  0  0  0  0  0  0
   -1.3846    5.3951    3.7444 C   0  0  2  0  0  0  0  0  0  0  0  0
   -0.9692    4.5563    2.6671 O   0  0  0  0  0  0  0  0  0  0  0  0
   -0.4107    5.2423    4.9283 C   0  0  0  0  0  0  0  0  0  0  0  0
    0.7134    6.1576    4.8345 O   0  0  0  0  0  0  0  0  0  0  0  0
    1.0583    7.7849   -1.5342 C   0  0  2  0  0  0  0  0  0  0  0  0
    2.4496    8.1217   -1.8965 N   0  0  0  0  0  0  0  0  0  0  0  0
    0.7679    8.2048   -0.0911 C   0  0  0  0  0  0  0  0  0  0  0  0
   -0.6175    7.7349    0.3363 C   0  0  2  0  0  0  0  0  0  0  0  0
   -0.9257    8.2261    1.6852 N   0  0  0  0  0  0  0  0  0  0  0  0
   -0.6556    6.1909    0.2588 C   0  0  2  0  0  0  0  0  0  0  0  0
   -0.5323    5.7856   -1.1751 C   0  0  2  0  0  0  0  0  0  0  0  0
   -0.6113    4.3730   -1.2275 O   0  0  0  0  0  0  0  0  0  0  0  0
    0.7880    6.2817   -1.7338 C   0  0  1  0  0  0  0  0  0  0  0  0
    0.9211    5.9983   -3.1140 O   0  0  0  0  0  0  0  0  0  0  0  0
    0.5878    3.6510   -1.4882 C   0  0  1  0  0  0  0  0  0  0  0  0
    1.0937    3.0891   -0.1579 C   0  0  2  0  0  0  0  0  0  0  0  0
    2.5086    3.1162   -0.1462 O   0  0  0  0  0  0  0  0  0  0  0  0
    0.5242    1.6641   -0.1630 C   0  0  2  0  0  0  0  0  0  0  0  0
    1.2293    0.7833    0.7122 O   0  0  0  0  0  0  0  0  0  0  0  0
    0.6546    1.3310   -1.6543 C   0  0  2  0  0  0  0  0  0  0  0  0
    0.3023    2.5348   -2.3216 O   0  0  0  0  0  0  0  0  0  0  0  0
   -0.2699    0.2064   -2.1349 C   0  0  0  0  0  0  0  0  0  0  0  0
   -1.6306    0.5533   -1.9884 O   0  0  0  0  0  0  0  0  0  0  0  0
    0.3997    0.0443    1.6065 C   0  0  2  0  0  0  0  0  0  0  0  0
   -0.1411    0.9253    2.7429 C   0  0  2  0  0  0  0  0  0  0  0  0
   -0.8468    2.1012    2.2069 N   0  0  0  0  0  0  0  0  0  0  0  0
    0.9809    1.3349    3.7088 C   0  0  1  0  0  0  0  0  0  0  0  0
    0.4124    2.0686    4.7762 O   0  0  0  0  0  0  0  0  0  0  0  0
    1.6540    0.0586    4.2416 C   0  0  2  0  0  0  0  0  0  0  0  0
    2.7274    0.3815    5.1064 O   0  0  0  0  0  0  0  0  0  0  0  0
    2.1454   -0.8324    3.0821 C   0  0  1  0  0  0  0  0  0  0  0  0
    1.1047   -1.0776    2.1333 O   0  0  0  0  0  0  0  0  0  0  0  0
    3.4225   -0.3071    2.4098 C   0  0  0  0  0  0  0  0  0  0  0  0
    3.4039   -0.5517    0.9586 N   0  0  0  0  0  0  0  0  0  0  0  0
  1  3  1  0  0  0  0
  1  2  1  1  0  0  0
  3  4  1  6  0  0  0
  5  6  1  1  0  0  0
  5  3  1  0  0  0  0
  7  9  1  0  0  0  0
  7  5  1  0  0  0  0
  7  8  1  1  0  0  0
  9 10  1  0  0  0  0
  9 11  1  1  0  0  0
 10  1  1  0  0  0  0
 11 12  1  0  0  0  0
 13 14  1  1  0  0  0
 13 21  1  0  0  0  0
 15 13  1  0  0  0  0
 16 15  1  0  0  0  0
 16 18  1  0  0  0  0
 16 17  1  1  0  0  0
 18  2  1  6  0  0  0
 18 19  1  0  0  0  0
 19 21  1  0  0  0  0
 19 20  1  1  0  0  0
 21 22  1  6  0  0  0
 23 20  1  1  0  0  0
 23 29  1  0  0  0  0
 23 24  1  0  0  0  0
 24 26  1  0  0  0  0
 24 25  1  6  0  0  0
 26 27  1  1  0  0  0
 28 26  1  0  0  0  0
 28 30  1  6  0  0  0
 29 28  1  0  0  0  0
 30 31  1  0  0  0  0
 32 27  1  6  0  0  0
 32 40  1  0  0  0  0
 32 33  1  0  0  0  0
 33 35  1  0  0  0  0
 33 34  1  6  0  0  0
 35 37  1  0  0  0  0
 35 36  1  1  0  0  0
 37 38  1  1  0  0  0
 39 37  1  0  0  0  0
 39 41  1  6  0  0  0
 40 39  1  0  0  0  0
 42 41  1  0  0  0  0
M  END
>  <CHROM.1>
-146.69210451,-172.68104775,-45.49438035,63.72360617,65.54922938,-89.94797683
-150.59966952,-50.04435964,-39.28854684,-106.67690435,101.87941201,72.08495177
56.68958697,129.53595045,-74.25469101,62.70224772,-177.81781555,-74.37772699
54.13359456,-54.32576397,-143.65293797,173.29165929,-0.12216630,3.56848625
1.26024801,2.25544048,0.99372503,-0.81962493

>  <Name>
lig.pdb

>  <RI>
0

>  <Rbt.Current_Directory>
/home/itssahil/PROJECTS/Mol_Feturizer/New_Systems/rnas/2mxs

>  <Rbt.Executable>
rbdock ($Id: //depot/dev/client3/rdock/2013.1/src/exe/rbdock.cxx#4 $)

>  <Rbt.Library>
libRbt.so (2013.1, Build901 2013/11/27)

>  <Rbt.Parameter_File>
/export/apps/rDock/src/rDock_2013.1_src/data/scripts/dock_solv.prm

>  <Rbt.Receptor>
prm/blind_docking_20.prm

>  <SCORE>
13.965

>  <SCORE.INTER>
-8.44321

>  <SCORE.INTER.CONST>
1

>  <SCORE.INTER.POLAR>
-3.21896

>  <SCORE.INTER.ROT>
9

>  <SCORE.INTER.SOLV>
29.0046

>  <SCORE.INTER.VDW>
-14.1671

>  <SCORE.INTER.norm>
-0.201029

>  <SCORE.INTRA>
9.11087

>  <SCORE.INTRA.DIHEDRAL>
7.66966

>  <SCORE.INTRA.DIHEDRAL.0>
30.1357

>  <SCORE.INTRA.POLAR>
-0.477061

>  <SCORE.INTRA.POLAR.0>
-0.631696

>  <SCORE.INTRA.REPUL>
0.0453713

>  <SCORE.INTRA.REPUL.0>
0

>  <SCORE.INTRA.SOLV>
1.41667

>  <SCORE.INTRA.SOLV.lig_0>
-55.904

>  <SCORE.INTRA.VDW>
5.96286

>  <SCORE.INTRA.VDW.0>
-8.21197

>  <SCORE.INTRA.norm>
0.216926

>  <SCORE.RESTR>
13.2973

>  <SCORE.RESTR.CAVITY>
13.2973

>  <SCORE.RESTR.norm>
0.316602

>  <SCORE.SYSTEM>
0

>  <SCORE.SYSTEM.CONST>
0

>  <SCORE.SYSTEM.DIHEDRAL>
0

>  <SCORE.SYSTEM.SOLV>
0

>  <SCORE.SYSTEM.norm>
0

>  <SCORE.heavy>
42

>  <SCORE.norm>
0.332499

>  <RMSD>
6.891

$$$$
lig.pdb
 OpenBabel11021811453D
libRbt.so/2013.1/901 2013/11/27
 42 45  0  0  0  0  0  0  0  0999 V2000
   -1.7773    4.7498    1.4026 C   0  0  2  0  0  0  0  0  0  0  0  0
   -1.7962    5.8885    0.5398 O   0  0  0  0  0  0  0  0  0  0  0  0
   -3.1132    4.6051    2.1470 C   0  0  2  0  0  0  0  0  0  0  0  0
   -4.2441    4.5654    1.2016 N   0  0  0  0  0  0  0  0  0  0  0  0
   -3.2941    5.7290    3.1755 C   0  0  1  0  0  0  0  0  0  0  0  0
   -4.4553    5.4796    3.9443 O   0  0  0  0  0  0  0  0  0  0  0  0
   -2.0737    5.8008    4.1056 C   0  0  2  0  0  0  0  0  0  0  0  0
   -2.1868    6.9376    4.9400 O   0  0  0  0  0  0  0  0  0  0  0  0
   -0.7566    5.8689    3.3061 C   0  0  2  0  0  0  0  0  0  0  0  0
   -0.6942    4.8339    2.3254 O   0  0  0  0  0  0  0  0  0  0  0  0
    0.4134    5.7183    4.2969 C   0  0  0  0  0  0  0  0  0  0  0  0
    0.4572    6.8033    5.2619 O   0  0  0  0  0  0  0  0  0  0  0  0
    1.2952    7.8642   -1.7120 C   0  0  2  0  0  0  0  0  0  0  0  0
    2.7091    8.1219   -2.0510 N   0  0  0  0  0  0  0  0  0  0  0  0
    1.0269    8.2161   -0.2466 C   0  0  0  0  0  0  0  0  0  0  0  0
   -0.3910    7.8217    0.1493 C   0  0  2  0  0  0  0  0  0  0  0  0
   -0.6714    8.2516    1.5250 N   0  0  0  0  0  0  0  0  0  0  0  0
   -0.5386    6.2918   -0.0214 C   0  0  2  0  0  0  0  0  0  0  0  0
   -0.4359    5.9658   -1.4770 C   0  0  2  0  0  0  0  0  0  0  0  0
   -0.6151    4.5682   -1.6149 O   0  0  0  0  0  0  0  0  0  0  0  0
    0.9196    6.3990   -2.0025 C   0  0  1  0  0  0  0  0  0  0  0  0
    1.0404    6.1904   -3.3971 O   0  0  0  0  0  0  0  0  0  0  0  0
    0.5506    3.7540   -1.6851 C   0  0  1  0  0  0  0  0  0  0  0  0
    1.1092    3.6140   -0.2674 C   0  0  2  0  0  0  0  0  0  0  0  0
    2.5231    3.5871   -0.3219 O   0  0  0  0  0  0  0  0  0  0  0  0
    0.5045    2.2818    0.1961 C   0  0  2  0  0  0  0  0  0  0  0  0
    1.2308    1.6896    1.2734 O   0  0  0  0  0  0  0  0  0  0  0  0
    0.5506    1.4966   -1.1205 C   0  0  2  0  0  0  0  0  0  0  0  0
    0.1953    2.4461   -2.1157 O   0  0  0  0  0  0  0  0  0  0  0  0
   -0.4250    0.3159   -1.1878 C   0  0  0  0  0  0  0  0  0  0  0  0
   -0.2251   -0.4583   -2.3513 O   0  0  0  0  0  0  0  0  0  0  0  0
    0.5165    0.6846    1.9903 C   0  0  2  0  0  0  0  0  0  0  0  0
    0.5309    0.9445    3.5043 C   0  0  2  0  0  0  0  0  0  0  0  0
    0.0163    2.2892    3.8124 N   0  0  0  0  0  0  0  0  0  0  0  0
    1.9351    0.7320    4.0899 C   0  0  1  0  0  0  0  0  0  0  0  0
    1.8693    0.8998    5.4929 O   0  0  0  0  0  0  0  0  0  0  0  0
    2.3939   -0.6955    3.7473 C   0  0  2  0  0  0  0  0  0  0  0  0
    3.7046   -0.9299    4.2287 O   0  0  0  0  0  0  0  0  0  0  0  0
    2.3248   -0.9485    2.2272 C   0  0  1  0  0  0  0  0  0  0  0  0
    1.0412   -0.6086    1.6980 O   0  0  0  0  0  0  0  0  0  0  0  0
    3.4636   -0.2765    1.4458 C   0  0  0  0  0  0  0  0  0  0  0  0
    3.2230   -0.3304   -0.0052 N   0  0  0  0  0  0  0  0  0  0  0  0
  1  3  1  0  0  0  0
  1  2  1  1  0  0  0
  3  4  1  6  0  0  0
  5  6  1  1  0  0  0
  5  3  1  0  0  0  0
  7  9  1  0  0  0  0
  7  5  1  0  0  0  0
  7  8  1  6  0  0  0
  9 10  1  0  0  0  0
  9 11  1  1  0  0  0
 10  1  1  0  0  0  0
 11 12  1  0  0  0  0
 13 14  1  1  0  0  0
 13 21  1  0  0  0  0
 15 13  1  0  0  0  0
 16 15  1  0  0  0  0
 16 18  1  0  0  0  0
 16 17  1  1  0  0  0
 18  2  1  6  0  0  0
 18 19  1  0  0  0  0
 19 21  1  0  0  0  0
 19 20  1  1  0  0  0
 21 22  1  6  0  0  0
 23 20  1  1  0  0  0
 23 29  1  0  0  0  0
 23 24  1  0  0  0  0
 24 26  1  0  0  0  0
 24 25  1  6  0  0  0
 26 27  1  1  0  0  0
 28 26  1  0  0  0  0
 28 30  1  1  0  0  0
 29 28  1  0  0  0  0
 30 31  1  0  0  0  0
 32 27  1  6  0  0  0
 32 40  1  0  0  0  0
 32 33  1  0  0  0  0
 33 35  1  0  0  0  0
 33 34  1  6  0  0  0
 35 37  1  0  0  0  0
 35 36  1  1  0  0  0
 37 38  1  6  0  0  0
 39 37  1  0  0  0  0
 39 41  1  6  0  0  0
 40 39  1  0  0  0  0
 42 41  1  0  0  0  0
M  END
>  <CHROM.1>
-132.98159642,168.49925020,-60.14190828,-172.75643581,-45.59504526,-52.95848594
-62.76765394,-161.02885793,-49.59091388,-96.02372962,77.07691708,69.19617815
-166.51027941,162.53027018,-128.33005426,-173.00062407,-57.32892379,-30.85957533
149.06596617,76.33920052,-169.41185809,158.35422887,0.19448683,3.74624958
1.21896327,2.43749364,1.06305825,-0.96837184

>  <Name>
lig.pdb

>  <RI>
0

>  <Rbt.Current_Directory>
/home/itssahil/PROJECTS/Mol_Feturizer/New_Systems/rnas/2mxs

>  <Rbt.Executable>
rbdock ($Id: //depot/dev/client3/rdock/2013.1/src/exe/rbdock.cxx#4 $)

>  <Rbt.Library>
libRbt.so (2013.1, Build901 2013/11/27)

>  <Rbt.Parameter_File>
/export/apps/rDock/src/rDock_2013.1_src/data/scripts/dock_solv.prm

>  <Rbt.Receptor>
prm/blind_docking_60.prm

>  <SCORE>
20.3798

>  <SCORE.INTER>
-4.13036

>  <SCORE.INTER.CONST>
1

>  <SCORE.INTER.POLAR>
-5.30401

>  <SCORE.INTER.ROT>
9

>  <SCORE.INTER.SOLV>
34.6264

>  <SCORE.INTER.VDW>
-6.21566

>  <SCORE.INTER.norm>
-0.0983419

>  <SCORE.INTRA>
4.45878

>  <SCORE.INTRA.DIHEDRAL>
4.0089

>  <SCORE.INTRA.DIHEDRAL.0>
30.1357

>  <SCORE.INTRA.POLAR>
0.02245

>  <SCORE.INTRA.POLAR.0>
-0.631696

>  <SCORE.INTRA.REPUL>
0

>  <SCORE.INTRA.REPUL.0>
0

>  <SCORE.INTRA.SOLV>
0.994262

>  <SCORE.INTRA.SOLV.lig_0>
-55.904

>  <SCORE.INTRA.VDW>
1.88087

>  <SCORE.INTRA.VDW.0>
-8.21197

>  <SCORE.INTRA.norm>
0.106161

>  <SCORE.RESTR>
20.0513

>  <SCORE.RESTR.CAVITY>
20.0513

>  <SCORE.RESTR.norm>
0.477413

>  <SCORE.SYSTEM>
0

>  <SCORE.SYSTEM.CONST>
0

>  <SCORE.SYSTEM.DIHEDRAL>
0

>  <SCORE.SYSTEM.SOLV>
0

>  <SCORE.SYSTEM.norm>
0

>  <SCORE.heavy>
42

>  <SCORE.norm>
0.485233

>  <RMSD>
6.896

$$$$
lig.pdb
 OpenBabel11021811453D
libRbt.so/2013.1/901 2013/11/27
 42 45  0  0  0  0  0  0  0  0999 V2000
   -0.5489    4.7291    0.8925 C   0  0  2  0  0  0  0  0  0  0  0  0
   -0.4812    5.3582   -0.3886 O   0  0  0  0  0  0  0  0  0  0  0  0
   -1.7676    3.7983    0.9813 C   0  0  2  0  0  0  0  0  0  0  0  0
   -1.7647    2.8164   -0.1189 N   0  0  0  0  0  0  0  0  0  0  0  0
   -3.0738    4.6026    0.9984 C   0  0  1  0  0  0  0  0  0  0  0  0
   -4.1608    3.7282    1.2339 O   0  0  0  0  0  0  0  0  0  0  0  0
   -3.0285    5.6677    2.1044 C   0  0  2  0  0  0  0  0  0  0  0  0
   -4.1691    6.4983    2.0020 O   0  0  0  0  0  0  0  0  0  0  0  0
   -1.7491    6.5240    2.0129 C   0  0  2  0  0  0  0  0  0  0  0  0
   -0.5839    5.7037    1.9320 O   0  0  0  0  0  0  0  0  0  0  0  0
   -1.6751    7.4105    3.2706 C   0  0  0  0  0  0  0  0  0  0  0  0
   -1.0806    8.7065    2.9930 O   0  0  0  0  0  0  0  0  0  0  0  0
    2.4993    7.8680   -2.2185 C   0  0  2  0  0  0  0  0  0  0  0  0
    3.8007    8.5656   -2.2260 N   0  0  0  0  0  0  0  0  0  0  0  0
    1.6320    8.3726   -1.0625 C   0  0  0  0  0  0  0  0  0  0  0  0
    0.3461    7.5607   -0.9619 C   0  0  2  0  0  0  0  0  0  0  0  0
   -0.5222    8.1139    0.0850 N   0  0  0  0  0  0  0  0  0  0  0  0
    0.7195    6.0856   -0.6858 C   0  0  2  0  0  0  0  0  0  0  0  0
    1.4288    5.5444   -1.8856 C   0  0  2  0  0  0  0  0  0  0  0  0
    1.7241    4.1837   -1.6289 O   0  0  0  0  0  0  0  0  0  0  0  0
    2.6948    6.3426   -2.1331 C   0  0  1  0  0  0  0  0  0  0  0  0
    3.3643    5.9264   -3.3085 O   0  0  0  0  0  0  0  0  0  0  0  0
    2.3723    3.8660   -0.4018 C   0  0  1  0  0  0  0  0  0  0  0  0
    1.3440    3.1922    0.5093 C   0  0  2  0  0  0  0  0  0  0  0  0
    1.5801    3.5810    1.8494 O   0  0  0  0  0  0  0  0  0  0  0  0
    1.6121    1.7012    0.2646 C   0  0  2  0  0  0  0  0  0  0  0  0
    1.1337    0.8718    1.3238 O   0  0  0  0  0  0  0  0  0  0  0  0
    3.1373    1.7279    0.1060 C   0  0  2  0  0  0  0  0  0  0  0  0
    3.3989    2.9105   -0.6366 O   0  0  0  0  0  0  0  0  0  0  0  0
    3.7162    0.5266   -0.6504 C   0  0  0  0  0  0  0  0  0  0  0  0
    4.4779   -0.3049    0.1990 O   0  0  0  0  0  0  0  0  0  0  0  0
    1.9172   -0.2952    1.5652 C   0  0  2  0  0  0  0  0  0  0  0  0
    1.0510   -1.5629    1.6198 C   0  0  2  0  0  0  0  0  0  0  0  0
    0.2457   -1.7031    0.3952 N   0  0  0  0  0  0  0  0  0  0  0  0
    0.1692   -1.5781    2.8775 C   0  0  1  0  0  0  0  0  0  0  0  0
   -0.5383   -2.8022    2.9181 O   0  0  0  0  0  0  0  0  0  0  0  0
    1.0792   -1.4500    4.1110 C   0  0  2  0  0  0  0  0  0  0  0  0
    0.3106   -1.4155    5.2995 O   0  0  0  0  0  0  0  0  0  0  0  0
    1.9732   -0.1969    4.0107 C   0  0  1  0  0  0  0  0  0  0  0  0
    2.6736   -0.1522    2.7654 O   0  0  0  0  0  0  0  0  0  0  0  0
    1.2207    1.1119    4.2930 C   0  0  0  0  0  0  0  0  0  0  0  0
    0.9880    1.2962    5.7346 N   0  0  0  0  0  0  0  0  0  0  0  0
  1  3  1  0  0  0  0
  1  2  1  6  0  0  0
  3  4  1  6  0  0  0
  5  6  1  1  0  0  0
  5  3  1  0  0  0  0
  7  9  1  0  0  0  0
  7  5  1  0  0  0  0
  7  8  1  6  0  0  0
  9 10  1  0  0  0  0
  9 11  1  1  0  0  0
 10  1  1  0  0  0  0
 11 12  1  0  0  0  0
 13 14  1  1  0  0  0
 13 21  1  0  0  0  0
 15 13  1  0  0  0  0
 16 15  1  0  0  0  0
 16 18  1  0  0  0  0
 16 17  1  1  0  0  0
 18  2  1  6  0  0  0
 18 19  1  0  0  0  0
 19 21  1  0  0  0  0
 19 20  1  1  0  0  0
 21 22  1  6  0  0  0
 23 20  1  6  0  0  0
 23 29  1  0  0  0  0
 23 24  1  0  0  0  0
 24 26  1  0  0  0  0
 24 25  1  1  0  0  0
 26 27  1  1  0  0  0
 28 26  1  0  0  0  0
 28 30  1  6  0  0  0
 29 28  1  0  0  0  0
 30 31  1  0  0  0  0
 32 27  1  1  0  0  0
 32 40  1  0  0  0  0
 32 33  1  0  0  0  0
 33 35  1  0  0  0  0
 33 34  1  6  0  0  0
 35 37  1  0  0  0  0
 35 36  1  1  0  0  0
 37 38  1  1  0  0  0
 39 37  1  0  0  0  0
 39 41  1  6  0  0  0
 40 39  1  0  0  0  0
 42 41  1  0  0  0  0
M  END
>  <CHROM.1>
-120.16478606,-170.31756636,50.32846608,56.24970821,64.58714728,-55.68836582
-145.90538296,64.28084958,-9.63005761,-50.63250581,107.16523089,-44.47645777
70.34150583,-146.96593171,-129.75915080,-111.61883469,157.98030980,-161.65552047
-167.98759828,77.53005849,76.61302831,-48.60083399,0.63547678,3.40277603
0.97614518,1.68398074,0.61971218,-0.44000282

>  <Name>
lig.pdb

>  <RI>
0

>  <Rbt.Current_Directory>
/home/itssahil/PROJECTS/Mol_Feturizer/New_Systems/rnas/2mxs

>  <Rbt.Executable>
rbdock ($Id: //depot/dev/client3/rdock/2013.1/src/exe/rbdock.cxx#4 $)

>  <Rbt.Library>
libRbt.so (2013.1, Build901 2013/11/27)

>  <Rbt.Parameter_File>
/export/apps/rDock/src/rDock_2013.1_src/data/scripts/dock_solv.prm

>  <Rbt.Receptor>
prm/blind_docking_60.prm

>  <SCORE>
15.793

>  <SCORE.INTER>
-35.954

>  <SCORE.INTER.CONST>
1

>  <SCORE.INTER.POLAR>
-5.93116

>  <SCORE.INTER.ROT>
9

>  <SCORE.INTER.SOLV>
32.6522

>  <SCORE.INTER.VDW>
-24.6829

>  <SCORE.INTER.norm>
-0.856048

>  <SCORE.INTRA>
31.0266

>  <SCORE.INTRA.DIHEDRAL>
15.6257

>  <SCORE.INTRA.DIHEDRAL.0>
30.1357

>  <SCORE.INTRA.POLAR>
-0.517173

>  <SCORE.INTRA.POLAR.0>
-0.631696

>  <SCORE.INTRA.REPUL>
0

>  <SCORE.INTRA.REPUL.0>
0

>  <SCORE.INTRA.SOLV>
2.40344

>  <SCORE.INTRA.SOLV.lig_0>
-55.904

>  <SCORE.INTRA.VDW>
23.7705

>  <SCORE.INTRA.VDW.0>
-8.21197

>  <SCORE.INTRA.norm>
0.738729

>  <SCORE.RESTR>
20.7204

>  <SCORE.RESTR.CAVITY>
20.7204

>  <SCORE.RESTR.norm>
0.493344

>  <SCORE.SYSTEM>
0

>  <SCORE.SYSTEM.CONST>
0

>  <SCORE.SYSTEM.DIHEDRAL>
0

>  <SCORE.SYSTEM.SOLV>
0

>  <SCORE.SYSTEM.norm>
0

>  <SCORE.heavy>
42

>  <SCORE.norm>
0.376025

>  <RMSD>
6.912

$$$$
lig.pdb
 OpenBabel11021811453D
libRbt.so/2013.1/901 2013/11/27
 42 45  0  0  0  0  0  0  0  0999 V2000
   -1.3161    4.6298    1.7560 C   0  0  2  0  0  0  0  0  0  0  0  0
   -1.5542    5.5592    0.6973 O   0  0  0  0  0  0  0  0  0  0  0  0
   -2.4940    3.6548    1.9033 C   0  0  2  0  0  0  0  0  0  0  0  0
   -2.7832    2.9776    0.6258 N   0  0  0  0  0  0  0  0  0  0  0  0
   -3.7387    4.3732    2.4402 C   0  0  1  0  0  0  0  0  0  0  0  0
   -4.7514    3.4221    2.7069 O   0  0  0  0  0  0  0  0  0  0  0  0
   -3.3995    5.1315    3.7323 C   0  0  2  0  0  0  0  0  0  0  0  0
   -4.5128    5.9121    4.1233 O   0  0  0  0  0  0  0  0  0  0  0  0
   -2.1652    6.0376    3.5489 C   0  0  2  0  0  0  0  0  0  0  0  0
   -1.0732    5.3137    2.9828 O   0  0  0  0  0  0  0  0  0  0  0  0
   -1.7645    6.5868    4.9314 C   0  0  0  0  0  0  0  0  0  0  0  0
   -1.1741    7.9112    4.8446 O   0  0  0  0  0  0  0  0  0  0  0  0
    1.1111    7.9657   -1.6767 C   0  0  2  0  0  0  0  0  0  0  0  0
    2.4564    8.4035   -2.0998 N   0  0  0  0  0  0  0  0  0  0  0  0
    0.9089    8.2357   -0.1836 C   0  0  0  0  0  0  0  0  0  0  0  0
   -0.4200    7.6599    0.2910 C   0  0  2  0  0  0  0  0  0  0  0  0
   -0.6498    8.0086    1.6986 N   0  0  0  0  0  0  0  0  0  0  0  0
   -0.3969    6.1296    0.0692 C   0  0  2  0  0  0  0  0  0  0  0  0
   -0.3611    5.8650   -1.4020 C   0  0  2  0  0  0  0  0  0  0  0  0
   -0.3827    4.4611   -1.5836 O   0  0  0  0  0  0  0  0  0  0  0  0
    0.8921    6.4758   -2.0000 C   0  0  1  0  0  0  0  0  0  0  0  0
    0.9363    6.3279   -3.4068 O   0  0  0  0  0  0  0  0  0  0  0  0
    0.8547    3.7623   -1.4974 C   0  0  1  0  0  0  0  0  0  0  0  0
    1.2340    3.6639   -0.0182 C   0  0  2  0  0  0  0  0  0  0  0  0
    2.6389    3.7724    0.1130 O   0  0  0  0  0  0  0  0  0  0  0  0
    0.7041    2.2763    0.3674 C   0  0  2  0  0  0  0  0  0  0  0  0
    1.3365    1.7467    1.5329 O   0  0  0  0  0  0  0  0  0  0  0  0
    0.9967    1.5104   -0.9287 C   0  0  2  0  0  0  0  0  0  0  0  0
    0.6853    2.4303   -1.9657 O   0  0  0  0  0  0  0  0  0  0  0  0
    0.1556    0.2428   -1.1186 C   0  0  0  0  0  0  0  0  0  0  0  0
    0.2135   -0.5946    0.0166 O   0  0  0  0  0  0  0  0  0  0  0  0
    0.5349    0.8355    2.2820 C   0  0  2  0  0  0  0  0  0  0  0  0
    0.5497    1.1633    3.7828 C   0  0  2  0  0  0  0  0  0  0  0  0
    0.1396    2.5573    4.0211 N   0  0  0  0  0  0  0  0  0  0  0  0
    1.9244    0.8680    4.4013 C   0  0  1  0  0  0  0  0  0  0  0  0
    1.8534    1.1053    5.7939 O   0  0  0  0  0  0  0  0  0  0  0  0
    2.2727   -0.6056    4.1313 C   0  0  2  0  0  0  0  0  0  0  0  0
    3.5540   -0.9202    4.6451 O   0  0  0  0  0  0  0  0  0  0  0  0
    2.2041   -0.9225    2.6232 C   0  0  1  0  0  0  0  0  0  0  0  0
    0.9588   -0.5072    2.0574 O   0  0  0  0  0  0  0  0  0  0  0  0
    3.4032   -0.3795    1.8319 C   0  0  0  0  0  0  0  0  0  0  0  0
    3.3474   -0.7956    0.4212 N   0  0  0  0  0  0  0  0  0  0  0  0
  1  3  1  0  0  0  0
  1  2  1  6  0  0  0
  3  4  1  6  0  0  0
  5  6  1  1  0  0  0
  5  3  1  0  0  0  0
  7  9  1  0  0  0  0
  7  5  1  0  0  0  0
  7  8  1  6  0  0  0
  9 10  1  0  0  0  0
  9 11  1  1  0  0  0
 10  1  1  0  0  0  0
 11 12  1  0  0  0  0
 13 14  1  1  0  0  0
 13 21  1  0  0  0  0
 15 13  1  0  0  0  0
 16 15  1  0  0  0  0
 16 18  1  0  0  0  0
 16 17  1  1  0  0  0
 18  2  1  6  0  0  0
 18 19  1  0  0  0  0
 19 21  1  0  0  0  0
 19 20  1  1  0  0  0
 21 22  1  6  0  0  0
 23 20  1  1  0  0  0
 23 29  1  0  0  0  0
 23 24  1  0  0  0  0
 24 26  1  0  0  0  0
 24 25  1  6  0  0  0
 26 27  1  1  0  0  0
 28 26  1  0  0  0  0
 28 30  1  6  0  0  0
 29 28  1  0  0  0  0
 30 31  1  0  0  0  0
 32 27  1  6  0  0  0
 32 40  1  0  0  0  0
 32 33  1  0  0  0  0
 33 35  1  0  0  0  0
 33 34  1  6  0  0  0
 35 37  1  0  0  0  0
 35 36  1  1  0  0  0
 37 38  1  6  0  0  0
 39 37  1  0  0  0  0
 39 41  1  6  0  0  0
 40 39  1  0  0  0  0
 42 41  1  0  0  0  0
M  END
>  <CHROM.1>
-117.94844719,-154.35782762,70.84265102,64.76960406,-51.61515401,71.25954771
-148.53510389,54.21958145,-175.68132410,-83.71920249,75.82566296,-148.98860451
-69.58047656,152.34706274,-132.27288992,-51.45646527,-35.80593793,84.19085433
-70.07478616,38.44843381,175.54007654,-10.89190417,0.07463823,3.62074976
1.36204115,2.17785351,0.88936886,-0.75888902

>  <Name>
lig.pdb

>  <RI>
0

>  <Rbt.Current_Directory>
/home/itssahil/PROJECTS/Mol_Feturizer/New_Systems/rnas/2mxs

>  <Rbt.Executable>
rbdock ($Id: //depot/dev/client3/rdock/2013.1/src/exe/rbdock.cxx#4 $)

>  <Rbt.Library>
libRbt.so (2013.1, Build901 2013/11/27)

>  <Rbt.Parameter_File>
/export/apps/rDock/src/rDock_2013.1_src/data/scripts/dock_solv.prm

>  <Rbt.Receptor>
prm/blind_docking_80.prm

>  <SCORE>
39.7573

>  <SCORE.INTER>
8.89224

>  <SCORE.INTER.CONST>
1

>  <SCORE.INTER.POLAR>
-2.35917

>  <SCORE.INTER.ROT>
9

>  <SCORE.INTER.SOLV>
32.1497

>  <SCORE.INTER.VDW>
-6.52451

>  <SCORE.INTER.norm>
0.21172

>  <SCORE.INTRA>
18.1741

>  <SCORE.INTRA.DIHEDRAL>
11.986

>  <SCORE.INTRA.DIHEDRAL.0>
30.1357

>  <SCORE.INTRA.POLAR>
0.40629

>  <SCORE.INTRA.POLAR.0>
-0.631696

>  <SCORE.INTRA.REPUL>
0

>  <SCORE.INTRA.REPUL.0>
0

>  <SCORE.INTRA.SOLV>
2.51627

>  <SCORE.INTRA.SOLV.lig_0>
-55.904

>  <SCORE.INTRA.VDW>
9.5416

>  <SCORE.INTRA.VDW.0>
-8.21197

>  <SCORE.INTRA.norm>
0.432717

>  <SCORE.RESTR>
12.691

>  <SCORE.RESTR.CAVITY>
12.691

>  <SCORE.RESTR.norm>
0.302167

>  <SCORE.SYSTEM>
0

>  <SCORE.SYSTEM.CONST>
0

>  <SCORE.SYSTEM.DIHEDRAL>
0

>  <SCORE.SYSTEM.SOLV>
0

>  <SCORE.SYSTEM.norm>
0

>  <SCORE.heavy>
42

>  <SCORE.norm>
0.946603

>  <RMSD>
6.936

$$$$
lig.pdb
 OpenBabel11021811453D
libRbt.so/2013.1/901 2013/11/27
 42 45  0  0  0  0  0  0  0  0999 V2000
   -2.2394    4.7728    1.0770 C   0  0  2  0  0  0  0  0  0  0  0  0
   -2.0538    6.0400    0.4436 O   0  0  0  0  0  0  0  0  0  0  0  0
   -3.6075    4.7038    1.7721 C   0  0  2  0  0  0  0  0  0  0  0  0
   -4.6967    5.0167    0.8286 N   0  0  0  0  0  0  0  0  0  0  0  0
   -3.6519    5.6325    2.9923 C   0  0  1  0  0  0  0  0  0  0  0  0
   -4.8643    5.4300    3.6927 O   0  0  0  0  0  0  0  0  0  0  0  0
   -2.4689    5.3396    3.9273 C   0  0  2  0  0  0  0  0  0  0  0  0
   -2.4374    6.3062    4.9599 O   0  0  0  0  0  0  0  0  0  0  0  0
   -1.1291    5.3475    3.1637 C   0  0  2  0  0  0  0  0  0  0  0  0
   -1.1898    4.5146    2.0063 O   0  0  0  0  0  0  0  0  0  0  0  0
   -0.0319    4.8354    4.1162 C   0  0  0  0  0  0  0  0  0  0  0  0
   -0.2470    3.4528    4.5066 O   0  0  0  0  0  0  0  0  0  0  0  0
    1.3643    7.7612   -1.5276 C   0  0  2  0  0  0  0  0  0  0  0  0
    2.8182    7.9244   -1.7269 N   0  0  0  0  0  0  0  0  0  0  0  0
    0.9729    8.1718   -0.1059 C   0  0  0  0  0  0  0  0  0  0  0  0
   -0.4993    7.8740    0.1529 C   0  0  2  0  0  0  0  0  0  0  0  0
   -0.8889    8.3604    1.4823 N   0  0  0  0  0  0  0  0  0  0  0  0
   -0.7236    6.3512    0.0040 C   0  0  2  0  0  0  0  0  0  0  0  0
   -0.4961    5.9766   -1.4255 C   0  0  2  0  0  0  0  0  0  0  0  0
   -0.7469    4.5886   -1.5480 O   0  0  0  0  0  0  0  0  0  0  0  0
    0.9295    6.3129   -1.8204 C   0  0  1  0  0  0  0  0  0  0  0  0
    1.1762    6.0561   -3.1901 O   0  0  0  0  0  0  0  0  0  0  0  0
    0.3753    3.7138   -1.5966 C   0  0  1  0  0  0  0  0  0  0  0  0
    0.6713    3.2533   -0.1678 C   0  0  2  0  0  0  0  0  0  0  0  0
    2.0704    3.1250    0.0023 O   0  0  0  0  0  0  0  0  0  0  0  0
   -0.0645    1.9085   -0.0947 C   0  0  2  0  0  0  0  0  0  0  0  0
    0.4354    1.0597    0.9389 O   0  0  0  0  0  0  0  0  0  0  0  0
    0.1748    1.3968   -1.5206 C   0  0  2  0  0  0  0  0  0  0  0  0
    0.0416    2.5490   -2.3410 O   0  0  0  0  0  0  0  0  0  0  0  0
   -0.8265    0.3342   -1.9881 C   0  0  0  0  0  0  0  0  0  0  0  0
   -2.1590    0.7821   -1.8578 O   0  0  0  0  0  0  0  0  0  0  0  0
    1.5828    1.5642    1.6194 C   0  0  2  0  0  0  0  0  0  0  0  0
    2.7856    0.6174    1.4891 C   0  0  2  0  0  0  0  0  0  0  0  0
    3.0831    0.3360    0.0748 N   0  0  0  0  0  0  0  0  0  0  0  0
    2.5608   -0.6772    2.2849 C   0  0  1  0  0  0  0  0  0  0  0  0
    3.7300   -1.4686    2.1992 O   0  0  0  0  0  0  0  0  0  0  0  0
    2.2786   -0.3045    3.7502 C   0  0  2  0  0  0  0  0  0  0  0  0
    2.0209   -1.4634    4.5215 O   0  0  0  0  0  0  0  0  0  0  0  0
    1.0987    0.6839    3.8518 C   0  0  1  0  0  0  0  0  0  0  0  0
    1.2842    1.8104    2.9917 O   0  0  0  0  0  0  0  0  0  0  0  0
   -0.2707    0.0209    3.6415 C   0  0  0  0  0  0  0  0  0  0  0  0
   -0.8463   -0.4366    4.9165 N   0  0  0  0  0  0  0  0  0  0  0  0
  1  3  1  0  0  0  0
  1  2  1  1  0  0  0
  3  4  1  6  0  0  0
  5  6  1  1  0  0  0
  5  3  1  0  0  0  0
  7  9  1  0  0  0  0
  7  5  1  0  0  0  0
  7  8  1  1  0  0  0
  9 10  1  0  0  0  0
  9 11  1  1  0  0  0
 10  1  1  0  0  0  0
 11 12  1  0  0  0  0
 13 14  1  1  0  0  0
 13 21  1  0  0  0  0
 15 13  1  0  0  0  0
 16 15  1  0  0  0  0
 16 18  1  0  0  0  0
 16 17  1  1  0  0  0
 18  2  1  6  0  0  0
 18 19  1  0  0  0  0
 19 21  1  0  0  0  0
 19 20  1  1  0  0  0
 21 22  1  6  0  0  0
 23 20  1  1  0  0  0
 23 29  1  0  0  0  0
 23 24  1  0  0  0  0
 24 26  1  0  0  0  0
 24 25  1  6  0  0  0
 26 27  1  1  0  0  0
 28 26  1  0  0  0  0
 28 30  1  6  0  0  0
 29 28  1  0  0  0  0
 30 31  1  0  0  0  0
 32 27  1  1  0  0  0
 32 40  1  0  0  0  0
 32 33  1  0  0  0  0
 33 35  1  0  0  0  0
 33 34  1  6  0  0  0
 35 37  1  0  0  0  0
 35 36  1  1  0  0  0
 37 38  1  1  0  0  0
 39 37  1  0  0  0  0
 39 41  1  6  0  0  0
 40 39  1  0  0  0  0
 42 41  1  0  0  0  0
M  END
>  <CHROM.1>
-146.52219837,167.11931079,-9.59072847,-47.94394154,75.87281665,-177.69058097
64.15088077,-169.94782327,-30.87496099,-101.35780524,92.56464748,74.06898924
78.38769143,-5.24605255,-120.17775263,54.55434472,-157.45546280,171.79613093
-68.14935592,-59.10167547,90.84692196,86.07385425,-0.11871160,3.53563450
1.12690734,2.11914566,0.86229815,-0.75350862

>  <Name>
lig.pdb

>  <RI>
0

>  <Rbt.Current_Directory>
/home/itssahil/PROJECTS/Mol_Feturizer/New_Systems/rnas/2mxs

>  <Rbt.Executable>
rbdock ($Id: //depot/dev/client3/rdock/2013.1/src/exe/rbdock.cxx#4 $)

>  <Rbt.Library>
libRbt.so (2013.1, Build901 2013/11/27)

>  <Rbt.Parameter_File>
/export/apps/rDock/src/rDock_2013.1_src/data/scripts/dock_solv.prm

>  <Rbt.Receptor>
prm/blind_docking_60.prm

>  <SCORE>
69.6995

>  <SCORE.INTER>
21.1118

>  <SCORE.INTER.CONST>
1

>  <SCORE.INTER.POLAR>
-1.69108

>  <SCORE.INTER.ROT>
9

>  <SCORE.INTER.SOLV>
31.5314

>  <SCORE.INTER.VDW>
-0.399001

>  <SCORE.INTER.norm>
0.502663

>  <SCORE.INTRA>
23.7358

>  <SCORE.INTRA.DIHEDRAL>
15.769

>  <SCORE.INTRA.DIHEDRAL.0>
30.1357

>  <SCORE.INTRA.POLAR>
0.121798

>  <SCORE.INTRA.POLAR.0>
-0.631696

>  <SCORE.INTRA.REPUL>
0.243812

>  <SCORE.INTRA.REPUL.0>
0

>  <SCORE.INTRA.SOLV>
2.42398

>  <SCORE.INTRA.SOLV.lig_0>
-55.904

>  <SCORE.INTRA.VDW>
13.0061

>  <SCORE.INTRA.VDW.0>
-8.21197

>  <SCORE.INTRA.norm>
0.565138

>  <SCORE.RESTR>
24.8519

>  <SCORE.RESTR.CAVITY>
24.8519

>  <SCORE.RESTR.norm>
0.591713

>  <SCORE.SYSTEM>
0

>  <SCORE.SYSTEM.CONST>
0

>  <SCORE.SYSTEM.DIHEDRAL>
0

>  <SCORE.SYSTEM.SOLV>
0

>  <SCORE.SYSTEM.norm>
0

>  <SCORE.heavy>
42

>  <SCORE.norm>
1.65951

>  <RMSD>
6.942

$$$$
lig.pdb
 OpenBabel11021811453D
libRbt.so/2013.1/901 2013/11/27
 42 45  0  0  0  0  0  0  0  0999 V2000
   -1.9423    4.5299    1.6800 C   0  0  2  0  0  0  0  0  0  0  0  0
   -1.9342    5.7868    1.0007 O   0  0  0  0  0  0  0  0  0  0  0  0
   -3.3776    4.1015    2.0208 C   0  0  2  0  0  0  0  0  0  0  0  0
   -4.2254    4.0851    0.8145 N   0  0  0  0  0  0  0  0  0  0  0  0
   -3.9788    5.0059    3.1044 C   0  0  1  0  0  0  0  0  0  0  0  0
   -5.2360    4.4921    3.5007 O   0  0  0  0  0  0  0  0  0  0  0  0
   -3.0467    5.0671    4.3239 C   0  0  2  0  0  0  0  0  0  0  0  0
   -3.5382    6.0251    5.2416 O   0  0  0  0  0  0  0  0  0  0  0  0
   -1.6040    5.4276    3.9154 C   0  0  2  0  0  0  0  0  0  0  0  0
   -1.1419    4.5877    2.8580 O   0  0  0  0  0  0  0  0  0  0  0  0
   -0.6993    5.2549    5.1503 C   0  0  0  0  0  0  0  0  0  0  0  0
    0.5992    4.7025    4.8051 O   0  0  0  0  0  0  0  0  0  0  0  0
    1.1109    7.6733   -1.3867 C   0  0  2  0  0  0  0  0  0  0  0  0
    2.5175    7.9860   -1.7094 N   0  0  0  0  0  0  0  0  0  0  0  0
    0.7579    8.1906    0.0100 C   0  0  0  0  0  0  0  0  0  0  0  0
   -0.6460    7.7495    0.4069 C   0  0  2  0  0  0  0  0  0  0  0  0
   -1.0125    8.3316    1.7041 N   0  0  0  0  0  0  0  0  0  0  0  0
   -0.6836    6.2038    0.4336 C   0  0  2  0  0  0  0  0  0  0  0  0
   -0.4979    5.7015   -0.9624 C   0  0  2  0  0  0  0  0  0  0  0  0
   -0.5772    4.2885   -0.9215 O   0  0  0  0  0  0  0  0  0  0  0  0
    0.8467    6.1597   -1.4948 C   0  0  1  0  0  0  0  0  0  0  0  0
    1.0402    5.7826   -2.8452 O   0  0  0  0  0  0  0  0  0  0  0  0
    0.5697    3.5481   -1.3255 C   0  0  1  0  0  0  0  0  0  0  0  0
    1.1391    2.8550   -0.0858 C   0  0  2  0  0  0  0  0  0  0  0  0
    2.5515    2.8287   -0.1716 O   0  0  0  0  0  0  0  0  0  0  0  0
    0.5102    1.4577   -0.1699 C   0  0  2  0  0  0  0  0  0  0  0  0
    1.2340    0.4792    0.5767 O   0  0  0  0  0  0  0  0  0  0  0  0
    0.5259    1.2502   -1.6894 C   0  0  2  0  0  0  0  0  0  0  0  0
    0.1815    2.5193   -2.2272 O   0  0  0  0  0  0  0  0  0  0  0  0
   -0.4760    0.2062   -2.1961 C   0  0  0  0  0  0  0  0  0  0  0  0
   -0.3281   -1.0260   -1.5231 O   0  0  0  0  0  0  0  0  0  0  0  0
    0.4469   -0.2587    1.5094 C   0  0  2  0  0  0  0  0  0  0  0  0
   -0.2293    0.6601    2.5383 C   0  0  2  0  0  0  0  0  0  0  0  0
   -1.0279    1.7009    1.8699 N   0  0  0  0  0  0  0  0  0  0  0  0
    0.8027    1.2724    3.4974 C   0  0  1  0  0  0  0  0  0  0  0  0
    0.1171    2.0360    4.4708 O   0  0  0  0  0  0  0  0  0  0  0  0
    1.5793    0.1283    4.1711 C   0  0  2  0  0  0  0  0  0  0  0  0
    2.5761    0.6404    5.0362 O   0  0  0  0  0  0  0  0  0  0  0  0
    2.2083   -0.8077    3.1185 C   0  0  1  0  0  0  0  0  0  0  0  0
    1.2396   -1.2470    2.1635 O   0  0  0  0  0  0  0  0  0  0  0  0
    3.4526   -0.2138    2.4418 C   0  0  0  0  0  0  0  0  0  0  0  0
    3.4853   -0.5325    1.0052 N   0  0  0  0  0  0  0  0  0  0  0  0
  1  3  1  0  0  0  0
  1  2  1  1  0  0  0
  3  4  1  6  0  0  0
  5  6  1  1  0  0  0
  5  3  1  0  0  0  0
  7  9  1  0  0  0  0
  7  5  1  0  0  0  0
  7  8  1  1  0  0  0
  9 10  1  0  0  0  0
  9 11  1  1  0  0  0
 10  1  1  0  0  0  0
 11 12  1  0  0  0  0
 13 14  1  1  0  0  0
 13 21  1  0  0  0  0
 15 13  1  0  0  0  0
 16 15  1  0  0  0  0
 16 18  1  0  0  0  0
 16 17  1  1  0  0  0
 18  2  1  6  0  0  0
 18 19  1  0  0  0  0
 19 21  1  0  0  0  0
 19 20  1  1  0  0  0
 21 22  1  6  0  0  0
 23 20  1  1  0  0  0
 23 29  1  0  0  0  0
 23 24  1  0  0  0  0
 24 26  1  0  0  0  0
 24 25  1  6  0  0  0
 26 27  1  1  0  0  0
 28 26  1  0  0  0  0
 28 30  1  1  0  0  0
 29 28  1  0  0  0  0
 30 31  1  0  0  0  0
 32 27  1  6  0  0  0
 32 40  1  0  0  0  0
 32 33  1  0  0  0  0
 33 35  1  0  0  0  0
 33 34  1  6  0  0  0
 35 37  1  0  0  0  0
 35 36  1  1  0  0  0
 37 38  1  6  0  0  0
 39 37  1  0  0  0  0
 39 41  1  6  0  0  0
 40 39  1  0  0  0  0
 42 41  1  0  0  0  0
M  END
>  <CHROM.1>
-151.53720450,-170.28519261,176.82502148,-173.08215403,65.38758702,61.26006585
141.93115975,-179.24390029,-150.22546493,-118.24755655,111.74919931,70.24480985
-64.45912183,126.62937916,-58.77136273,-53.37032919,76.63551754,155.26060103
-156.30913796,167.52793452,-140.73988199,178.31844502,-0.15547027,3.43984442
1.31391639,2.37191685,0.95229797,-0.72626178

>  <Name>
lig.pdb

>  <RI>
0

>  <Rbt.Current_Directory>
/home/itssahil/PROJECTS/Mol_Feturizer/New_Systems/rnas/2mxs

>  <Rbt.Executable>
rbdock ($Id: //depot/dev/client3/rdock/2013.1/src/exe/rbdock.cxx#4 $)

>  <Rbt.Library>
libRbt.so (2013.1, Build901 2013/11/27)

>  <Rbt.Parameter_File>
/export/apps/rDock/src/rDock_2013.1_src/data/scripts/dock_solv.prm

>  <Rbt.Receptor>
prm/blind_docking_80.prm

>  <SCORE>
25.2237

>  <SCORE.INTER>
-2.18217

>  <SCORE.INTER.CONST>
1

>  <SCORE.INTER.POLAR>
-3.13062

>  <SCORE.INTER.ROT>
9

>  <SCORE.INTER.SOLV>
28.9656

>  <SCORE.INTER.VDW>
-10.2746

>  <SCORE.INTER.norm>
-0.0519564

>  <SCORE.INTRA>
12.0856

>  <SCORE.INTRA.DIHEDRAL>
11.2015

>  <SCORE.INTRA.DIHEDRAL.0>
30.1357

>  <SCORE.INTRA.POLAR>
-0.81932

>  <SCORE.INTRA.POLAR.0>
-0.631696

>  <SCORE.INTRA.REPUL>
0

>  <SCORE.INTRA.REPUL.0>
0

>  <SCORE.INTRA.SOLV>
2.52905

>  <SCORE.INTRA.SOLV.lig_0>
-55.904

>  <SCORE.INTRA.VDW>
8.00601

>  <SCORE.INTRA.VDW.0>
-8.21197

>  <SCORE.INTRA.norm>
0.287753

>  <SCORE.RESTR>
15.3202

>  <SCORE.RESTR.CAVITY>
15.3202

>  <SCORE.RESTR.norm>
0.364768

>  <SCORE.SYSTEM>
0

>  <SCORE.SYSTEM.CONST>
0

>  <SCORE.SYSTEM.DIHEDRAL>
0

>  <SCORE.SYSTEM.SOLV>
0

>  <SCORE.SYSTEM.norm>
0

>  <SCORE.heavy>
42

>  <SCORE.norm>
0.600564

>  <RMSD>
6.947

$$$$
lig.pdb
 OpenBabel11021811453D
libRbt.so/2013.1/901 2013/11/27
 42 45  0  0  0  0  0  0  0  0999 V2000
   -1.5450    4.8485    1.4808 C   0  0  2  0  0  0  0  0  0  0  0  0
   -1.5919    5.9115    0.5272 O   0  0  0  0  0  0  0  0  0  0  0  0
   -2.9427    4.5620    2.0500 C   0  0  2  0  0  0  0  0  0  0  0  0
   -3.9096    4.2948    0.9692 N   0  0  0  0  0  0  0  0  0  0  0  0
   -3.4196    5.7145    2.9432 C   0  0  1  0  0  0  0  0  0  0  0  0
   -4.6354    5.3517    3.5690 O   0  0  0  0  0  0  0  0  0  0  0  0
   -2.3670    6.0254    4.0181 C   0  0  2  0  0  0  0  0  0  0  0  0
   -2.7511    7.1875    4.7276 O   0  0  0  0  0  0  0  0  0  0  0  0
   -0.9696    6.2299    3.3987 C   0  0  2  0  0  0  0  0  0  0  0  0
   -0.6277    5.1510    2.5290 O   0  0  0  0  0  0  0  0  0  0  0  0
    0.0546    6.3179    4.5461 C   0  0  0  0  0  0  0  0  0  0  0  0
    0.0524    7.6233    5.1833 O   0  0  0  0  0  0  0  0  0  0  0  0
    1.4644    7.8416   -1.8103 C   0  0  2  0  0  0  0  0  0  0  0  0
    2.8736    8.1153   -2.1561 N   0  0  0  0  0  0  0  0  0  0  0  0
    1.1797    8.2623   -0.3663 C   0  0  0  0  0  0  0  0  0  0  0  0
   -0.2307    7.8550    0.0433 C   0  0  2  0  0  0  0  0  0  0  0  0
   -0.5289    8.3485    1.3936 N   0  0  0  0  0  0  0  0  0  0  0  0
   -0.3411    6.3152   -0.0486 C   0  0  2  0  0  0  0  0  0  0  0  0
   -0.2226    5.9170   -1.4849 C   0  0  2  0  0  0  0  0  0  0  0  0
   -0.3679    4.5102   -1.5511 O   0  0  0  0  0  0  0  0  0  0  0  0
    1.1252    6.3548   -2.0263 C   0  0  1  0  0  0  0  0  0  0  0  0
    1.2587    6.0774   -3.4077 O   0  0  0  0  0  0  0  0  0  0  0  0
    0.8118    3.7284   -1.7057 C   0  0  1  0  0  0  0  0  0  0  0  0
    1.2814    3.3097   -0.3108 C   0  0  2  0  0  0  0  0  0  0  0  0
    2.6962    3.2968   -0.2775 O   0  0  0  0  0  0  0  0  0  0  0  0
    0.6682    1.9109   -0.1615 C   0  0  2  0  0  0  0  0  0  0  0  0
    1.3334    1.1172    0.8216 O   0  0  0  0  0  0  0  0  0  0  0  0
    0.8091    1.4038   -1.6020 C   0  0  2  0  0  0  0  0  0  0  0  0
    0.5037    2.5319   -2.4097 O   0  0  0  0  0  0  0  0  0  0  0  0
   -0.1429    0.2585   -1.9659 C   0  0  0  0  0  0  0  0  0  0  0  0
    0.2770   -0.4159   -3.1330 O   0  0  0  0  0  0  0  0  0  0  0  0
    0.4647    0.3531    1.6556 C   0  0  2  0  0  0  0  0  0  0  0  0
    0.0467    1.1335    2.9111 C   0  0  2  0  0  0  0  0  0  0  0  0
   -0.5589    2.4261    2.5500 N   0  0  0  0  0  0  0  0  0  0  0  0
    1.2324    1.3165    3.8705 C   0  0  1  0  0  0  0  0  0  0  0  0
    0.7705    1.9623    5.0411 O   0  0  0  0  0  0  0  0  0  0  0  0
    1.7958   -0.0720    4.2177 C   0  0  2  0  0  0  0  0  0  0  0  0
    2.9216    0.0422    5.0686 O   0  0  0  0  0  0  0  0  0  0  0  0
    2.1629   -0.8549    2.9402 C   0  0  1  0  0  0  0  0  0  0  0  0
    1.0745   -0.8850    2.0141 O   0  0  0  0  0  0  0  0  0  0  0  0
    3.4631   -0.3703    2.2819 C   0  0  0  0  0  0  0  0  0  0  0  0
    3.4442   -0.5961    0.8276 N   0  0  0  0  0  0  0  0  0  0  0  0
  1  3  1  0  0  0  0
  1  2  1  6  0  0  0
  3  4  1  6  0  0  0
  5  6  1  1  0  0  0
  5  3  1  0  0  0  0
  7  9  1  0  0  0  0
  7  5  1  0  0  0  0
  7  8  1  6  0  0  0
  9 10  1  0  0  0  0
  9 11  1  1  0  0  0
 10  1  1  0  0  0  0
 11 12  1  0  0  0  0
 13 14  1  1  0  0  0
 13 21  1  0  0  0  0
 15 13  1  0  0  0  0
 16 15  1  0  0  0  0
 16 18  1  0  0  0  0
 16 17  1  1  0  0  0
 18  2  1  6  0  0  0
 18 19  1  0  0  0  0
 19 21  1  0  0  0  0
 19 20  1  1  0  0  0
 21 22  1  6  0  0  0
 23 20  1  1  0  0  0
 23 29  1  0  0  0  0
 23 24  1  0  0  0  0
 24 26  1  0  0  0  0
 24 25  1  6  0  0  0
 26 27  1  1  0  0  0
 28 26  1  0  0  0  0
 28 30  1  6  0  0  0
 29 28  1  0  0  0  0
 30 31  1  0  0  0  0
 32 27  1  1  0  0  0
 32 40  1  0  0  0  0
 32 33  1  0  0  0  0
 33 35  1  0  0  0  0
 33 34  1  6  0  0  0
 35 37  1  0  0  0  0
 35 36  1  1  0  0  0
 37 38  1  1  0  0  0
 39 37  1  0  0  0  0
 39 41  1  6  0  0  0
 40 39  1  0  0  0  0
 42 41  1  0  0  0  0
M  END
>  <CHROM.1>
-131.00339532,177.80439150,9.77662749,-44.90605914,64.58971209,65.63655375
-78.48869960,67.17867322,61.63109534,-102.03143041,93.77448372,-127.49729400
-52.68694498,138.45231345,-89.91632275,-162.98030081,80.03836444,-86.43026708
-60.48859771,96.27642619,-151.11965994,-65.58469936,0.15518235,3.82220673
1.13493871,2.45578233,1.08909202,-0.85361152

>  <Name>
lig.pdb

>  <RI>
0

>  <Rbt.Current_Directory>
/home/itssahil/PROJECTS/Mol_Feturizer/New_Systems/rnas/2mxs

>  <Rbt.Executable>
rbdock ($Id: //depot/dev/client3/rdock/2013.1/src/exe/rbdock.cxx#4 $)

>  <Rbt.Library>
libRbt.so (2013.1, Build901 2013/11/27)

>  <Rbt.Parameter_File>
/export/apps/rDock/src/rDock_2013.1_src/data/scripts/dock_solv.prm

>  <Rbt.Receptor>
prm/blind_docking_60.prm

>  <SCORE>
48.7588

>  <SCORE.INTER>
17.4106

>  <SCORE.INTER.CONST>
1

>  <SCORE.INTER.POLAR>
-3.07837

>  <SCORE.INTER.ROT>
9

>  <SCORE.INTER.SOLV>
34.7654

>  <SCORE.INTER.VDW>
0.679807

>  <SCORE.INTER.norm>
0.414537

>  <SCORE.INTRA>
12.258

>  <SCORE.INTRA.DIHEDRAL>
20.3877

>  <SCORE.INTRA.DIHEDRAL.0>
30.1357

>  <SCORE.INTRA.POLAR>
-0.508636

>  <SCORE.INTRA.POLAR.0>
-0.631696

>  <SCORE.INTRA.REPUL>
0

>  <SCORE.INTRA.REPUL.0>
0

>  <SCORE.INTRA.SOLV>
0.42042

>  <SCORE.INTRA.SOLV.lig_0>
-55.904

>  <SCORE.INTRA.VDW>
3.58328

>  <SCORE.INTRA.VDW.0>
-8.21197

>  <SCORE.INTRA.norm>
0.291856

>  <SCORE.RESTR>
19.0902

>  <SCORE.RESTR.CAVITY>
19.0902

>  <SCORE.RESTR.norm>
0.45453

>  <SCORE.SYSTEM>
0

>  <SCORE.SYSTEM.CONST>
0

>  <SCORE.SYSTEM.DIHEDRAL>
0

>  <SCORE.SYSTEM.SOLV>
0

>  <SCORE.SYSTEM.norm>
0

>  <SCORE.heavy>
42

>  <SCORE.norm>
1.16092

>  <RMSD>
6.958

$$$$
lig.pdb
 OpenBabel11021811453D
libRbt.so/2013.1/901 2013/11/27
 42 45  0  0  0  0  0  0  0  0999 V2000
   -2.1346    4.6066    0.9111 C   0  0  2  0  0  0  0  0  0  0  0  0
   -1.8556    5.7748    0.1373 O   0  0  0  0  0  0  0  0  0  0  0  0
   -3.4990    4.7242    1.6070 C   0  0  2  0  0  0  0  0  0  0  0  0
   -4.5673    5.0115    0.6319 N   0  0  0  0  0  0  0  0  0  0  0  0
   -3.4624    5.7868    2.7130 C   0  0  1  0  0  0  0  0  0  0  0  0
   -4.6819    5.7608    3.4297 O   0  0  0  0  0  0  0  0  0  0  0  0
   -2.2991    5.5111    3.6775 C   0  0  2  0  0  0  0  0  0  0  0  0
   -2.1853    6.5837    4.5929 O   0  0  0  0  0  0  0  0  0  0  0  0
   -0.9682    5.3272    2.9205 C   0  0  2  0  0  0  0  0  0  0  0  0
   -1.1018    4.3750    1.8658 O   0  0  0  0  0  0  0  0  0  0  0  0
    0.0925    4.8431    3.9273 C   0  0  0  0  0  0  0  0  0  0  0  0
    0.1545    3.3937    4.0033 O   0  0  0  0  0  0  0  0  0  0  0  0
    1.8164    7.2245   -1.5790 C   0  0  2  0  0  0  0  0  0  0  0  0
    3.2835    7.3920   -1.5869 N   0  0  0  0  0  0  0  0  0  0  0  0
    1.2148    7.8642   -0.3252 C   0  0  0  0  0  0  0  0  0  0  0  0
   -0.2789    7.5740   -0.2384 C   0  0  2  0  0  0  0  0  0  0  0  0
   -0.8650    8.2724    0.9125 N   0  0  0  0  0  0  0  0  0  0  0  0
   -0.4751    6.0427   -0.1488 C   0  0  2  0  0  0  0  0  0  0  0  0
   -0.0344    5.4325   -1.4407 C   0  0  2  0  0  0  0  0  0  0  0  0
   -0.2610    4.0377   -1.3530 O   0  0  0  0  0  0  0  0  0  0  0  0
    1.4337    5.7356   -1.6735 C   0  0  1  0  0  0  0  0  0  0  0  0
    1.8841    5.2523   -2.9252 O   0  0  0  0  0  0  0  0  0  0  0  0
    0.6484    3.1745   -2.0273 C   0  0  1  0  0  0  0  0  0  0  0  0
    1.5002    2.4729   -0.9674 C   0  0  2  0  0  0  0  0  0  0  0  0
    2.8162    2.3051   -1.4603 O   0  0  0  0  0  0  0  0  0  0  0  0
    0.7603    1.1420   -0.7765 C   0  0  2  0  0  0  0  0  0  0  0  0
    1.5889    0.1240   -0.2144 O   0  0  0  0  0  0  0  0  0  0  0  0
    0.3071    0.8807   -2.2182 C   0  0  2  0  0  0  0  0  0  0  0  0
   -0.0743    2.1578   -2.7101 O   0  0  0  0  0  0  0  0  0  0  0  0
   -0.8835   -0.0770   -2.3437 C   0  0  0  0  0  0  0  0  0  0  0  0
   -1.2996   -0.5574   -1.0830 O   0  0  0  0  0  0  0  0  0  0  0  0
    2.6940    0.6092    0.5454 C   0  0  2  0  0  0  0  0  0  0  0  0
    3.2054   -0.4408    1.5434 C   0  0  2  0  0  0  0  0  0  0  0  0
    3.5396   -1.7000    0.8574 N   0  0  0  0  0  0  0  0  0  0  0  0
    2.1927   -0.6689    2.6757 C   0  0  1  0  0  0  0  0  0  0  0  0
    2.7518   -1.5764    3.6055 O   0  0  0  0  0  0  0  0  0  0  0  0
    1.9114    0.6817    3.3559 C   0  0  2  0  0  0  0  0  0  0  0  0
    0.9481    0.5346    4.3830 O   0  0  0  0  0  0  0  0  0  0  0  0
    1.4460    1.7325    2.3269 C   0  0  1  0  0  0  0  0  0  0  0  0
    2.3472    1.8163    1.2205 O   0  0  0  0  0  0  0  0  0  0  0  0
   -0.0069    1.5351    1.8698 C   0  0  0  0  0  0  0  0  0  0  0  0
   -0.2729    0.1302    1.5207 N   0  0  0  0  0  0  0  0  0  0  0  0
  1  3  1  0  0  0  0
  1  2  1  1  0  0  0
  3  4  1  6  0  0  0
  5  6  1  1  0  0  0
  5  3  1  0  0  0  0
  7  9  1  0  0  0  0
  7  5  1  0  0  0  0
  7  8  1  1  0  0  0
  9 10  1  0  0  0  0
  9 11  1  1  0  0  0
 10  1  1  0  0  0  0
 11 12  1  0  0  0  0
 13 14  1  1  0  0  0
 13 21  1  0  0  0  0
 15 13  1  0  0  0  0
 16 15  1  0  0  0  0
 16 18  1  0  0  0  0
 16 17  1  1  0  0  0
 18  2  1  6  0  0  0
 18 19  1  0  0  0  0
 19 21  1  0  0  0  0
 19 20  1  1  0  0  0
 21 22  1  6  0  0  0
 23 20  1  1  0  0  0
 23 29  1  0  0  0  0
 23 24  1  0  0  0  0
 24 26  1  0  0  0  0
 24 25  1  6  0  0  0
 26 27  1  6  0  0  0
 28 26  1  0  0  0  0
 28 30  1  1  0  0  0
 29 28  1  0  0  0  0
 30 31  1  0  0  0  0
 32 27  1  1  0  0  0
 32 40  1  0  0  0  0
 32 33  1  0  0  0  0
 33 35  1  0  0  0  0
 33 34  1  6  0  0  0
 35 37  1  0  0  0  0
 35 36  1  1  0  0  0
 37 38  1  1  0  0  0
 39 37  1  0  0  0  0
 39 41  1  6  0  0  0
 40 39  1  0  0  0  0
 42 41  1  0  0  0  0
M  END
>  <CHROM.1>
-148.57733568,157.34045820,95.31736123,-176.32746527,52.26440486,-66.58784584
90.83740695,-156.81526192,23.69076838,-146.62377772,108.20512247,78.86286238
62.19409370,24.27492325,157.79738865,-1.65111774,-71.60536077,166.50444220
65.03469811,-46.99805736,-47.10986936,-34.30177302,0.16775125,3.32596422
0.74308305,2.41235425,0.90878446,-0.69022522

>  <Name>
lig.pdb

>  <RI>
0

>  <Rbt.Current_Directory>
/home/itssahil/PROJECTS/Mol_Feturizer/New_Systems/rnas/2mxs

>  <Rbt.Executable>
rbdock ($Id: //depot/dev/client3/rdock/2013.1/src/exe/rbdock.cxx#4 $)

>  <Rbt.Library>
libRbt.so (2013.1, Build901 2013/11/27)

>  <Rbt.Parameter_File>
/export/apps/rDock/src/rDock_2013.1_src/data/scripts/dock_solv.prm

>  <Rbt.Receptor>
prm/blind_docking_60.prm

>  <SCORE>
65.1419

>  <SCORE.INTER>
18.633

>  <SCORE.INTER.CONST>
1

>  <SCORE.INTER.POLAR>
-1.91278

>  <SCORE.INTER.ROT>
9

>  <SCORE.INTER.SOLV>
31.4081

>  <SCORE.INTER.VDW>
-1.27148

>  <SCORE.INTER.norm>
0.443642

>  <SCORE.INTRA>
26.2853

>  <SCORE.INTRA.DIHEDRAL>
13.9674

>  <SCORE.INTRA.DIHEDRAL.0>
30.1357

>  <SCORE.INTRA.POLAR>
-0.610099

>  <SCORE.INTRA.POLAR.0>
-0.631696

>  <SCORE.INTRA.REPUL>
0.0413496

>  <SCORE.INTRA.REPUL.0>
0

>  <SCORE.INTRA.SOLV>
5.12829

>  <SCORE.INTRA.SOLV.lig_0>
-55.904

>  <SCORE.INTRA.VDW>
18.605

>  <SCORE.INTRA.VDW.0>
-8.21197

>  <SCORE.INTRA.norm>
0.62584

>  <SCORE.RESTR>
20.2237

>  <SCORE.RESTR.CAVITY>
20.2237

>  <SCORE.RESTR.norm>
0.481517

>  <SCORE.SYSTEM>
0

>  <SCORE.SYSTEM.CONST>
0

>  <SCORE.SYSTEM.DIHEDRAL>
0

>  <SCORE.SYSTEM.SOLV>
0

>  <SCORE.SYSTEM.norm>
0

>  <SCORE.heavy>
42

>  <SCORE.norm>
1.551

>  <RMSD>
6.968

$$$$
lig.pdb
 OpenBabel11021811453D
libRbt.so/2013.1/901 2013/11/27
 42 45  0  0  0  0  0  0  0  0999 V2000
   -1.6119    4.8471    1.6046 C   0  0  2  0  0  0  0  0  0  0  0  0
   -1.6730    5.8434    0.5822 O   0  0  0  0  0  0  0  0  0  0  0  0
   -2.9944    4.6265    2.2368 C   0  0  2  0  0  0  0  0  0  0  0  0
   -4.0012    4.3047    1.2086 N   0  0  0  0  0  0  0  0  0  0  0  0
   -3.4219    5.8461    3.0637 C   0  0  1  0  0  0  0  0  0  0  0  0
   -4.6220    5.5497    3.7517 O   0  0  0  0  0  0  0  0  0  0  0  0
   -2.3289    6.2094    4.0801 C   0  0  2  0  0  0  0  0  0  0  0  0
   -2.6696    7.4241    4.7202 O   0  0  0  0  0  0  0  0  0  0  0  0
   -0.9497    6.3447    3.4035 C   0  0  2  0  0  0  0  0  0  0  0  0
   -0.6552    5.2029    2.5994 O   0  0  0  0  0  0  0  0  0  0  0  0
    0.1136    6.4913    4.5085 C   0  0  0  0  0  0  0  0  0  0  0  0
    0.6192    5.2051    4.9562 O   0  0  0  0  0  0  0  0  0  0  0  0
    1.3683    7.7279   -1.8115 C   0  0  2  0  0  0  0  0  0  0  0  0
    2.7752    7.9897   -2.1755 N   0  0  0  0  0  0  0  0  0  0  0  0
    1.1010    8.1682   -0.3700 C   0  0  0  0  0  0  0  0  0  0  0  0
   -0.3070    7.7735    0.0596 C   0  0  2  0  0  0  0  0  0  0  0  0
   -0.5883    8.2855    1.4066 N   0  0  0  0  0  0  0  0  0  0  0  0
   -0.4262    6.2333   -0.0118 C   0  0  2  0  0  0  0  0  0  0  0  0
   -0.3250    5.8164   -1.4441 C   0  0  2  0  0  0  0  0  0  0  0  0
   -0.4782    4.4097   -1.4910 O   0  0  0  0  0  0  0  0  0  0  0  0
    1.0193    6.2403   -2.0051 C   0  0  1  0  0  0  0  0  0  0  0  0
    1.1367    5.9448   -3.3842 O   0  0  0  0  0  0  0  0  0  0  0  0
    0.6878    3.6227   -1.7103 C   0  0  1  0  0  0  0  0  0  0  0  0
    1.0841    2.9916   -0.3740 C   0  0  2  0  0  0  0  0  0  0  0  0
    2.4952    2.9304   -0.2854 O   0  0  0  0  0  0  0  0  0  0  0  0
    0.4307    1.6054   -0.4563 C   0  0  2  0  0  0  0  0  0  0  0  0
    1.0315    0.6572    0.4261 O   0  0  0  0  0  0  0  0  0  0  0  0
    0.6235    1.3090   -1.9487 C   0  0  2  0  0  0  0  0  0  0  0  0
    0.3822    2.5514   -2.5941 O   0  0  0  0  0  0  0  0  0  0  0  0
   -0.3390    0.2585   -2.5149 C   0  0  0  0  0  0  0  0  0  0  0  0
    0.3173   -0.6255   -3.3986 O   0  0  0  0  0  0  0  0  0  0  0  0
    2.1501    1.1529    1.1590 C   0  0  2  0  0  0  0  0  0  0  0  0
    2.9548    0.0174    1.8094 C   0  0  2  0  0  0  0  0  0  0  0  0
    3.3710   -0.9752    0.8046 N   0  0  0  0  0  0  0  0  0  0  0  0
    2.1653   -0.6372    2.9529 C   0  0  1  0  0  0  0  0  0  0  0  0
    2.9852   -1.6123    3.5674 O   0  0  0  0  0  0  0  0  0  0  0  0
    1.7862    0.4537    3.9688 C   0  0  2  0  0  0  0  0  0  0  0  0
    1.0172   -0.0908    5.0256 O   0  0  0  0  0  0  0  0  0  0  0  0
    1.0217    1.6053    3.2839 C   0  0  1  0  0  0  0  0  0  0  0  0
    1.7279    2.0957    2.1419 O   0  0  0  0  0  0  0  0  0  0  0  0
   -0.4358    1.2547    2.9502 C   0  0  0  0  0  0  0  0  0  0  0  0
   -1.1917    0.8959    4.1611 N   0  0  0  0  0  0  0  0  0  0  0  0
  1  3  1  0  0  0  0
  1  2  1  6  0  0  0
  3  4  1  6  0  0  0
  5  6  1  1  0  0  0
  5  3  1  0  0  0  0
  7  9  1  0  0  0  0
  7  5  1  0  0  0  0
  7  8  1  6  0  0  0
  9 10  1  0  0  0  0
  9 11  1  1  0  0  0
 10  1  1  0  0  0  0
 11 12  1  0  0  0  0
 13 14  1  1  0  0  0
 13 21  1  0  0  0  0
 15 13  1  0  0  0  0
 16 15  1  0  0  0  0
 16 18  1  0  0  0  0
 16 17  1  1  0  0  0
 18  2  1  6  0  0  0
 18 19  1  0  0  0  0
 19 21  1  0  0  0  0
 19 20  1  1  0  0  0
 21 22  1  6  0  0  0
 23 20  1  1  0  0  0
 23 29  1  0  0  0  0
 23 24  1  0  0  0  0
 24 26  1  0  0  0  0
 24 25  1  6  0  0  0
 26 27  1  1  0  0  0
 28 26  1  0  0  0  0
 28 30  1  6  0  0  0
 29 28  1  0  0  0  0
 30 31  1  0  0  0  0
 32 27  1  1  0  0  0
 32 40  1  0  0  0  0
 32 33  1  0  0  0  0
 33 35  1  0  0  0  0
 33 34  1  6  0  0  0
 35 37  1  0  0  0  0
 35 36  1  1  0  0  0
 37 38  1  1  0  0  0
 39 37  1  0  0  0  0
 39 41  1  6  0  0  0
 40 39  1  0  0  0  0
 42 41  1  0  0  0  0
M  END
>  <CHROM.1>
-127.46129309,174.67300949,-41.41252495,-175.83665839,-179.56082113,-178.29770063
88.77400411,-174.47326784,-53.32142528,-104.88951491,104.47569627,62.93138356
73.10186172,-2.84234847,-165.78185268,-138.73330309,-172.46779287,-168.35415010
-60.07054992,64.41458608,59.24889484,-152.04308654,0.12878903,3.68760264
1.08095236,2.46906390,1.07268495,-0.84076561

>  <Name>
lig.pdb

>  <RI>
0

>  <Rbt.Current_Directory>
/home/itssahil/PROJECTS/Mol_Feturizer/New_Systems/rnas/2mxs

>  <Rbt.Executable>
rbdock ($Id: //depot/dev/client3/rdock/2013.1/src/exe/rbdock.cxx#4 $)

>  <Rbt.Library>
libRbt.so (2013.1, Build901 2013/11/27)

>  <Rbt.Parameter_File>
/export/apps/rDock/src/rDock_2013.1_src/data/scripts/dock_solv.prm

>  <Rbt.Receptor>
prm/blind_docking_60.prm

>  <SCORE>
101.943

>  <SCORE.INTER>
60.5123

>  <SCORE.INTER.CONST>
1

>  <SCORE.INTER.POLAR>
-3.12199

>  <SCORE.INTER.ROT>
9

>  <SCORE.INTER.SOLV>
35.351

>  <SCORE.INTER.VDW>
29.3645

>  <SCORE.INTER.norm>
1.44077

>  <SCORE.INTRA>
20.7133

>  <SCORE.INTRA.DIHEDRAL>
8.47066

>  <SCORE.INTRA.DIHEDRAL.0>
30.1357

>  <SCORE.INTRA.POLAR>
-0.305354

>  <SCORE.INTRA.POLAR.0>
-0.631696

>  <SCORE.INTRA.REPUL>
0.18943

>  <SCORE.INTRA.REPUL.0>
0

>  <SCORE.INTRA.SOLV>
0.629401

>  <SCORE.INTRA.SOLV.lig_0>
-55.904

>  <SCORE.INTRA.VDW>
16.2543

>  <SCORE.INTRA.VDW.0>
-8.21197

>  <SCORE.INTRA.norm>
0.493173

>  <SCORE.RESTR>
20.7172

>  <SCORE.RESTR.CAVITY>
20.7172

>  <SCORE.RESTR.norm>
0.493266

>  <SCORE.SYSTEM>
0

>  <SCORE.SYSTEM.CONST>
0

>  <SCORE.SYSTEM.DIHEDRAL>
0

>  <SCORE.SYSTEM.SOLV>
0

>  <SCORE.SYSTEM.norm>
0

>  <SCORE.heavy>
42

>  <SCORE.norm>
2.42721

>  <RMSD>
6.974

$$$$
lig.pdb
 OpenBabel11021811453D
libRbt.so/2013.1/901 2013/11/27
 42 45  0  0  0  0  0  0  0  0999 V2000
   -2.0672    4.6530    0.4347 C   0  0  2  0  0  0  0  0  0  0  0  0
   -1.8173    5.8069   -0.3700 O   0  0  0  0  0  0  0  0  0  0  0  0
   -3.3654    4.8177    1.2392 C   0  0  2  0  0  0  0  0  0  0  0  0
   -4.5011    5.1318    0.3526 N   0  0  0  0  0  0  0  0  0  0  0  0
   -3.2053    5.8858    2.3288 C   0  0  1  0  0  0  0  0  0  0  0  0
   -4.3618    5.9025    3.1436 O   0  0  0  0  0  0  0  0  0  0  0  0
   -1.9754    5.5802    3.1969 C   0  0  2  0  0  0  0  0  0  0  0  0
   -1.7538    6.6547    4.0901 O   0  0  0  0  0  0  0  0  0  0  0  0
   -0.7177    5.3500    2.3348 C   0  0  2  0  0  0  0  0  0  0  0  0
   -0.9667    4.3955    1.3033 O   0  0  0  0  0  0  0  0  0  0  0  0
    0.4072    4.8396    3.2554 C   0  0  0  0  0  0  0  0  0  0  0  0
    0.8297    3.4934    2.9094 O   0  0  0  0  0  0  0  0  0  0  0  0
    1.8231    7.7634   -1.5744 C   0  0  2  0  0  0  0  0  0  0  0  0
    3.2803    7.9872   -1.4920 N   0  0  0  0  0  0  0  0  0  0  0  0
    1.1610    8.0689   -0.2285 C   0  0  0  0  0  0  0  0  0  0  0  0
   -0.3190    7.7064   -0.2637 C   0  0  2  0  0  0  0  0  0  0  0  0
   -0.9658    8.0935    0.9962 N   0  0  0  0  0  0  0  0  0  0  0  0
   -0.4445    6.1896   -0.5377 C   0  0  2  0  0  0  0  0  0  0  0  0
    0.0565    5.9151   -1.9195 C   0  0  2  0  0  0  0  0  0  0  0  0
   -0.1058    4.5302   -2.1649 O   0  0  0  0  0  0  0  0  0  0  0  0
    1.5139    6.3231   -2.0243 C   0  0  1  0  0  0  0  0  0  0  0  0
    2.0176    6.1629   -3.3372 O   0  0  0  0  0  0  0  0  0  0  0  0
    0.9449    3.6579   -1.7623 C   0  0  1  0  0  0  0  0  0  0  0  0
    0.8297    3.4539   -0.2502 C   0  0  2  0  0  0  0  0  0  0  0  0
    2.1260    3.3543    0.3088 O   0  0  0  0  0  0  0  0  0  0  0  0
    0.0355    2.1444   -0.1527 C   0  0  2  0  0  0  0  0  0  0  0  0
    0.2020    1.4886    1.1046 O   0  0  0  0  0  0  0  0  0  0  0  0
    0.6177    1.3904   -1.3547 C   0  0  2  0  0  0  0  0  0  0  0  0
    0.7630    2.3815   -2.3622 O   0  0  0  0  0  0  0  0  0  0  0  0
   -0.2755    0.2646   -1.8888 C   0  0  0  0  0  0  0  0  0  0  0  0
    0.2687   -0.3240   -3.0509 O   0  0  0  0  0  0  0  0  0  0  0  0
    0.1544    0.0645    1.0432 C   0  0  2  0  0  0  0  0  0  0  0  0
    0.2459   -0.5703    2.4391 C   0  0  2  0  0  0  0  0  0  0  0  0
   -0.7995   -0.0380    3.3289 N   0  0  0  0  0  0  0  0  0  0  0  0
    1.6463   -0.3836    3.0423 C   0  0  1  0  0  0  0  0  0  0  0  0
    1.6970   -1.0597    4.2837 O   0  0  0  0  0  0  0  0  0  0  0  0
    2.6780   -0.9810    2.0703 C   0  0  2  0  0  0  0  0  0  0  0  0
    3.9935   -0.7965    2.5600 O   0  0  0  0  0  0  0  0  0  0  0  0
    2.5347   -0.3635    0.6640 C   0  0  1  0  0  0  0  0  0  0  0  0
    1.1861   -0.4358    0.1957 O   0  0  0  0  0  0  0  0  0  0  0  0
    3.1012    1.0605    0.5639 C   0  0  0  0  0  0  0  0  0  0  0  0
    3.7276    1.2974   -0.7468 N   0  0  0  0  0  0  0  0  0  0  0  0
  1  3  1  0  0  0  0
  1  2  1  1  0  0  0
  3  4  1  6  0  0  0
  5  6  1  1  0  0  0
  5  3  1  0  0  0  0
  7  9  1  0  0  0  0
  7  5  1  0  0  0  0
  7  8  1  1  0  0  0
  9 10  1  0  0  0  0
  9 11  1  1  0  0  0
 10  1  1  0  0  0  0
 11 12  1  0  0  0  0
 13 14  1  1  0  0  0
 13 21  1  0  0  0  0
 15 13  1  0  0  0  0
 16 15  1  0  0  0  0
 16 18  1  0  0  0  0
 16 17  1  1  0  0  0
 18  2  1  6  0  0  0
 18 19  1  0  0  0  0
 19 21  1  0  0  0  0
 19 20  1  1  0  0  0
 21 22  1  6  0  0  0
 23 20  1  6  0  0  0
 23 29  1  0  0  0  0
 23 24  1  0  0  0  0
 24 26  1  0  0  0  0
 24 25  1  6  0  0  0
 26 27  1  1  0  0  0
 28 26  1  0  0  0  0
 28 30  1  6  0  0  0
 29 28  1  0  0  0  0
 30 31  1  0  0  0  0
 32 27  1  1  0  0  0
 32 40  1  0  0  0  0
 32 33  1  0  0  0  0
 33 35  1  0  0  0  0
 33 34  1  1  0  0  0
 35 37  1  0  0  0  0
 35 36  1  1  0  0  0
 37 38  1  1  0  0  0
 39 37  1  0  0  0  0
 39 41  1  1  0  0  0
 40 39  1  0  0  0  0
 42 41  1  0  0  0  0
M  END
>  <CHROM.1>
-131.70761941,144.67066147,-136.28682785,-87.03781176,-179.62805144,-46.87199798
116.40232003,56.75879167,-139.78625404,-87.15296935,78.04128159,-38.74655837
66.98550747,-147.29046934,-176.19113658,175.67444220,-147.13080776,34.09696728
-59.89776046,-48.98939242,144.07457731,153.72986179,0.24991041,3.49198243
0.53243316,2.11224724,0.82373877,-0.55277163

>  <Name>
lig.pdb

>  <RI>
0

>  <Rbt.Current_Directory>
/home/itssahil/PROJECTS/Mol_Feturizer/New_Systems/rnas/2mxs

>  <Rbt.Executable>
rbdock ($Id: //depot/dev/client3/rdock/2013.1/src/exe/rbdock.cxx#4 $)

>  <Rbt.Library>
libRbt.so (2013.1, Build901 2013/11/27)

>  <Rbt.Parameter_File>
/export/apps/rDock/src/rDock_2013.1_src/data/scripts/dock_solv.prm

>  <Rbt.Receptor>
prm/blind_docking_60.prm

>  <SCORE>
68.187

>  <SCORE.INTER>
26.6202

>  <SCORE.INTER.CONST>
1

>  <SCORE.INTER.POLAR>
-3.98633

>  <SCORE.INTER.ROT>
9

>  <SCORE.INTER.SOLV>
34.0993

>  <SCORE.INTER.VDW>
10.0681

>  <SCORE.INTER.norm>
0.633814

>  <SCORE.INTRA>
25.1134

>  <SCORE.INTRA.DIHEDRAL>
18.2638

>  <SCORE.INTRA.DIHEDRAL.0>
30.1357

>  <SCORE.INTRA.POLAR>
-0.0611718

>  <SCORE.INTRA.POLAR.0>
-0.631696

>  <SCORE.INTRA.REPUL>
0.0750741

>  <SCORE.INTRA.REPUL.0>
0

>  <SCORE.INTRA.SOLV>
4.27163

>  <SCORE.INTRA.SOLV.lig_0>
-55.904

>  <SCORE.INTRA.VDW>
13.6782

>  <SCORE.INTRA.VDW.0>
-8.21197

>  <SCORE.INTRA.norm>
0.597937

>  <SCORE.RESTR>
16.4534

>  <SCORE.RESTR.CAVITY>
16.4534

>  <SCORE.RESTR.norm>
0.391748

>  <SCORE.SYSTEM>
0

>  <SCORE.SYSTEM.CONST>
0

>  <SCORE.SYSTEM.DIHEDRAL>
0

>  <SCORE.SYSTEM.SOLV>
0

>  <SCORE.SYSTEM.norm>
0

>  <SCORE.heavy>
42

>  <SCORE.norm>
1.6235

>  <RMSD>
6.982

$$$$
lig.pdb
 OpenBabel11021811453D
libRbt.so/2013.1/901 2013/11/27
 42 45  0  0  0  0  0  0  0  0999 V2000
    1.4480   -0.8260    4.0487 C   0  0  2  0  0  0  0  0  0  0  0  0
    1.1362   -0.0231    2.9087 O   0  0  0  0  0  0  0  0  0  0  0  0
    0.1725   -1.4211    4.6641 C   0  0  2  0  0  0  0  0  0  0  0  0
   -0.6031   -2.1671    3.6560 N   0  0  0  0  0  0  0  0  0  0  0  0
   -0.6828   -0.3292    5.3198 C   0  0  1  0  0  0  0  0  0  0  0  0
   -1.7654   -0.9290    6.0052 O   0  0  0  0  0  0  0  0  0  0  0  0
    0.1614    0.4830    6.3136 C   0  0  2  0  0  0  0  0  0  0  0  0
   -0.5978    1.5787    6.7872 O   0  0  0  0  0  0  0  0  0  0  0  0
    1.4644    0.9922    5.6647 C   0  0  2  0  0  0  0  0  0  0  0  0
    2.1676   -0.0683    5.0181 O   0  0  0  0  0  0  0  0  0  0  0  0
    2.3450    1.6009    6.7725 C   0  0  0  0  0  0  0  0  0  0  0  0
    3.6120    2.0911    6.2578 O   0  0  0  0  0  0  0  0  0  0  0  0
    3.9718    0.7052   -0.2473 C   0  0  2  0  0  0  0  0  0  0  0  0
    4.8258    0.2669   -1.3693 N   0  0  0  0  0  0  0  0  0  0  0  0
    4.3807   -0.0093    1.0432 C   0  0  0  0  0  0  0  0  0  0  0  0
    3.4164    0.3303    2.1735 C   0  0  2  0  0  0  0  0  0  0  0  0
    3.8718   -0.2799    3.4290 N   0  0  0  0  0  0  0  0  0  0  0  0
    2.0034   -0.1539    1.7728 C   0  0  2  0  0  0  0  0  0  0  0  0
    1.5378    0.6580    0.6068 C   0  0  2  0  0  0  0  0  0  0  0  0
    0.2283    0.2279    0.2831 O   0  0  0  0  0  0  0  0  0  0  0  0
    2.4840    0.4611   -0.5625 C   0  0  1  0  0  0  0  0  0  0  0  0
    2.1378    1.2729   -1.6689 O   0  0  0  0  0  0  0  0  0  0  0  0
   -0.6992    1.2090   -0.1687 C   0  0  1  0  0  0  0  0  0  0  0  0
   -1.2190    1.9611    1.0583 C   0  0  2  0  0  0  0  0  0  0  0  0
   -2.5818    2.2893    0.8635 O   0  0  0  0  0  0  0  0  0  0  0  0
   -0.3080    3.1954    1.1001 C   0  0  2  0  0  0  0  0  0  0  0  0
   -0.8753    4.2770    1.8397 O   0  0  0  0  0  0  0  0  0  0  0  0
   -0.1461    3.4571   -0.4023 C   0  0  2  0  0  0  0  0  0  0  0  0
   -0.0273    2.1645   -0.9797 O   0  0  0  0  0  0  0  0  0  0  0  0
    1.0919    4.2829   -0.7711 C   0  0  0  0  0  0  0  0  0  0  0  0
    1.3785    4.2024   -2.1512 O   0  0  0  0  0  0  0  0  0  0  0  0
    0.0781    5.1409    2.4552 C   0  0  2  0  0  0  0  0  0  0  0  0
   -0.5853    6.1088    3.4466 C   0  0  2  0  0  0  0  0  0  0  0  0
   -1.3704    5.3750    4.4532 N   0  0  0  0  0  0  0  0  0  0  0  0
   -1.4440    7.1507    2.7139 C   0  0  1  0  0  0  0  0  0  0  0  0
   -1.9573    8.0626    3.6656 O   0  0  0  0  0  0  0  0  0  0  0  0
   -0.5536    7.8879    1.6993 C   0  0  2  0  0  0  0  0  0  0  0  0
   -1.3085    8.8333    0.9639 O   0  0  0  0  0  0  0  0  0  0  0  0
    0.1391    6.8924    0.7460 C   0  0  1  0  0  0  0  0  0  0  0  0
    0.8141    5.8599    1.4681 O   0  0  0  0  0  0  0  0  0  0  0  0
   -0.8007    6.3222   -0.3266 C   0  0  0  0  0  0  0  0  0  0  0  0
   -1.9963    5.7125    0.2775 N   0  0  0  0  0  0  0  0  0  0  0  0
  1  3  1  0  0  0  0
  1  2  1  6  0  0  0
  3  4  1  6  0  0  0
  5  6  1  1  0  0  0
  5  3  1  0  0  0  0
  7  9  1  0  0  0  0
  7  5  1  0  0  0  0
  7  8  1  6  0  0  0
  9 10  1  0  0  0  0
  9 11  1  1  0  0  0
 10  1  1  0  0  0  0
 11 12  1  0  0  0  0
 13 14  1  6  0  0  0
 13 21  1  0  0  0  0
 15 13  1  0  0  0  0
 16 15  1  0  0  0  0
 16 18  1  0  0  0  0
 16 17  1  1  0  0  0
 18  2  1  1  0  0  0
 18 19  1  0  0  0  0
 19 21  1  0  0  0  0
 19 20  1  6  0  0  0
 21 22  1  6  0  0  0
 23 20  1  1  0  0  0
 23 29  1  0  0  0  0
 23 24  1  0  0  0  0
 24 26  1  0  0  0  0
 24 25  1  6  0  0  0
 26 27  1  1  0  0  0
 28 26  1  0  0  0  0
 28 30  1  1  0  0  0
 29 28  1  0  0  0  0
 30 31  1  0  0  0  0
 32 27  1  6  0  0  0
 32 40  1  0  0  0  0
 32 33  1  0  0  0  0
 33 35  1  0  0  0  0
 33 34  1  1  0  0  0
 35 37  1  0  0  0  0
 35 36  1  1  0  0  0
 37 38  1  6  0  0  0
 39 37  1  0  0  0  0
 39 41  1  6  0  0  0
 40 39  1  0  0  0  0
 42 41  1  0  0  0  0
M  END
>  <CHROM.1>
-63.87949316,-138.32618162,-57.94489250,68.37890499,68.35068576,-176.07173326
179.05528699,-12.71644359,-77.14350223,144.18277404,-79.00599424,-63.51927235
59.86155890,151.18855417,-168.96104170,164.83077982,68.81591409,-49.39535695
68.73353890,-77.61897282,-54.58088380,178.92239933,0.58066215,2.50914271
2.17019821,0.87509356,-1.03665469,2.13709477

>  <Name>
lig.pdb

>  <RI>
0

>  <Rbt.Current_Directory>
/home/itssahil/PROJECTS/Mol_Feturizer/New_Systems/rnas/2mxs

>  <Rbt.Executable>
rbdock ($Id: //depot/dev/client3/rdock/2013.1/src/exe/rbdock.cxx#4 $)

>  <Rbt.Library>
libRbt.so (2013.1, Build901 2013/11/27)

>  <Rbt.Parameter_File>
/export/apps/rDock/src/rDock_2013.1_src/data/scripts/dock_solv.prm

>  <Rbt.Receptor>
prm/blind_docking_60.prm

>  <SCORE>
111.597

>  <SCORE.INTER>
62.2857

>  <SCORE.INTER.CONST>
1

>  <SCORE.INTER.POLAR>
-4.16304

>  <SCORE.INTER.ROT>
9

>  <SCORE.INTER.SOLV>
26.2771

>  <SCORE.INTER.VDW>
37.0416

>  <SCORE.INTER.norm>
1.48299

>  <SCORE.INTRA>
14.9849

>  <SCORE.INTRA.DIHEDRAL>
-5.41552

>  <SCORE.INTRA.DIHEDRAL.0>
30.1357

>  <SCORE.INTRA.POLAR>
-0.539842

>  <SCORE.INTRA.POLAR.0>
-0.631696

>  <SCORE.INTRA.REPUL>
0

>  <SCORE.INTRA.REPUL.0>
0

>  <SCORE.INTRA.SOLV>
2.67017

>  <SCORE.INTRA.SOLV.lig_0>
-55.904

>  <SCORE.INTRA.VDW>
18.1931

>  <SCORE.INTRA.VDW.0>
-8.21197

>  <SCORE.INTRA.norm>
0.356784

>  <SCORE.RESTR>
34.3264

>  <SCORE.RESTR.CAVITY>
34.3264

>  <SCORE.RESTR.norm>
0.817295

>  <SCORE.SYSTEM>
0

>  <SCORE.SYSTEM.CONST>
0

>  <SCORE.SYSTEM.DIHEDRAL>
0

>  <SCORE.SYSTEM.SOLV>
0

>  <SCORE.SYSTEM.norm>
0

>  <SCORE.heavy>
42

>  <SCORE.norm>
2.65707

>  <RMSD>
7.003

$$$$
lig.pdb
 OpenBabel11021811453D
libRbt.so/2013.1/901 2013/11/27
 42 45  0  0  0  0  0  0  0  0999 V2000
   -1.2677    4.5052    1.8891 C   0  0  2  0  0  0  0  0  0  0  0  0
   -1.4425    5.4412    0.8238 O   0  0  0  0  0  0  0  0  0  0  0  0
   -2.4642    3.5457    1.9763 C   0  0  2  0  0  0  0  0  0  0  0  0
   -2.7011    2.8766    0.6838 N   0  0  0  0  0  0  0  0  0  0  0  0
   -3.7234    4.2792    2.4558 C   0  0  1  0  0  0  0  0  0  0  0  0
   -4.7604    3.3410    2.6703 O   0  0  0  0  0  0  0  0  0  0  0  0
   -3.4364    5.0287    3.7656 C   0  0  2  0  0  0  0  0  0  0  0  0
   -4.5565    5.8230    4.1060 O   0  0  0  0  0  0  0  0  0  0  0  0
   -2.1826    5.9186    3.6449 C   0  0  2  0  0  0  0  0  0  0  0  0
   -1.0746    5.1817    3.1288 O   0  0  0  0  0  0  0  0  0  0  0  0
   -1.8412    6.4578    5.0470 C   0  0  0  0  0  0  0  0  0  0  0  0
   -0.8018    7.4718    5.0058 O   0  0  0  0  0  0  0  0  0  0  0  0
    1.3606    7.4959   -1.7161 C   0  0  2  0  0  0  0  0  0  0  0  0
    2.7290    7.8761   -2.1202 N   0  0  0  0  0  0  0  0  0  0  0  0
    1.0734    7.9773   -0.2918 C   0  0  0  0  0  0  0  0  0  0  0  0
   -0.2820    7.4680    0.1841 C   0  0  2  0  0  0  0  0  0  0  0  0
   -0.5916    8.0148    1.5110 N   0  0  0  0  0  0  0  0  0  0  0  0
   -0.2496    5.9219    0.1873 C   0  0  2  0  0  0  0  0  0  0  0  0
   -0.1298    5.4479   -1.2257 C   0  0  2  0  0  0  0  0  0  0  0  0
   -0.1441    4.0324   -1.2036 O   0  0  0  0  0  0  0  0  0  0  0  0
    1.1572    5.9736   -1.8328 C   0  0  1  0  0  0  0  0  0  0  0  0
    1.2819    5.6244   -3.1987 O   0  0  0  0  0  0  0  0  0  0  0  0
    1.1087    3.3563   -1.2212 C   0  0  1  0  0  0  0  0  0  0  0  0
    1.4604    2.9859    0.2211 C   0  0  2  0  0  0  0  0  0  0  0  0
    2.8592    3.0972    0.4051 O   0  0  0  0  0  0  0  0  0  0  0  0
    0.9584    1.5393    0.3229 C   0  0  2  0  0  0  0  0  0  0  0  0
    1.5805    0.8109    1.3817 O   0  0  0  0  0  0  0  0  0  0  0  0
    1.2965    1.0409   -1.0875 C   0  0  2  0  0  0  0  0  0  0  0  0
    0.9827    2.1347   -1.9381 O   0  0  0  0  0  0  0  0  0  0  0  0
    0.4919   -0.1849   -1.5354 C   0  0  0  0  0  0  0  0  0  0  0  0
    0.4016   -0.2621   -2.9422 O   0  0  0  0  0  0  0  0  0  0  0  0
    1.3531    1.3451    2.6844 C   0  0  2  0  0  0  0  0  0  0  0  0
    1.8368    0.3893    3.7856 C   0  0  2  0  0  0  0  0  0  0  0  0
    3.2532    0.0369    3.5917 N   0  0  0  0  0  0  0  0  0  0  0  0
    0.9509   -0.8633    3.8609 C   0  0  1  0  0  0  0  0  0  0  0  0
    1.3889   -1.6616    4.9433 O   0  0  0  0  0  0  0  0  0  0  0  0
   -0.5039   -0.4173    4.0852 C   0  0  2  0  0  0  0  0  0  0  0  0
   -1.3715   -1.5356    4.1194 O   0  0  0  0  0  0  0  0  0  0  0  0
   -0.9510    0.5786    2.9953 C   0  0  1  0  0  0  0  0  0  0  0  0
   -0.0259    1.6603    2.8636 O   0  0  0  0  0  0  0  0  0  0  0  0
   -1.2481   -0.0898    1.6448 C   0  0  0  0  0  0  0  0  0  0  0  0
   -2.3714   -1.0350    1.7499 N   0  0  0  0  0  0  0  0  0  0  0  0
  1  3  1  0  0  0  0
  1  2  1  6  0  0  0
  3  4  1  6  0  0  0
  5  6  1  1  0  0  0
  5  3  1  0  0  0  0
  7  9  1  0  0  0  0
  7  5  1  0  0  0  0
  7  8  1  6  0  0  0
  9 10  1  0  0  0  0
  9 11  1  1  0  0  0
 10  1  1  0  0  0  0
 11 12  1  0  0  0  0
 13 14  1  1  0  0  0
 13 21  1  0  0  0  0
 15 13  1  0  0  0  0
 16 15  1  0  0  0  0
 16 18  1  0  0  0  0
 16 17  1  1  0  0  0
 18  2  1  6  0  0  0
 18 19  1  0  0  0  0
 19 21  1  0  0  0  0
 19 20  1  1  0  0  0
 21 22  1  6  0  0  0
 23 20  1  1  0  0  0
 23 29  1  0  0  0  0
 23 24  1  0  0  0  0
 24 26  1  0  0  0  0
 24 25  1  6  0  0  0
 26 27  1  1  0  0  0
 28 26  1  0  0  0  0
 28 30  1  6  0  0  0
 29 28  1  0  0  0  0
 30 31  1  0  0  0  0
 32 27  1  6  0  0  0
 32 40  1  0  0  0  0
 32 33  1  0  0  0  0
 33 35  1  0  0  0  0
 33 34  1  6  0  0  0
 35 37  1  0  0  0  0
 35 36  1  1  0  0  0
 37 38  1  6  0  0  0
 39 37  1  0  0  0  0
 39 41  1  6  0  0  0
 40 39  1  0  0  0  0
 42 41  1  0  0  0  0
M  END
>  <CHROM.1>
-127.53855934,-149.84300694,-175.88124295,59.16955025,-60.63734202,177.49805703
-171.00634752,71.46281875,-178.76048005,-96.28619690,97.64579868,55.50698611
-54.88061478,61.34467926,170.06284562,155.08929810,-73.55743077,170.67397874
-161.79236234,68.97348158,62.99434535,-170.67948098,-0.25622962,3.27689928
1.32656829,1.59857393,0.92966873,-0.38718350

>  <Name>
lig.pdb

>  <RI>
0

>  <Rbt.Current_Directory>
/home/itssahil/PROJECTS/Mol_Feturizer/New_Systems/rnas/2mxs

>  <Rbt.Executable>
rbdock ($Id: //depot/dev/client3/rdock/2013.1/src/exe/rbdock.cxx#4 $)

>  <Rbt.Library>
libRbt.so (2013.1, Build901 2013/11/27)

>  <Rbt.Parameter_File>
/export/apps/rDock/src/rDock_2013.1_src/data/scripts/dock_solv.prm

>  <Rbt.Receptor>
prm/blind_docking_20.prm

>  <SCORE>
6.12701

>  <SCORE.INTER>
-14.8224

>  <SCORE.INTER.CONST>
1

>  <SCORE.INTER.POLAR>
-3.8496

>  <SCORE.INTER.ROT>
9

>  <SCORE.INTER.SOLV>
28.1349

>  <SCORE.INTER.VDW>
-16.0279

>  <SCORE.INTER.norm>
-0.352914

>  <SCORE.INTRA>
1.31374

>  <SCORE.INTRA.DIHEDRAL>
-2.50273

>  <SCORE.INTRA.DIHEDRAL.0>
30.1357

>  <SCORE.INTRA.POLAR>
-0.0668258

>  <SCORE.INTRA.POLAR.0>
-0.631696

>  <SCORE.INTRA.REPUL>
0

>  <SCORE.INTRA.REPUL.0>
0

>  <SCORE.INTRA.SOLV>
0.445699

>  <SCORE.INTRA.SOLV.lig_0>
-55.904

>  <SCORE.INTRA.VDW>
2.56946

>  <SCORE.INTRA.VDW.0>
-8.21197

>  <SCORE.INTRA.norm>
0.0312795

>  <SCORE.RESTR>
19.6356

>  <SCORE.RESTR.CAVITY>
19.6356

>  <SCORE.RESTR.norm>
0.467515

>  <SCORE.SYSTEM>
0

>  <SCORE.SYSTEM.CONST>
0

>  <SCORE.SYSTEM.DIHEDRAL>
0

>  <SCORE.SYSTEM.SOLV>
0

>  <SCORE.SYSTEM.norm>
0

>  <SCORE.heavy>
42

>  <SCORE.norm>
0.145881

>  <RMSD>
7.008

$$$$
lig.pdb
 OpenBabel11021811453D
libRbt.so/2013.1/901 2013/11/27
 42 45  0  0  0  0  0  0  0  0999 V2000
   -1.9729    4.7336    1.4796 C   0  0  2  0  0  0  0  0  0  0  0  0
   -1.8684    5.7903    0.5236 O   0  0  0  0  0  0  0  0  0  0  0  0
   -3.3040    4.8151    2.2419 C   0  0  2  0  0  0  0  0  0  0  0  0
   -4.4469    4.8348    1.3104 N   0  0  0  0  0  0  0  0  0  0  0  0
   -3.3308    6.0343    3.1727 C   0  0  1  0  0  0  0  0  0  0  0  0
   -4.5008    5.9930    3.9672 O   0  0  0  0  0  0  0  0  0  0  0  0
   -2.0954    6.0341    4.0857 C   0  0  2  0  0  0  0  0  0  0  0  0
   -2.0566    7.2417    4.8217 O   0  0  0  0  0  0  0  0  0  0  0  0
   -0.7932    5.8746    3.2751 C   0  0  2  0  0  0  0  0  0  0  0  0
   -0.8724    4.7616    2.3851 O   0  0  0  0  0  0  0  0  0  0  0  0
    0.3662    5.6655    4.2677 C   0  0  0  0  0  0  0  0  0  0  0  0
    0.0827    4.6124    5.2273 O   0  0  0  0  0  0  0  0  0  0  0  0
    1.4919    7.4301   -1.6096 C   0  0  2  0  0  0  0  0  0  0  0  0
    2.9390    7.6414   -1.8131 N   0  0  0  0  0  0  0  0  0  0  0  0
    1.0581    7.9902   -0.2526 C   0  0  0  0  0  0  0  0  0  0  0  0
   -0.4015    7.6518    0.0261 C   0  0  2  0  0  0  0  0  0  0  0  0
   -0.8357    8.2758    1.2822 N   0  0  0  0  0  0  0  0  0  0  0  0
   -0.5483    6.1127    0.0623 C   0  0  2  0  0  0  0  0  0  0  0  0
   -0.2800    5.5792   -1.3084 C   0  0  2  0  0  0  0  0  0  0  0  0
   -0.4603    4.1756   -1.2627 O   0  0  0  0  0  0  0  0  0  0  0  0
    1.1335    5.9368   -1.7274 C   0  0  1  0  0  0  0  0  0  0  0  0
    1.4143    5.5283   -3.0530 O   0  0  0  0  0  0  0  0  0  0  0  0
    0.5448    3.3585   -1.8535 C   0  0  1  0  0  0  0  0  0  0  0  0
    1.3135    2.6719   -0.7225 C   0  0  2  0  0  0  0  0  0  0  0  0
    2.6776    2.5618   -1.0831 O   0  0  0  0  0  0  0  0  0  0  0  0
    0.6108    1.3112   -0.6236 C   0  0  2  0  0  0  0  0  0  0  0  0
    1.4183    0.3158    0.0057 O   0  0  0  0  0  0  0  0  0  0  0  0
    0.3140    1.0570   -2.1067 C   0  0  2  0  0  0  0  0  0  0  0  0
   -0.0660    2.3268   -2.6181 O   0  0  0  0  0  0  0  0  0  0  0  0
   -0.8198    0.0573   -2.3630 C   0  0  0  0  0  0  0  0  0  0  0  0
   -0.3603   -1.0839   -3.0556 O   0  0  0  0  0  0  0  0  0  0  0  0
    2.5240    0.8285    0.7464 C   0  0  2  0  0  0  0  0  0  0  0  0
    3.2368   -0.2740    1.5442 C   0  0  2  0  0  0  0  0  0  0  0  0
    3.6496   -1.3786    0.6623 N   0  0  0  0  0  0  0  0  0  0  0  0
    2.3601   -0.7759    2.7014 C   0  0  1  0  0  0  0  0  0  0  0  0
    3.0981   -1.7232    3.4489 O   0  0  0  0  0  0  0  0  0  0  0  0
    1.9889    0.4258    3.5868 C   0  0  2  0  0  0  0  0  0  0  0  0
    1.1426    0.0239    4.6483 O   0  0  0  0  0  0  0  0  0  0  0  0
    1.3188    1.5390    2.7553 C   0  0  1  0  0  0  0  0  0  0  0  0
    2.1037    1.8816    1.6108 O   0  0  0  0  0  0  0  0  0  0  0  0
   -0.1370    1.2255    2.3795 C   0  0  0  0  0  0  0  0  0  0  0  0
   -0.8437    2.4319    1.9196 N   0  0  0  0  0  0  0  0  0  0  0  0
  1  3  1  0  0  0  0
  1  2  1  6  0  0  0
  3  4  1  6  0  0  0
  5  6  1  1  0  0  0
  5  3  1  0  0  0  0
  7  9  1  0  0  0  0
  7  5  1  0  0  0  0
  7  8  1  6  0  0  0
  9 10  1  0  0  0  0
  9 11  1  1  0  0  0
 10  1  1  0  0  0  0
 11 12  1  0  0  0  0
 13 14  1  1  0  0  0
 13 21  1  0  0  0  0
 15 13  1  0  0  0  0
 16 15  1  0  0  0  0
 16 18  1  0  0  0  0
 16 17  1  1  0  0  0
 18  2  1  6  0  0  0
 18 19  1  0  0  0  0
 19 21  1  0  0  0  0
 19 20  1  1  0  0  0
 21 22  1  6  0  0  0
 23 20  1  1  0  0  0
 23 29  1  0  0  0  0
 23 24  1  0  0  0  0
 24 26  1  0  0  0  0
 24 25  1  6  0  0  0
 26 27  1  6  0  0  0
 28 26  1  0  0  0  0
 28 30  1  1  0  0  0
 29 28  1  0  0  0  0
 30 31  1  0  0  0  0
 32 27  1  1  0  0  0
 32 40  1  0  0  0  0
 32 33  1  0  0  0  0
 33 35  1  0  0  0  0
 33 34  1  6  0  0  0
 35 37  1  0  0  0  0
 35 36  1  1  0  0  0
 37 38  1  1  0  0  0
 39 37  1  0  0  0  0
 39 41  1  6  0  0  0
 40 39  1  0  0  0  0
 42 41  1  0  0  0  0
M  END
>  <CHROM.1>
-136.62386680,160.03299622,-93.51997679,64.25405769,-178.12471873,-58.41838730
50.97430428,-169.99167048,-147.06250121,-132.63999790,108.14292682,61.57145160
63.66794880,16.90196001,172.49196927,-117.67529945,-65.13590431,-171.36704825
81.63600510,-177.58569024,164.54195186,-17.36393279,0.15981434,3.54614089
0.94007753,2.74079471,1.06150475,-0.93391944

>  <Name>
lig.pdb

>  <RI>
0

>  <Rbt.Current_Directory>
/home/itssahil/PROJECTS/Mol_Feturizer/New_Systems/rnas/2mxs

>  <Rbt.Executable>
rbdock ($Id: //depot/dev/client3/rdock/2013.1/src/exe/rbdock.cxx#4 $)

>  <Rbt.Library>
libRbt.so (2013.1, Build901 2013/11/27)

>  <Rbt.Parameter_File>
/export/apps/rDock/src/rDock_2013.1_src/data/scripts/dock_solv.prm

>  <Rbt.Receptor>
prm/blind_docking_60.prm

>  <SCORE>
76.5069

>  <SCORE.INTER>
33.5109

>  <SCORE.INTER.CONST>
1

>  <SCORE.INTER.POLAR>
-2.39161

>  <SCORE.INTER.ROT>
9

>  <SCORE.INTER.SOLV>
34.3086

>  <SCORE.INTER.VDW>
9.27644

>  <SCORE.INTER.norm>
0.797879

>  <SCORE.INTRA>
23.1508

>  <SCORE.INTRA.DIHEDRAL>
13.4715

>  <SCORE.INTRA.DIHEDRAL.0>
30.1357

>  <SCORE.INTRA.POLAR>
0.0535505

>  <SCORE.INTRA.POLAR.0>
-0.631696

>  <SCORE.INTRA.REPUL>
0

>  <SCORE.INTRA.REPUL.0>
0

>  <SCORE.INTRA.SOLV>
1.81391

>  <SCORE.INTRA.SOLV.lig_0>
-55.904

>  <SCORE.INTRA.VDW>
15.326

>  <SCORE.INTRA.VDW.0>
-8.21197

>  <SCORE.INTRA.norm>
0.551208

>  <SCORE.RESTR>
19.8452

>  <SCORE.RESTR.CAVITY>
19.8452

>  <SCORE.RESTR.norm>
0.472506

>  <SCORE.SYSTEM>
0

>  <SCORE.SYSTEM.CONST>
0

>  <SCORE.SYSTEM.DIHEDRAL>
0

>  <SCORE.SYSTEM.SOLV>
0

>  <SCORE.SYSTEM.norm>
0

>  <SCORE.heavy>
42

>  <SCORE.norm>
1.82159

>  <RMSD>
7.032

$$$$
lig.pdb
 OpenBabel11021811453D
libRbt.so/2013.1/901 2013/11/27
 42 45  0  0  0  0  0  0  0  0999 V2000
   -1.9252    4.8162    1.4542 C   0  0  2  0  0  0  0  0  0  0  0  0
   -1.9128    5.9830    0.6296 O   0  0  0  0  0  0  0  0  0  0  0  0
   -3.3569    4.4693    1.8898 C   0  0  2  0  0  0  0  0  0  0  0  0
   -4.2467    4.3322    0.7219 N   0  0  0  0  0  0  0  0  0  0  0  0
   -3.8993    5.5114    2.8763 C   0  0  1  0  0  0  0  0  0  0  0  0
   -5.1530    5.0815    3.3714 O   0  0  0  0  0  0  0  0  0  0  0  0
   -2.9239    5.6923    4.0491 C   0  0  2  0  0  0  0  0  0  0  0  0
   -3.3614    6.7650    4.8611 O   0  0  0  0  0  0  0  0  0  0  0  0
   -1.4887    5.9636    3.5543 C   0  0  2  0  0  0  0  0  0  0  0  0
   -1.0828    4.9923    2.5905 O   0  0  0  0  0  0  0  0  0  0  0  0
   -0.5453    5.9149    4.7712 C   0  0  0  0  0  0  0  0  0  0  0  0
    0.7714    6.4468    4.4652 O   0  0  0  0  0  0  0  0  0  0  0  0
    1.2135    7.8772   -1.6440 C   0  0  2  0  0  0  0  0  0  0  0  0
    2.6321    8.1123   -1.9796 N   0  0  0  0  0  0  0  0  0  0  0  0
    0.9403    8.2628   -0.1880 C   0  0  0  0  0  0  0  0  0  0  0  0
   -0.4841    7.8922    0.2074 C   0  0  2  0  0  0  0  0  0  0  0  0
   -0.7680    8.3540    1.5719 N   0  0  0  0  0  0  0  0  0  0  0  0
   -0.6475    6.3607    0.0679 C   0  0  2  0  0  0  0  0  0  0  0  0
   -0.5398    6.0030   -1.3799 C   0  0  2  0  0  0  0  0  0  0  0  0
   -0.7335    4.6048   -1.4895 O   0  0  0  0  0  0  0  0  0  0  0  0
    0.8235    6.4103   -1.9060 C   0  0  1  0  0  0  0  0  0  0  0  0
    0.9503    6.1711   -3.2952 O   0  0  0  0  0  0  0  0  0  0  0  0
    0.3902    3.7601   -1.2643 C   0  0  1  0  0  0  0  0  0  0  0  0
    0.5409    3.5756    0.2472 C   0  0  2  0  0  0  0  0  0  0  0  0
    1.9158    3.5105    0.5760 O   0  0  0  0  0  0  0  0  0  0  0  0
   -0.1948    2.2516    0.4936 C   0  0  2  0  0  0  0  0  0  0  0  0
    0.1998    1.6174    1.7105 O   0  0  0  0  0  0  0  0  0  0  0  0
    0.1893    1.4925   -0.7825 C   0  0  2  0  0  0  0  0  0  0  0  0
    0.1369    2.4718   -1.8105 O   0  0  0  0  0  0  0  0  0  0  0  0
   -0.7565    0.3411   -1.1431 C   0  0  0  0  0  0  0  0  0  0  0  0
   -1.5698    0.6636   -2.2511 O   0  0  0  0  0  0  0  0  0  0  0  0
    0.1249    0.1933    1.6901 C   0  0  2  0  0  0  0  0  0  0  0  0
    0.5445   -0.4195    3.0349 C   0  0  2  0  0  0  0  0  0  0  0  0
   -0.2501    0.1422    4.1400 N   0  0  0  0  0  0  0  0  0  0  0  0
    2.0508   -0.2427    3.2788 C   0  0  1  0  0  0  0  0  0  0  0  0
    2.3930   -0.8987    4.4844 O   0  0  0  0  0  0  0  0  0  0  0  0
    2.8115   -0.8707    2.0987 C   0  0  2  0  0  0  0  0  0  0  0  0
    4.2080   -0.6967    2.2529 O   0  0  0  0  0  0  0  0  0  0  0  0
    2.3391   -0.2746    0.7566 C   0  0  1  0  0  0  0  0  0  0  0  0
    0.9167   -0.3355    0.6288 O   0  0  0  0  0  0  0  0  0  0  0  0
    2.8785    1.1394    0.4951 C   0  0  0  0  0  0  0  0  0  0  0  0
    3.8131    1.1549   -0.6419 N   0  0  0  0  0  0  0  0  0  0  0  0
  1  3  1  0  0  0  0
  1  2  1  1  0  0  0
  3  4  1  6  0  0  0
  5  6  1  1  0  0  0
  5  3  1  0  0  0  0
  7  9  1  0  0  0  0
  7  5  1  0  0  0  0
  7  8  1  1  0  0  0
  9 10  1  0  0  0  0
  9 11  1  1  0  0  0
 10  1  1  0  0  0  0
 11 12  1  0  0  0  0
 13 14  1  1  0  0  0
 13 21  1  0  0  0  0
 15 13  1  0  0  0  0
 16 15  1  0  0  0  0
 16 18  1  0  0  0  0
 16 17  1  1  0  0  0
 18  2  1  6  0  0  0
 18 19  1  0  0  0  0
 19 21  1  0  0  0  0
 19 20  1  1  0  0  0
 21 22  1  6  0  0  0
 23 20  1  1  0  0  0
 23 29  1  0  0  0  0
 23 24  1  0  0  0  0
 24 26  1  0  0  0  0
 24 25  1  6  0  0  0
 26 27  1  1  0  0  0
 28 26  1  0  0  0  0
 28 30  1  6  0  0  0
 29 28  1  0  0  0  0
 30 31  1  0  0  0  0
 32 27  1  1  0  0  0
 32 40  1  0  0  0  0
 32 33  1  0  0  0  0
 33 35  1  0  0  0  0
 33 34  1  1  0  0  0
 35 37  1  0  0  0  0
 35 36  1  1  0  0  0
 37 38  1  1  0  0  0
 39 37  1  0  0  0  0
 39 41  1  1  0  0  0
 40 39  1  0  0  0  0
 42 41  1  0  0  0  0
M  END
>  <CHROM.1>
-136.51573925,-175.39747093,173.40367326,-63.06525801,174.92060357,-129.62656765
-167.16931470,67.43125939,67.43543480,-83.55558251,82.28147631,-143.58878890
61.59441047,-149.61296353,-179.21355221,106.71990423,-60.85630529,72.73605955
-173.59710915,-30.35872743,113.23329266,-60.66264574,-0.06119455,3.68119136
1.04171081,2.29229659,0.87003965,-0.64542336

>  <Name>
lig.pdb

>  <RI>
0

>  <Rbt.Current_Directory>
/home/itssahil/PROJECTS/Mol_Feturizer/New_Systems/rnas/2mxs

>  <Rbt.Executable>
rbdock ($Id: //depot/dev/client3/rdock/2013.1/src/exe/rbdock.cxx#4 $)

>  <Rbt.Library>
libRbt.so (2013.1, Build901 2013/11/27)

>  <Rbt.Parameter_File>
/export/apps/rDock/src/rDock_2013.1_src/data/scripts/dock_solv.prm

>  <Rbt.Receptor>
prm/blind_docking_60.prm

>  <SCORE>
56.0958

>  <SCORE.INTER>
13.1985

>  <SCORE.INTER.CONST>
1

>  <SCORE.INTER.POLAR>
-3.685

>  <SCORE.INTER.ROT>
9

>  <SCORE.INTER.SOLV>
34.3438

>  <SCORE.INTER.VDW>
0.0344067

>  <SCORE.INTER.norm>
0.314251

>  <SCORE.INTRA>
21.7083

>  <SCORE.INTRA.DIHEDRAL>
10.867

>  <SCORE.INTRA.DIHEDRAL.0>
30.1357

>  <SCORE.INTRA.POLAR>
0.576533

>  <SCORE.INTRA.POLAR.0>
-0.631696

>  <SCORE.INTRA.REPUL>
0.0555064

>  <SCORE.INTRA.REPUL.0>
0

>  <SCORE.INTRA.SOLV>
0.771497

>  <SCORE.INTRA.SOLV.lig_0>
-55.904

>  <SCORE.INTRA.VDW>
13.6513

>  <SCORE.INTRA.VDW.0>
-8.21197

>  <SCORE.INTRA.norm>
0.516865

>  <SCORE.RESTR>
21.189

>  <SCORE.RESTR.CAVITY>
21.189

>  <SCORE.RESTR.norm>
0.5045

>  <SCORE.SYSTEM>
0

>  <SCORE.SYSTEM.CONST>
0

>  <SCORE.SYSTEM.DIHEDRAL>
0

>  <SCORE.SYSTEM.SOLV>
0

>  <SCORE.SYSTEM.norm>
0

>  <SCORE.heavy>
42

>  <SCORE.norm>
1.33562

>  <RMSD>
7.037

$$$$
lig.pdb
 OpenBabel11021811453D
libRbt.so/2013.1/901 2013/11/27
 42 45  0  0  0  0  0  0  0  0999 V2000
   -0.6433    4.9820    0.6145 C   0  0  2  0  0  0  0  0  0  0  0  0
   -0.6687    5.6436   -0.6516 O   0  0  0  0  0  0  0  0  0  0  0  0
   -1.7703    3.9426    0.7115 C   0  0  2  0  0  0  0  0  0  0  0  0
   -1.7100    2.9904   -0.4128 N   0  0  0  0  0  0  0  0  0  0  0  0
   -3.1426    4.6246    0.7828 C   0  0  1  0  0  0  0  0  0  0  0  0
   -4.1393    3.6501    1.0244 O   0  0  0  0  0  0  0  0  0  0  0  0
   -3.1622    5.6639    1.9138 C   0  0  2  0  0  0  0  0  0  0  0  0
   -4.3754    6.3898    1.8620 O   0  0  0  0  0  0  0  0  0  0  0  0
   -1.9683    6.6346    1.8106 C   0  0  2  0  0  0  0  0  0  0  0  0
   -0.7367    5.9255    1.6789 O   0  0  0  0  0  0  0  0  0  0  0  0
   -1.9390    7.4953    3.0880 C   0  0  0  0  0  0  0  0  0  0  0  0
   -0.8672    8.4755    3.0636 O   0  0  0  0  0  0  0  0  0  0  0  0
    2.2912    8.0872   -2.6006 C   0  0  2  0  0  0  0  0  0  0  0  0
    3.6772    8.5521   -2.8085 N   0  0  0  0  0  0  0  0  0  0  0  0
    1.8459    8.3678   -1.1632 C   0  0  0  0  0  0  0  0  0  0  0  0
    0.4707    7.7659   -0.9000 C   0  0  2  0  0  0  0  0  0  0  0  0
    0.0102    8.1237    0.4476 N   0  0  0  0  0  0  0  0  0  0  0  0
    0.5620    6.2344   -1.0939 C   0  0  2  0  0  0  0  0  0  0  0  0
    0.8394    5.9555   -2.5364 C   0  0  2  0  0  0  0  0  0  0  0  0
    0.8774    4.5497   -2.6995 O   0  0  0  0  0  0  0  0  0  0  0  0
    2.1590    6.5893   -2.9341 C   0  0  1  0  0  0  0  0  0  0  0  0
    2.4318    6.4280   -4.3134 O   0  0  0  0  0  0  0  0  0  0  0  0
    1.9406    3.8382   -2.0747 C   0  0  1  0  0  0  0  0  0  0  0  0
    1.8040    4.0266   -0.5624 C   0  0  2  0  0  0  0  0  0  0  0  0
    3.0923    4.1083    0.0175 O   0  0  0  0  0  0  0  0  0  0  0  0
    1.0384    2.7654   -0.1400 C   0  0  2  0  0  0  0  0  0  0  0  0
    1.1980    2.4592    1.2455 O   0  0  0  0  0  0  0  0  0  0  0  0
    1.6584    1.7437   -1.1012 C   0  0  2  0  0  0  0  0  0  0  0  0
    1.7984    2.4462   -2.3281 O   0  0  0  0  0  0  0  0  0  0  0  0
    0.8006    0.4952   -1.3374 C   0  0  0  0  0  0  0  0  0  0  0  0
   -0.3605    0.7953   -2.0823 O   0  0  0  0  0  0  0  0  0  0  0  0
    0.3684    1.4004    1.7197 C   0  0  2  0  0  0  0  0  0  0  0  0
    0.3294    1.3497    3.2546 C   0  0  2  0  0  0  0  0  0  0  0  0
   -0.0867    2.6468    3.8136 N   0  0  0  0  0  0  0  0  0  0  0  0
    1.6805    0.8974    3.8288 C   0  0  1  0  0  0  0  0  0  0  0  0
    1.5595    0.7864    5.2337 O   0  0  0  0  0  0  0  0  0  0  0  0
    2.0359   -0.4685    3.2174 C   0  0  2  0  0  0  0  0  0  0  0  0
    3.2972   -0.9128    3.6822 O   0  0  0  0  0  0  0  0  0  0  0  0
    2.0214   -0.4048    1.6762 C   0  0  1  0  0  0  0  0  0  0  0  0
    0.7980    0.1496    1.1869 O   0  0  0  0  0  0  0  0  0  0  0  0
    3.2491    0.3032    1.0845 C   0  0  0  0  0  0  0  0  0  0  0  0
    3.7514   -0.4003   -0.1068 N   0  0  0  0  0  0  0  0  0  0  0  0
  1  3  1  0  0  0  0
  1  2  1  6  0  0  0
  3  4  1  6  0  0  0
  5  6  1  1  0  0  0
  5  3  1  0  0  0  0
  7  9  1  0  0  0  0
  7  5  1  0  0  0  0
  7  8  1  6  0  0  0
  9 10  1  0  0  0  0
  9 11  1  1  0  0  0
 10  1  1  0  0  0  0
 11 12  1  0  0  0  0
 13 14  1  1  0  0  0
 13 21  1  0  0  0  0
 15 13  1  0  0  0  0
 16 15  1  0  0  0  0
 16 18  1  0  0  0  0
 16 17  1  1  0  0  0
 18  2  1  6  0  0  0
 18 19  1  0  0  0  0
 19 21  1  0  0  0  0
 19 20  1  1  0  0  0
 21 22  1  6  0  0  0
 23 20  1  6  0  0  0
 23 29  1  0  0  0  0
 23 24  1  0  0  0  0
 24 26  1  0  0  0  0
 24 25  1  1  0  0  0
 26 27  1  1  0  0  0
 28 26  1  0  0  0  0
 28 30  1  6  0  0  0
 29 28  1  0  0  0  0
 30 31  1  0  0  0  0
 32 27  1  1  0  0  0
 32 40  1  0  0  0  0
 32 33  1  0  0  0  0
 33 35  1  0  0  0  0
 33 34  1  1  0  0  0
 35 37  1  0  0  0  0
 35 36  1  1  0  0  0
 37 38  1  1  0  0  0
 39 37  1  0  0  0  0
 39 41  1  1  0  0  0
 40 39  1  0  0  0  0
 42 41  1  0  0  0  0
M  END
>  <CHROM.1>
-104.04882753,-156.77182895,-18.54770024,67.44295959,-175.35397598,158.81726848
-178.14869655,-172.86163517,36.38888798,-66.82717763,63.13197971,73.46824557
59.88403906,172.21922288,-166.00137540,69.57723826,54.89275188,59.86321029
170.13888732,-53.56343119,138.59740669,-145.47175774,0.53089837,3.92923842
0.37362215,1.84299326,0.76533091,-0.58929124

>  <Name>
lig.pdb

>  <RI>
0

>  <Rbt.Current_Directory>
/home/itssahil/PROJECTS/Mol_Feturizer/New_Systems/rnas/2mxs

>  <Rbt.Executable>
rbdock ($Id: //depot/dev/client3/rdock/2013.1/src/exe/rbdock.cxx#4 $)

>  <Rbt.Library>
libRbt.so (2013.1, Build901 2013/11/27)

>  <Rbt.Parameter_File>
/export/apps/rDock/src/rDock_2013.1_src/data/scripts/dock_solv.prm

>  <Rbt.Receptor>
prm/blind_docking_60.prm

>  <SCORE>
26.3612

>  <SCORE.INTER>
-4.1928

>  <SCORE.INTER.CONST>
1

>  <SCORE.INTER.POLAR>
-5.15762

>  <SCORE.INTER.ROT>
9

>  <SCORE.INTER.SOLV>
34.4412

>  <SCORE.INTER.VDW>
-6.68354

>  <SCORE.INTER.norm>
-0.0998285

>  <SCORE.INTRA>
12.8473

>  <SCORE.INTRA.DIHEDRAL>
-4.81205

>  <SCORE.INTRA.DIHEDRAL.0>
30.1357

>  <SCORE.INTRA.POLAR>
0.259945

>  <SCORE.INTRA.POLAR.0>
-0.631696

>  <SCORE.INTRA.REPUL>
0

>  <SCORE.INTRA.REPUL.0>
0

>  <SCORE.INTRA.SOLV>
3.34772

>  <SCORE.INTRA.SOLV.lig_0>
-55.904

>  <SCORE.INTRA.VDW>
12.6956

>  <SCORE.INTRA.VDW.0>
-8.21197

>  <SCORE.INTRA.norm>
0.305888

>  <SCORE.RESTR>
17.7067

>  <SCORE.RESTR.CAVITY>
17.7067

>  <SCORE.RESTR.norm>
0.421587

>  <SCORE.SYSTEM>
0

>  <SCORE.SYSTEM.CONST>
0

>  <SCORE.SYSTEM.DIHEDRAL>
0

>  <SCORE.SYSTEM.SOLV>
0

>  <SCORE.SYSTEM.norm>
0

>  <SCORE.heavy>
42

>  <SCORE.norm>
0.627647

>  <RMSD>
7.041

$$$$
lig.pdb
 OpenBabel11021811453D
libRbt.so/2013.1/901 2013/11/27
 42 45  0  0  0  0  0  0  0  0999 V2000
   -1.3551    4.8116    1.3494 C   0  0  2  0  0  0  0  0  0  0  0  0
   -1.4262    5.6569    0.1996 O   0  0  0  0  0  0  0  0  0  0  0  0
   -2.4369    3.7224    1.2954 C   0  0  2  0  0  0  0  0  0  0  0  0
   -2.3541    2.9562    0.0382 N   0  0  0  0  0  0  0  0  0  0  0  0
   -3.8349    4.3261    1.4814 C   0  0  1  0  0  0  0  0  0  0  0  0
   -4.7872    3.2844    1.5792 O   0  0  0  0  0  0  0  0  0  0  0  0
   -3.8807    5.1790    2.7582 C   0  0  2  0  0  0  0  0  0  0  0  0
   -5.1233    5.8517    2.8280 O   0  0  0  0  0  0  0  0  0  0  0  0
   -2.7292    6.2042    2.7950 C   0  0  2  0  0  0  0  0  0  0  0  0
   -1.4716    5.5769    2.5463 O   0  0  0  0  0  0  0  0  0  0  0  0
   -2.7167    6.8605    4.1887 C   0  0  0  0  0  0  0  0  0  0  0  0
   -1.4242    7.4411    4.5092 O   0  0  0  0  0  0  0  0  0  0  0  0
    1.5924    7.9199   -1.8735 C   0  0  2  0  0  0  0  0  0  0  0  0
    2.9953    8.2847   -2.1549 N   0  0  0  0  0  0  0  0  0  0  0  0
    1.2547    8.1970   -0.4064 C   0  0  0  0  0  0  0  0  0  0  0  0
   -0.1447    7.6934   -0.0733 C   0  0  2  0  0  0  0  0  0  0  0  0
   -0.4969    8.0508    1.3066 N   0  0  0  0  0  0  0  0  0  0  0  0
   -0.1820    6.1647   -0.3037 C   0  0  2  0  0  0  0  0  0  0  0  0
   -0.0116    5.9021   -1.7658 C   0  0  2  0  0  0  0  0  0  0  0  0
   -0.0904    4.5018   -1.9598 O   0  0  0  0  0  0  0  0  0  0  0  0
    1.3271    6.4450   -2.2291 C   0  0  1  0  0  0  0  0  0  0  0  0
    1.5056    6.2982   -3.6254 O   0  0  0  0  0  0  0  0  0  0  0  0
    1.1147    3.7501   -1.8630 C   0  0  1  0  0  0  0  0  0  0  0  0
    1.3853    3.4893   -0.3797 C   0  0  2  0  0  0  0  0  0  0  0  0
    2.7802    3.5292   -0.1443 O   0  0  0  0  0  0  0  0  0  0  0  0
    0.7853    2.0918   -0.1749 C   0  0  2  0  0  0  0  0  0  0  0  0
    1.3166    1.4238    0.9697 O   0  0  0  0  0  0  0  0  0  0  0  0
    1.1440    1.4488   -1.5203 C   0  0  2  0  0  0  0  0  0  0  0  0
    0.9362    2.4794   -2.4759 O   0  0  0  0  0  0  0  0  0  0  0  0
    0.2781    0.2404   -1.8952 C   0  0  0  0  0  0  0  0  0  0  0  0
   -0.9039    0.6336   -2.5594 O   0  0  0  0  0  0  0  0  0  0  0  0
    0.3370    0.8294    1.8190 C   0  0  2  0  0  0  0  0  0  0  0  0
    0.4133    1.3803    3.2510 C   0  0  2  0  0  0  0  0  0  0  0  0
    0.3057    2.8488    3.2563 N   0  0  0  0  0  0  0  0  0  0  0  0
    1.6917    0.9076    3.9595 C   0  0  1  0  0  0  0  0  0  0  0  0
    1.6655    1.3719    5.2953 O   0  0  0  0  0  0  0  0  0  0  0  0
    1.7223   -0.6300    3.9327 C   0  0  2  0  0  0  0  0  0  0  0  0
    2.9057   -1.1184    4.5372 O   0  0  0  0  0  0  0  0  0  0  0  0
    1.5957   -1.1603    2.4897 C   0  0  1  0  0  0  0  0  0  0  0  0
    0.4689   -0.5904    1.8197 O   0  0  0  0  0  0  0  0  0  0  0  0
    2.8862   -1.0106    1.6707 C   0  0  0  0  0  0  0  0  0  0  0  0
    3.1894    0.4044    1.4017 N   0  0  0  0  0  0  0  0  0  0  0  0
  1  3  1  0  0  0  0
  1  2  1  6  0  0  0
  3  4  1  6  0  0  0
  5  6  1  1  0  0  0
  5  3  1  0  0  0  0
  7  9  1  0  0  0  0
  7  5  1  0  0  0  0
  7  8  1  6  0  0  0
  9 10  1  0  0  0  0
  9 11  1  1  0  0  0
 10  1  1  0  0  0  0
 11 12  1  0  0  0  0
 13 14  1  1  0  0  0
 13 21  1  0  0  0  0
 15 13  1  0  0  0  0
 16 15  1  0  0  0  0
 16 18  1  0  0  0  0
 16 17  1  1  0  0  0
 18  2  1  6  0  0  0
 18 19  1  0  0  0  0
 19 21  1  0  0  0  0
 19 20  1  1  0  0  0
 21 22  1  6  0  0  0
 23 20  1  1  0  0  0
 23 29  1  0  0  0  0
 23 24  1  0  0  0  0
 24 26  1  0  0  0  0
 24 25  1  6  0  0  0
 26 27  1  1  0  0  0
 28 26  1  0  0  0  0
 28 30  1  6  0  0  0
 29 28  1  0  0  0  0
 30 31  1  0  0  0  0
 32 27  1  6  0  0  0
 32 40  1  0  0  0  0
 32 33  1  0  0  0  0
 33 35  1  0  0  0  0
 33 34  1  6  0  0  0
 35 37  1  0  0  0  0
 35 36  1  1  0  0  0
 37 38  1  6  0  0  0
 39 37  1  0  0  0  0
 39 41  1  6  0  0  0
 40 39  1  0  0  0  0
 42 41  1  0  0  0  0
M  END
>  <CHROM.1>
-112.25183995,-145.64535051,-47.92331514,63.91069859,-85.21600649,-174.67486642
158.32395317,-179.08036475,-174.42718121,-88.80676573,82.05974102,-136.60950761
-57.86457560,132.49314915,-121.67592762,86.48352893,-172.37930843,-50.89112953
64.79688277,-51.81829488,-67.95715062,-46.22976260,0.00885145,3.65969945
0.86813088,2.05758393,0.83205175,-0.67829981

>  <Name>
lig.pdb

>  <RI>
0

>  <Rbt.Current_Directory>
/home/itssahil/PROJECTS/Mol_Feturizer/New_Systems/rnas/2mxs

>  <Rbt.Executable>
rbdock ($Id: //depot/dev/client3/rdock/2013.1/src/exe/rbdock.cxx#4 $)

>  <Rbt.Library>
libRbt.so (2013.1, Build901 2013/11/27)

>  <Rbt.Parameter_File>
/export/apps/rDock/src/rDock_2013.1_src/data/scripts/dock_solv.prm

>  <Rbt.Receptor>
prm/blind_docking_60.prm

>  <SCORE>
86.1077

>  <SCORE.INTER>
45.1683

>  <SCORE.INTER.CONST>
1

>  <SCORE.INTER.POLAR>
-2.87697

>  <SCORE.INTER.ROT>
9

>  <SCORE.INTER.SOLV>
34.2784

>  <SCORE.INTER.VDW>
18.676

>  <SCORE.INTER.norm>
1.07544

>  <SCORE.INTRA>
21.848

>  <SCORE.INTRA.DIHEDRAL>
15.0237

>  <SCORE.INTRA.DIHEDRAL.0>
30.1357

>  <SCORE.INTRA.POLAR>
0.603763

>  <SCORE.INTRA.POLAR.0>
-0.631696

>  <SCORE.INTRA.REPUL>
0.0492132

>  <SCORE.INTRA.REPUL.0>
0

>  <SCORE.INTRA.SOLV>
2.60044

>  <SCORE.INTRA.SOLV.lig_0>
-55.904

>  <SCORE.INTRA.VDW>
10.7371

>  <SCORE.INTRA.VDW.0>
-8.21197

>  <SCORE.INTRA.norm>
0.520191

>  <SCORE.RESTR>
19.0913

>  <SCORE.RESTR.CAVITY>
19.0913

>  <SCORE.RESTR.norm>
0.454556

>  <SCORE.SYSTEM>
0

>  <SCORE.SYSTEM.CONST>
0

>  <SCORE.SYSTEM.DIHEDRAL>
0

>  <SCORE.SYSTEM.SOLV>
0

>  <SCORE.SYSTEM.norm>
0

>  <SCORE.heavy>
42

>  <SCORE.norm>
2.05018

>  <RMSD>
7.051

$$$$
lig.pdb
 OpenBabel11021811453D
libRbt.so/2013.1/901 2013/11/27
 42 45  0  0  0  0  0  0  0  0999 V2000
    0.5216    6.4200   -0.5440 C   0  0  2  0  0  0  0  0  0  0  0  0
    0.8005    6.2556    0.8476 O   0  0  0  0  0  0  0  0  0  0  0  0
   -0.0638    5.1312   -1.1408 C   0  0  2  0  0  0  0  0  0  0  0  0
   -1.2512    4.6903   -0.3858 N   0  0  0  0  0  0  0  0  0  0  0  0
    0.9947    4.0223   -1.1996 C   0  0  1  0  0  0  0  0  0  0  0  0
    0.4675    2.9061   -1.8908 O   0  0  0  0  0  0  0  0  0  0  0  0
    2.2513    4.5241   -1.9267 C   0  0  2  0  0  0  0  0  0  0  0  0
    3.2693    3.5462   -1.8319 O   0  0  0  0  0  0  0  0  0  0  0  0
    2.7519    5.8578   -1.3359 C   0  0  2  0  0  0  0  0  0  0  0  0
    1.6952    6.8134   -1.2509 O   0  0  0  0  0  0  0  0  0  0  0  0
    3.8689    6.3971   -2.2496 C   0  0  0  0  0  0  0  0  0  0  0  0
    3.9775    5.6421   -3.4860 O   0  0  0  0  0  0  0  0  0  0  0  0
   -1.8730    5.9198    4.2048 C   0  0  2  0  0  0  0  0  0  0  0  0
   -3.1774    5.5922    4.8142 N   0  0  0  0  0  0  0  0  0  0  0  0
   -2.0362    7.0293    3.1629 C   0  0  0  0  0  0  0  0  0  0  0  0
   -0.7227    7.2752    2.4302 C   0  0  2  0  0  0  0  0  0  0  0  0
   -0.8629    8.4056    1.5037 N   0  0  0  0  0  0  0  0  0  0  0  0
   -0.3193    5.9733    1.6995 C   0  0  2  0  0  0  0  0  0  0  0  0
   -0.0037    4.9328    2.7257 C   0  0  2  0  0  0  0  0  0  0  0  0
    0.4027    3.7642    2.0375 O   0  0  0  0  0  0  0  0  0  0  0  0
   -1.2304    4.6681    3.5780 C   0  0  1  0  0  0  0  0  0  0  0  0
   -0.9643    3.7502    4.6219 O   0  0  0  0  0  0  0  0  0  0  0  0
    0.1013    2.5061    2.6317 C   0  0  1  0  0  0  0  0  0  0  0  0
   -1.3272    2.1306    2.2323 C   0  0  2  0  0  0  0  0  0  0  0  0
   -1.9531    1.4586    3.3091 O   0  0  0  0  0  0  0  0  0  0  0  0
   -1.1027    1.2252    1.0137 C   0  0  2  0  0  0  0  0  0  0  0  0
   -2.2145    0.3698    0.7475 O   0  0  0  0  0  0  0  0  0  0  0  0
    0.1765    0.5016    1.4523 C   0  0  2  0  0  0  0  0  0  0  0  0
    0.9540    1.5050    2.0904 O   0  0  0  0  0  0  0  0  0  0  0  0
    0.9894   -0.1009    0.3006 C   0  0  0  0  0  0  0  0  0  0  0  0
    1.3406    0.8768   -0.6554 O   0  0  0  0  0  0  0  0  0  0  0  0
   -2.1246   -0.3587   -0.4753 C   0  0  2  0  0  0  0  0  0  0  0  0
   -3.5001   -0.8547   -0.9465 C   0  0  2  0  0  0  0  0  0  0  0  0
   -4.4525    0.2626   -1.0583 N   0  0  0  0  0  0  0  0  0  0  0  0
   -4.0363   -1.9605   -0.0249 C   0  0  1  0  0  0  0  0  0  0  0  0
   -5.2586   -2.4363   -0.5543 O   0  0  0  0  0  0  0  0  0  0  0  0
   -3.0011   -3.0972    0.0240 C   0  0  2  0  0  0  0  0  0  0  0  0
   -3.4282   -4.1268    0.8969 O   0  0  0  0  0  0  0  0  0  0  0  0
   -1.6175   -2.5667    0.4526 C   0  0  1  0  0  0  0  0  0  0  0  0
   -1.2158   -1.4496   -0.3437 O   0  0  0  0  0  0  0  0  0  0  0  0
   -1.5201   -2.2647    1.9553 C   0  0  0  0  0  0  0  0  0  0  0  0
   -1.0552   -3.4401    2.7094 N   0  0  0  0  0  0  0  0  0  0  0  0
  1  3  1  0  0  0  0
  1  2  1  1  0  0  0
  3  4  1  1  0  0  0
  5  6  1  6  0  0  0
  5  3  1  0  0  0  0
  7  9  1  0  0  0  0
  7  5  1  0  0  0  0
  7  8  1  1  0  0  0
  9 10  1  0  0  0  0
  9 11  1  6  0  0  0
 10  1  1  0  0  0  0
 11 12  1  0  0  0  0
 13 14  1  6  0  0  0
 13 21  1  0  0  0  0
 15 13  1  0  0  0  0
 16 15  1  0  0  0  0
 16 18  1  0  0  0  0
 16 17  1  6  0  0  0
 18  2  1  1  0  0  0
 18 19  1  0  0  0  0
 19 21  1  0  0  0  0
 19 20  1  6  0  0  0
 21 22  1  1  0  0  0
 23 20  1  6  0  0  0
 23 29  1  0  0  0  0
 23 24  1  0  0  0  0
 24 26  1  0  0  0  0
 24 25  1  1  0  0  0
 26 27  1  1  0  0  0
 28 26  1  0  0  0  0
 28 30  1  6  0  0  0
 29 28  1  0  0  0  0
 30 31  1  0  0  0  0
 32 27  1  1  0  0  0
 32 40  1  0  0  0  0
 32 33  1  0  0  0  0
 33 35  1  0  0  0  0
 33 34  1  1  0  0  0
 35 37  1  0  0  0  0
 35 36  1  6  0  0  0
 37 38  1  1  0  0  0
 39 37  1  0  0  0  0
 39 41  1  1  0  0  0
 40 39  1  0  0  0  0
 42 41  1  0  0  0  0
M  END
>  <CHROM.1>
-101.54527355,-62.04563814,34.91617199,68.00004661,176.03525668,170.94304063
9.42816361,-42.52533386,-66.01060341,-148.11499852,84.49403758,62.32040138
-179.23762334,172.02995151,-159.98268386,56.68803229,53.55605281,178.01658807
-167.63862856,66.32024158,90.44040927,-126.09327048,-0.62768814,2.53531446
0.70793040,-0.91376737,-0.83814195,-2.67638010

>  <Name>
lig.pdb

>  <RI>
0

>  <Rbt.Current_Directory>
/home/itssahil/PROJECTS/Mol_Feturizer/New_Systems/rnas/2mxs

>  <Rbt.Executable>
rbdock ($Id: //depot/dev/client3/rdock/2013.1/src/exe/rbdock.cxx#4 $)

>  <Rbt.Library>
libRbt.so (2013.1, Build901 2013/11/27)

>  <Rbt.Parameter_File>
/export/apps/rDock/src/rDock_2013.1_src/data/scripts/dock_solv.prm

>  <Rbt.Receptor>
prm/pocket_docking_4.prm

>  <SCORE>
-44.0526

>  <SCORE.INTER>
-54.666

>  <SCORE.INTER.CONST>
1

>  <SCORE.INTER.POLAR>
-6.41381

>  <SCORE.INTER.ROT>
9

>  <SCORE.INTER.SOLV>
21.1296

>  <SCORE.INTER.VDW>
-31.7078

>  <SCORE.INTER.norm>
-1.30157

>  <SCORE.INTRA>
10.3286

>  <SCORE.INTRA.DIHEDRAL>
0.0910307

>  <SCORE.INTRA.DIHEDRAL.0>
30.1357

>  <SCORE.INTRA.POLAR>
-0.583401

>  <SCORE.INTRA.POLAR.0>
-0.631696

>  <SCORE.INTRA.REPUL>
0.193636

>  <SCORE.INTRA.REPUL.0>
0

>  <SCORE.INTRA.SOLV>
4.14356

>  <SCORE.INTRA.SOLV.lig_0>
-55.904

>  <SCORE.INTRA.VDW>
9.22665

>  <SCORE.INTRA.VDW.0>
-8.21197

>  <SCORE.INTRA.norm>
0.245918

>  <SCORE.RESTR>
0.284835

>  <SCORE.RESTR.CAVITY>
0.284835

>  <SCORE.RESTR.norm>
0.0067818

>  <SCORE.SYSTEM>
0

>  <SCORE.SYSTEM.CONST>
0

>  <SCORE.SYSTEM.DIHEDRAL>
0

>  <SCORE.SYSTEM.SOLV>
0

>  <SCORE.SYSTEM.norm>
0

>  <SCORE.heavy>
42

>  <SCORE.norm>
-1.04887

>  <RMSD>
7.055

$$$$
lig.pdb
 OpenBabel11021811453D
libRbt.so/2013.1/901 2013/11/27
 42 45  0  0  0  0  0  0  0  0999 V2000
   -2.2217    6.4261    3.2262 C   0  0  2  0  0  0  0  0  0  0  0  0
   -0.9343    5.8696    2.9537 O   0  0  0  0  0  0  0  0  0  0  0  0
   -2.8078    5.8415    4.5202 C   0  0  2  0  0  0  0  0  0  0  0  0
   -1.8769    6.0188    5.6500 N   0  0  0  0  0  0  0  0  0  0  0  0
   -3.1777    4.3638    4.3379 C   0  0  1  0  0  0  0  0  0  0  0  0
   -3.8514    3.9024    5.4932 O   0  0  0  0  0  0  0  0  0  0  0  0
   -4.0894    4.1906    3.1138 C   0  0  2  0  0  0  0  0  0  0  0  0
   -4.2893    2.8115    2.8699 O   0  0  0  0  0  0  0  0  0  0  0  0
   -3.4882    4.8605    1.8615 C   0  0  2  0  0  0  0  0  0  0  0  0
   -3.1073    6.2094    2.1305 O   0  0  0  0  0  0  0  0  0  0  0  0
   -4.5509    4.8323    0.7465 C   0  0  0  0  0  0  0  0  0  0  0  0
   -5.0505    3.4908    0.4998 O   0  0  0  0  0  0  0  0  0  0  0  0
    0.0701    7.5775   -0.8679 C   0  0  2  0  0  0  0  0  0  0  0  0
    1.0283    8.1321   -1.8449 N   0  0  0  0  0  0  0  0  0  0  0  0
    0.0590    8.4253    0.4065 C   0  0  0  0  0  0  0  0  0  0  0  0
   -0.8204    7.7815    1.4719 C   0  0  2  0  0  0  0  0  0  0  0  0
   -0.9033    8.6497    2.6532 N   0  0  0  0  0  0  0  0  0  0  0  0
   -0.2356    6.3914    1.8140 C   0  0  2  0  0  0  0  0  0  0  0  0
   -0.3723    5.5116    0.6128 C   0  0  2  0  0  0  0  0  0  0  0  0
    0.1298    4.2342    0.9602 O   0  0  0  0  0  0  0  0  0  0  0  0
    0.4022    6.1080   -0.5472 C   0  0  1  0  0  0  0  0  0  0  0  0
    0.2389    5.3586   -1.7366 O   0  0  0  0  0  0  0  0  0  0  0  0
    1.0625    3.6250    0.0738 C   0  0  1  0  0  0  0  0  0  0  0  0
    1.6010    2.3653    0.7554 C   0  0  2  0  0  0  0  0  0  0  0  0
    2.9650    2.1971    0.4178 O   0  0  0  0  0  0  0  0  0  0  0  0
    0.7025    1.2652    0.1743 C   0  0  2  0  0  0  0  0  0  0  0  0
    1.2872   -0.0341    0.2688 O   0  0  0  0  0  0  0  0  0  0  0  0
    0.5293    1.7913   -1.2558 C   0  0  2  0  0  0  0  0  0  0  0  0
    0.3926    3.1974   -1.1054 O   0  0  0  0  0  0  0  0  0  0  0  0
   -0.7039    1.2464   -1.9857 C   0  0  0  0  0  0  0  0  0  0  0  0
   -0.4303    0.0162   -2.6220 O   0  0  0  0  0  0  0  0  0  0  0  0
    0.5546   -0.9586    1.0705 C   0  0  2  0  0  0  0  0  0  0  0  0
   -0.5687   -0.2665    1.8574 C   0  0  2  0  0  0  0  0  0  0  0  0
   -1.4594    0.4820    0.9550 N   0  0  0  0  0  0  0  0  0  0  0  0
    0.0026    0.6371    2.9605 C   0  0  1  0  0  0  0  0  0  0  0  0
   -1.0728    1.1773    3.7037 O   0  0  0  0  0  0  0  0  0  0  0  0
    0.9011   -0.2165    3.8715 C   0  0  2  0  0  0  0  0  0  0  0  0
    1.4893    0.5797    4.8837 O   0  0  0  0  0  0  0  0  0  0  0  0
    1.9907   -0.9392    3.0530 C   0  0  1  0  0  0  0  0  0  0  0  0
    1.4282   -1.6589    1.9535 O   0  0  0  0  0  0  0  0  0  0  0  0
    3.1328   -0.0135    2.6086 C   0  0  0  0  0  0  0  0  0  0  0  0
    4.0315    0.3055    3.7297 N   0  0  0  0  0  0  0  0  0  0  0  0
  1  3  1  0  0  0  0
  1  2  1  6  0  0  0
  3  4  1  1  0  0  0
  5  6  1  1  0  0  0
  5  3  1  0  0  0  0
  7  9  1  0  0  0  0
  7  5  1  0  0  0  0
  7  8  1  6  0  0  0
  9 10  1  0  0  0  0
  9 11  1  6  0  0  0
 10  1  1  0  0  0  0
 11 12  1  0  0  0  0
 13 14  1  6  0  0  0
 13 21  1  0  0  0  0
 15 13  1  0  0  0  0
 16 15  1  0  0  0  0
 16 18  1  0  0  0  0
 16 17  1  1  0  0  0
 18  2  1  1  0  0  0
 18 19  1  0  0  0  0
 19 21  1  0  0  0  0
 19 20  1  1  0  0  0
 21 22  1  6  0  0  0
 23 20  1  1  0  0  0
 23 29  1  0  0  0  0
 23 24  1  0  0  0  0
 24 26  1  0  0  0  0
 24 25  1  6  0  0  0
 26 27  1  6  0  0  0
 28 26  1  0  0  0  0
 28 30  1  1  0  0  0
 29 28  1  0  0  0  0
 30 31  1  0  0  0  0
 32 27  1  1  0  0  0
 32 40  1  0  0  0  0
 32 33  1  0  0  0  0
 33 35  1  0  0  0  0
 33 34  1  6  0  0  0
 35 37  1  0  0  0  0
 35 36  1  1  0  0  0
 37 38  1  1  0  0  0
 39 37  1  0  0  0  0
 39 41  1  6  0  0  0
 40 39  1  0  0  0  0
 42 41  1  0  0  0  0
M  END
>  <CHROM.1>
20.90047748,-176.27478332,177.61795546,-173.97584595,67.34033627,58.11411302
-54.23383835,-111.76749086,21.03350163,-130.83461323,172.06841861,-62.82774540
-59.74393262,117.81905488,-10.35604235,-86.43707130,-99.14012581,18.67722148
-47.15348053,178.64224417,75.17275431,-169.92063449,-0.52894132,3.36091803
1.57443327,2.30359942,0.86247660,-0.56644782

>  <Name>
lig.pdb

>  <RI>
0

>  <Rbt.Current_Directory>
/home/itssahil/PROJECTS/Mol_Feturizer/New_Systems/rnas/2mxs

>  <Rbt.Executable>
rbdock ($Id: //depot/dev/client3/rdock/2013.1/src/exe/rbdock.cxx#4 $)

>  <Rbt.Library>
libRbt.so (2013.1, Build901 2013/11/27)

>  <Rbt.Parameter_File>
/export/apps/rDock/src/rDock_2013.1_src/data/scripts/dock_solv.prm

>  <Rbt.Receptor>
prm/blind_docking_20.prm

>  <SCORE>
46.1205

>  <SCORE.INTER>
-8.05481

>  <SCORE.INTER.CONST>
1

>  <SCORE.INTER.POLAR>
-3.26967

>  <SCORE.INTER.ROT>
9

>  <SCORE.INTER.SOLV>
28.4241

>  <SCORE.INTER.VDW>
-13.5457

>  <SCORE.INTER.norm>
-0.191781

>  <SCORE.INTRA>
37.3797

>  <SCORE.INTRA.DIHEDRAL>
15.123

>  <SCORE.INTRA.DIHEDRAL.0>
30.1357

>  <SCORE.INTRA.POLAR>
0.273856

>  <SCORE.INTRA.POLAR.0>
-0.631696

>  <SCORE.INTRA.REPUL>
0

>  <SCORE.INTRA.REPUL.0>
0

>  <SCORE.INTRA.SOLV>
2.52108

>  <SCORE.INTRA.SOLV.lig_0>
-55.904

>  <SCORE.INTRA.VDW>
27.6266

>  <SCORE.INTRA.VDW.0>
-8.21197

>  <SCORE.INTRA.norm>
0.889993

>  <SCORE.RESTR>
16.7956

>  <SCORE.RESTR.CAVITY>
16.7956

>  <SCORE.RESTR.norm>
0.399895

>  <SCORE.SYSTEM>
0

>  <SCORE.SYSTEM.CONST>
0

>  <SCORE.SYSTEM.DIHEDRAL>
0

>  <SCORE.SYSTEM.SOLV>
0

>  <SCORE.SYSTEM.norm>
0

>  <SCORE.heavy>
42

>  <SCORE.norm>
1.09811

>  <RMSD>
7.067

$$$$
lig.pdb
 OpenBabel11021811453D
libRbt.so/2013.1/901 2013/11/27
 42 45  0  0  0  0  0  0  0  0999 V2000
    0.4147    6.6785   -0.8086 C   0  0  2  0  0  0  0  0  0  0  0  0
    0.6430    6.5251    0.5935 O   0  0  0  0  0  0  0  0  0  0  0  0
    0.5623    5.3343   -1.5373 C   0  0  2  0  0  0  0  0  0  0  0  0
   -0.3158    4.3103   -0.9415 N   0  0  0  0  0  0  0  0  0  0  0  0
    2.0244    4.8699   -1.5439 C   0  0  1  0  0  0  0  0  0  0  0  0
    2.1464    3.7138   -2.3502 O   0  0  0  0  0  0  0  0  0  0  0  0
    2.9319    5.9771   -2.1011 C   0  0  2  0  0  0  0  0  0  0  0  0
    4.2852    5.5928   -1.9522 O   0  0  0  0  0  0  0  0  0  0  0  0
    2.6890    7.3212   -1.3850 C   0  0  2  0  0  0  0  0  0  0  0  0
    1.3002    7.6495   -1.3608 O   0  0  0  0  0  0  0  0  0  0  0  0
    3.4690    8.4140   -2.1403 C   0  0  0  0  0  0  0  0  0  0  0  0
    2.6973    8.9824   -3.2320 O   0  0  0  0  0  0  0  0  0  0  0  0
   -2.1071    5.9336    3.8520 C   0  0  2  0  0  0  0  0  0  0  0  0
   -3.4217    5.5511    4.4049 N   0  0  0  0  0  0  0  0  0  0  0  0
   -2.2590    7.1091    2.8834 C   0  0  0  0  0  0  0  0  0  0  0  0
   -0.9312    7.4185    2.2021 C   0  0  2  0  0  0  0  0  0  0  0  0
   -1.0632    8.6073    1.3506 N   0  0  0  0  0  0  0  0  0  0  0  0
   -0.4935    6.1736    1.3959 C   0  0  2  0  0  0  0  0  0  0  0  0
   -0.1898    5.0696    2.3575 C   0  0  2  0  0  0  0  0  0  0  0  0
    0.2482    3.9548    1.6026 O   0  0  0  0  0  0  0  0  0  0  0  0
   -1.4335    4.7344    3.1588 C   0  0  1  0  0  0  0  0  0  0  0  0
   -1.1813    3.7511    4.1450 O   0  0  0  0  0  0  0  0  0  0  0  0
    0.6771    2.7991    2.3148 C   0  0  1  0  0  0  0  0  0  0  0  0
   -0.4969    1.8191    2.3662 C   0  0  2  0  0  0  0  0  0  0  0  0
   -0.4857    1.1399    3.6077 O   0  0  0  0  0  0  0  0  0  0  0  0
   -0.2071    0.8934    1.1770 C   0  0  2  0  0  0  0  0  0  0  0  0
   -0.8658   -0.3689    1.2850 O   0  0  0  0  0  0  0  0  0  0  0  0
    1.3232    0.8304    1.2559 C   0  0  2  0  0  0  0  0  0  0  0  0
    1.7185    2.1524    1.5940 O   0  0  0  0  0  0  0  0  0  0  0  0
    2.0084    0.4255   -0.0544 C   0  0  0  0  0  0  0  0  0  0  0  0
    3.3628    0.8235   -0.0776 O   0  0  0  0  0  0  0  0  0  0  0  0
   -0.9012   -1.1262    0.0770 C   0  0  2  0  0  0  0  0  0  0  0  0
   -2.1265   -0.7754   -0.7808 C   0  0  2  0  0  0  0  0  0  0  0  0
   -2.1812    0.6704   -1.0540 N   0  0  0  0  0  0  0  0  0  0  0  0
   -3.4232   -1.2732   -0.1248 C   0  0  1  0  0  0  0  0  0  0  0  0
   -4.5036   -1.0003   -0.9961 O   0  0  0  0  0  0  0  0  0  0  0  0
   -3.2996   -2.7885    0.1085 C   0  0  2  0  0  0  0  0  0  0  0  0
   -4.4553   -3.2925    0.7526 O   0  0  0  0  0  0  0  0  0  0  0  0
   -2.0369   -3.1200    0.9302 C   0  0  1  0  0  0  0  0  0  0  0  0
   -0.8699   -2.5234    0.3597 O   0  0  0  0  0  0  0  0  0  0  0  0
   -2.1783   -2.7902    2.4235 C   0  0  0  0  0  0  0  0  0  0  0  0
   -0.8878   -2.3930    3.0094 N   0  0  0  0  0  0  0  0  0  0  0  0
  1  3  1  0  0  0  0
  1  2  1  1  0  0  0
  3  4  1  1  0  0  0
  5  6  1  6  0  0  0
  5  3  1  0  0  0  0
  7  9  1  0  0  0  0
  7  5  1  0  0  0  0
  7  8  1  1  0  0  0
  9 10  1  0  0  0  0
  9 11  1  6  0  0  0
 10  1  1  0  0  0  0
 11 12  1  0  0  0  0
 13 14  1  6  0  0  0
 13 21  1  0  0  0  0
 15 13  1  0  0  0  0
 16 15  1  0  0  0  0
 16 18  1  0  0  0  0
 16 17  1  6  0  0  0
 18  2  1  1  0  0  0
 18 19  1  0  0  0  0
 19 21  1  0  0  0  0
 19 20  1  6  0  0  0
 21 22  1  1  0  0  0
 23 20  1  6  0  0  0
 23 29  1  0  0  0  0
 23 24  1  0  0  0  0
 24 26  1  0  0  0  0
 24 25  1  1  0  0  0
 26 27  1  1  0  0  0
 28 26  1  0  0  0  0
 28 30  1  6  0  0  0
 29 28  1  0  0  0  0
 30 31  1  0  0  0  0
 32 27  1  1  0  0  0
 32 40  1  0  0  0  0
 32 33  1  0  0  0  0
 33 35  1  0  0  0  0
 33 34  1  1  0  0  0
 35 37  1  0  0  0  0
 35 36  1  6  0  0  0
 37 38  1  1  0  0  0
 39 37  1  0  0  0  0
 39 41  1  1  0  0  0
 40 39  1  0  0  0  0
 42 41  1  0  0  0  0
M  END
>  <CHROM.1>
-106.25143845,-87.74887708,-170.23845900,-63.66800557,-55.00314440,63.60233853
87.29391404,-161.64385744,-175.18538817,176.19401628,97.27920016,72.21571391
73.44164738,165.27873167,-87.89814674,159.42142557,-45.60722766,-179.65874165
71.12214892,-46.29101320,-148.28826257,-167.79067282,-0.23774502,2.93893586
0.63428999,-1.01271775,-0.80823583,-2.89314334

>  <Name>
lig.pdb

>  <RI>
0

>  <Rbt.Current_Directory>
/home/itssahil/PROJECTS/Mol_Feturizer/New_Systems/rnas/2mxs

>  <Rbt.Executable>
rbdock ($Id: //depot/dev/client3/rdock/2013.1/src/exe/rbdock.cxx#4 $)

>  <Rbt.Library>
libRbt.so (2013.1, Build901 2013/11/27)

>  <Rbt.Parameter_File>
/export/apps/rDock/src/rDock_2013.1_src/data/scripts/dock_solv.prm

>  <Rbt.Receptor>
prm/pocket_docking_4.prm

>  <SCORE>
-51.0194

>  <SCORE.INTER>
-50.0553

>  <SCORE.INTER.CONST>
1

>  <SCORE.INTER.POLAR>
-5.39236

>  <SCORE.INTER.ROT>
9

>  <SCORE.INTER.SOLV>
22.3995

>  <SCORE.INTER.VDW>
-32.4622

>  <SCORE.INTER.norm>
-1.19179

>  <SCORE.INTRA>
-1.36016

>  <SCORE.INTRA.DIHEDRAL>
1.23669

>  <SCORE.INTRA.DIHEDRAL.0>
30.1357

>  <SCORE.INTRA.POLAR>
-1.89308

>  <SCORE.INTRA.POLAR.0>
-0.631696

>  <SCORE.INTRA.REPUL>
0

>  <SCORE.INTRA.REPUL.0>
0

>  <SCORE.INTRA.SOLV>
1.04294

>  <SCORE.INTRA.SOLV.lig_0>
-55.904

>  <SCORE.INTRA.VDW>
3.93651

>  <SCORE.INTRA.VDW.0>
-8.21197

>  <SCORE.INTRA.norm>
-0.0323847

>  <SCORE.RESTR>
0.39606

>  <SCORE.RESTR.CAVITY>
0.39606

>  <SCORE.RESTR.norm>
0.00942999

>  <SCORE.SYSTEM>
0

>  <SCORE.SYSTEM.CONST>
0

>  <SCORE.SYSTEM.DIHEDRAL>
0

>  <SCORE.SYSTEM.SOLV>
0

>  <SCORE.SYSTEM.norm>
0

>  <SCORE.heavy>
42

>  <SCORE.norm>
-1.21475

>  <RMSD>
7.073

$$$$
lig.pdb
 OpenBabel11021811453D
libRbt.so/2013.1/901 2013/11/27
 42 45  0  0  0  0  0  0  0  0999 V2000
   -0.4357    7.3841    0.0963 C   0  0  2  0  0  0  0  0  0  0  0  0
    0.9771    7.3175    0.2989 O   0  0  0  0  0  0  0  0  0  0  0  0
   -1.1532    7.8181    1.3834 C   0  0  2  0  0  0  0  0  0  0  0  0
   -0.6055    9.0895    1.8914 N   0  0  0  0  0  0  0  0  0  0  0  0
   -1.0781    6.7199    2.4519 C   0  0  1  0  0  0  0  0  0  0  0  0
   -1.8748    7.0888    3.5613 O   0  0  0  0  0  0  0  0  0  0  0  0
   -1.5857    5.3869    1.8816 C   0  0  2  0  0  0  0  0  0  0  0  0
   -1.3615    4.3577    2.8260 O   0  0  0  0  0  0  0  0  0  0  0  0
   -0.8860    5.0375    0.5525 C   0  0  2  0  0  0  0  0  0  0  0  0
   -0.9394    6.1319   -0.3621 O   0  0  0  0  0  0  0  0  0  0  0  0
   -1.5985    3.8150   -0.0568 C   0  0  0  0  0  0  0  0  0  0  0  0
   -0.9009    3.2988   -1.2219 O   0  0  0  0  0  0  0  0  0  0  0  0
    2.4717    7.4257   -3.7366 C   0  0  2  0  0  0  0  0  0  0  0  0
    3.5407    7.2702   -4.7433 N   0  0  0  0  0  0  0  0  0  0  0  0
    2.8552    8.4991   -2.7149 C   0  0  0  0  0  0  0  0  0  0  0  0
    1.8239    8.5670   -1.5947 C   0  0  2  0  0  0  0  0  0  0  0  0
    2.1473    9.6637   -0.6736 N   0  0  0  0  0  0  0  0  0  0  0  0
    1.7910    7.1976   -0.8769 C   0  0  2  0  0  0  0  0  0  0  0  0
    1.2623    6.1753   -1.8313 C   0  0  2  0  0  0  0  0  0  0  0  0
    1.2011    4.9399   -1.1425 O   0  0  0  0  0  0  0  0  0  0  0  0
    2.1755    6.0846   -3.0393 C   0  0  1  0  0  0  0  0  0  0  0  0
    1.6770    5.1904   -4.0164 O   0  0  0  0  0  0  0  0  0  0  0  0
    1.9616    3.8535   -1.6606 C   0  0  1  0  0  0  0  0  0  0  0  0
    2.2063    2.8668   -0.5170 C   0  0  2  0  0  0  0  0  0  0  0  0
    3.4927    2.2945   -0.6598 O   0  0  0  0  0  0  0  0  0  0  0  0
    1.0751    1.8481   -0.7115 C   0  0  2  0  0  0  0  0  0  0  0  0
    1.3498    0.5913   -0.0920 O   0  0  0  0  0  0  0  0  0  0  0  0
    1.0114    1.8110   -2.2434 C   0  0  2  0  0  0  0  0  0  0  0  0
    1.1997    3.1616   -2.6419 O   0  0  0  0  0  0  0  0  0  0  0  0
   -0.3210    1.3060   -2.8094 C   0  0  0  0  0  0  0  0  0  0  0  0
   -0.3605    1.4091   -4.2169 O   0  0  0  0  0  0  0  0  0  0  0  0
    0.3290    0.1275    0.7895 C   0  0  2  0  0  0  0  0  0  0  0  0
    0.2215    1.0016    2.0483 C   0  0  2  0  0  0  0  0  0  0  0  0
    0.0182    2.4156    1.6913 N   0  0  0  0  0  0  0  0  0  0  0  0
    1.4484    0.8214    2.9548 C   0  0  1  0  0  0  0  0  0  0  0  0
    1.2548    1.5801    4.1328 O   0  0  0  0  0  0  0  0  0  0  0  0
    1.5819   -0.6713    3.3013 C   0  0  2  0  0  0  0  0  0  0  0  0
    2.7263   -0.8994    4.1030 O   0  0  0  0  0  0  0  0  0  0  0  0
    1.6393   -1.5325    2.0227 C   0  0  1  0  0  0  0  0  0  0  0  0
    0.5526   -1.2357    1.1428 O   0  0  0  0  0  0  0  0  0  0  0  0
    2.9946   -1.4650    1.3035 C   0  0  0  0  0  0  0  0  0  0  0  0
    3.4319   -0.0725    1.1133 N   0  0  0  0  0  0  0  0  0  0  0  0
  1  3  1  0  0  0  0
  1  2  1  1  0  0  0
  3  4  1  1  0  0  0
  5  6  1  1  0  0  0
  5  3  1  0  0  0  0
  7  9  1  0  0  0  0
  7  5  1  0  0  0  0
  7  8  1  1  0  0  0
  9 10  1  0  0  0  0
  9 11  1  6  0  0  0
 10  1  1  0  0  0  0
 11 12  1  0  0  0  0
 13 14  1  6  0  0  0
 13 21  1  0  0  0  0
 15 13  1  0  0  0  0
 16 15  1  0  0  0  0
 16 18  1  0  0  0  0
 16 17  1  1  0  0  0
 18  2  1  1  0  0  0
 18 19  1  0  0  0  0
 19 21  1  0  0  0  0
 19 20  1  1  0  0  0
 21 22  1  6  0  0  0
 23 20  1  1  0  0  0
 23 29  1  0  0  0  0
 23 24  1  0  0  0  0
 24 26  1  0  0  0  0
 24 25  1  6  0  0  0
 26 27  1  6  0  0  0
 28 26  1  0  0  0  0
 28 30  1  1  0  0  0
 29 28  1  0  0  0  0
 30 31  1  0  0  0  0
 32 27  1  6  0  0  0
 32 40  1  0  0  0  0
 32 33  1  0  0  0  0
 33 35  1  0  0  0  0
 33 34  1  6  0  0  0
 35 37  1  0  0  0  0
 35 36  1  1  0  0  0
 37 38  1  6  0  0  0
 39 37  1  0  0  0  0
 39 41  1  6  0  0  0
 40 39  1  0  0  0  0
 42 41  1  0  0  0  0
M  END
>  <CHROM.1>
74.32679245,-167.46543682,-110.30407602,-48.75734869,-30.78869863,-50.80565752
-172.29882009,-177.20714340,-179.17855944,-120.22957995,157.25753992,-82.86422122
-64.65085154,126.93726290,-68.18841986,174.67618637,-37.95857873,150.45418669
172.41007879,-58.17638904,-49.58177342,-49.59719897,0.90111963,3.90215419
-0.04017423,1.69361006,1.15149959,-0.48031962

>  <Name>
lig.pdb

>  <RI>
0

>  <Rbt.Current_Directory>
/home/itssahil/PROJECTS/Mol_Feturizer/New_Systems/rnas/2mxs

>  <Rbt.Executable>
rbdock ($Id: //depot/dev/client3/rdock/2013.1/src/exe/rbdock.cxx#4 $)

>  <Rbt.Library>
libRbt.so (2013.1, Build901 2013/11/27)

>  <Rbt.Parameter_File>
/export/apps/rDock/src/rDock_2013.1_src/data/scripts/dock_solv.prm

>  <Rbt.Receptor>
prm/blind_docking_60.prm

>  <SCORE>
242.111

>  <SCORE.INTER>
192.53

>  <SCORE.INTER.CONST>
1

>  <SCORE.INTER.POLAR>
-2.17916

>  <SCORE.INTER.ROT>
9

>  <SCORE.INTER.SOLV>
34.3237

>  <SCORE.INTER.VDW>
114.576

>  <SCORE.INTER.norm>
4.58404

>  <SCORE.INTRA>
31.7771

>  <SCORE.INTRA.DIHEDRAL>
4.08426

>  <SCORE.INTRA.DIHEDRAL.0>
30.1357

>  <SCORE.INTRA.POLAR>
-1.37473

>  <SCORE.INTRA.POLAR.0>
-0.631696

>  <SCORE.INTRA.REPUL>
1.04091

>  <SCORE.INTRA.REPUL.0>
0

>  <SCORE.INTRA.SOLV>
6.66877

>  <SCORE.INTRA.SOLV.lig_0>
-55.904

>  <SCORE.INTRA.VDW>
25.8702

>  <SCORE.INTRA.VDW.0>
-8.21197

>  <SCORE.INTRA.norm>
0.756599

>  <SCORE.RESTR>
17.8046

>  <SCORE.RESTR.CAVITY>
17.8046

>  <SCORE.RESTR.norm>
0.42392

>  <SCORE.SYSTEM>
0

>  <SCORE.SYSTEM.CONST>
0

>  <SCORE.SYSTEM.DIHEDRAL>
0

>  <SCORE.SYSTEM.SOLV>
0

>  <SCORE.SYSTEM.norm>
0

>  <SCORE.heavy>
42

>  <SCORE.norm>
5.76456

>  <RMSD>
7.079

$$$$
lig.pdb
 OpenBabel11021811453D
libRbt.so/2013.1/901 2013/11/27
 42 45  0  0  0  0  0  0  0  0999 V2000
   -2.2431    4.7859    1.2575 C   0  0  2  0  0  0  0  0  0  0  0  0
   -2.0437    6.0275    0.5791 O   0  0  0  0  0  0  0  0  0  0  0  0
   -3.5709    4.7917    2.0301 C   0  0  2  0  0  0  0  0  0  0  0  0
   -4.6990    5.1248    1.1408 N   0  0  0  0  0  0  0  0  0  0  0  0
   -3.5082    5.7529    3.2241 C   0  0  1  0  0  0  0  0  0  0  0  0
   -4.6856    5.6190    3.9970 O   0  0  0  0  0  0  0  0  0  0  0  0
   -2.2862    5.4356    4.0991 C   0  0  2  0  0  0  0  0  0  0  0  0
   -2.1570    6.4265    5.1005 O   0  0  0  0  0  0  0  0  0  0  0  0
   -0.9930    5.3682    3.2615 C   0  0  2  0  0  0  0  0  0  0  0  0
   -1.1532    4.5087    2.1333 O   0  0  0  0  0  0  0  0  0  0  0  0
    0.1356    4.8360    4.1649 C   0  0  0  0  0  0  0  0  0  0  0  0
   -0.0873    3.4575    4.5654 O   0  0  0  0  0  0  0  0  0  0  0  0
    1.3370    7.5904   -1.5794 C   0  0  2  0  0  0  0  0  0  0  0  0
    2.7836    7.6842   -1.8603 N   0  0  0  0  0  0  0  0  0  0  0  0
    1.0466    8.0133   -0.1371 C   0  0  0  0  0  0  0  0  0  0  0  0
   -0.4213    7.7857    0.2039 C   0  0  2  0  0  0  0  0  0  0  0  0
   -0.7114    8.2846    1.5540 N   0  0  0  0  0  0  0  0  0  0  0  0
   -0.7270    6.2761    0.0655 C   0  0  2  0  0  0  0  0  0  0  0  0
   -0.5988    5.8971   -1.3751 C   0  0  2  0  0  0  0  0  0  0  0  0
   -0.9229    4.5233   -1.4854 O   0  0  0  0  0  0  0  0  0  0  0  0
    0.8169    6.1660   -1.8494 C   0  0  1  0  0  0  0  0  0  0  0  0
    0.9734    5.9036   -3.2313 O   0  0  0  0  0  0  0  0  0  0  0  0
    0.0738    3.6462   -1.9994 C   0  0  1  0  0  0  0  0  0  0  0  0
    0.8484    3.0714   -0.8115 C   0  0  2  0  0  0  0  0  0  0  0  0
    2.2090    2.9188   -1.1696 O   0  0  0  0  0  0  0  0  0  0  0  0
    0.1403    1.7310   -0.5724 C   0  0  2  0  0  0  0  0  0  0  0  0
    0.9483    0.7990    0.1468 O   0  0  0  0  0  0  0  0  0  0  0  0
   -0.1695    1.3321   -2.0205 C   0  0  2  0  0  0  0  0  0  0  0  0
   -0.5478    2.5467   -2.6529 O   0  0  0  0  0  0  0  0  0  0  0  0
   -1.3098    0.3180   -2.1676 C   0  0  0  0  0  0  0  0  0  0  0  0
   -2.5299    0.8327   -1.6782 O   0  0  0  0  0  0  0  0  0  0  0  0
    2.0983    1.3667    0.7706 C   0  0  2  0  0  0  0  0  0  0  0  0
    3.2337    0.3419    0.9149 C   0  0  2  0  0  0  0  0  0  0  0  0
    3.5718   -0.2558   -0.3876 N   0  0  0  0  0  0  0  0  0  0  0  0
    2.8806   -0.7341    1.9527 C   0  0  1  0  0  0  0  0  0  0  0  0
    3.9918   -1.5959    2.1056 O   0  0  0  0  0  0  0  0  0  0  0  0
    2.5621   -0.0374    3.2865 C   0  0  2  0  0  0  0  0  0  0  0  0
    2.1871   -0.9844    4.2698 O   0  0  0  0  0  0  0  0  0  0  0  0
    1.4538    1.0204    3.1068 C   0  0  1  0  0  0  0  0  0  0  0  0
    1.7584    1.9212    2.0395 O   0  0  0  0  0  0  0  0  0  0  0  0
    0.0505    0.4134    2.9622 C   0  0  0  0  0  0  0  0  0  0  0  0
   -0.6624    0.3982    4.2498 N   0  0  0  0  0  0  0  0  0  0  0  0
  1  3  1  0  0  0  0
  1  2  1  1  0  0  0
  3  4  1  6  0  0  0
  5  6  1  1  0  0  0
  5  3  1  0  0  0  0
  7  9  1  0  0  0  0
  7  5  1  0  0  0  0
  7  8  1  1  0  0  0
  9 10  1  0  0  0  0
  9 11  1  1  0  0  0
 10  1  1  0  0  0  0
 11 12  1  0  0  0  0
 13 14  1  1  0  0  0
 13 21  1  0  0  0  0
 15 13  1  0  0  0  0
 16 15  1  0  0  0  0
 16 18  1  0  0  0  0
 16 17  1  1  0  0  0
 18  2  1  6  0  0  0
 18 19  1  0  0  0  0
 19 21  1  0  0  0  0
 19 20  1  1  0  0  0
 21 22  1  6  0  0  0
 23 20  1  1  0  0  0
 23 29  1  0  0  0  0
 23 24  1  0  0  0  0
 24 26  1  0  0  0  0
 24 25  1  6  0  0  0
 26 27  1  6  0  0  0
 28 26  1  0  0  0  0
 28 30  1  1  0  0  0
 29 28  1  0  0  0  0
 30 31  1  0  0  0  0
 32 27  1  1  0  0  0
 32 40  1  0  0  0  0
 32 33  1  0  0  0  0
 33 35  1  0  0  0  0
 33 34  1  6  0  0  0
 35 37  1  0  0  0  0
 35 36  1  1  0  0  0
 37 38  1  1  0  0  0
 39 37  1  0  0  0  0
 39 41  1  6  0  0  0
 40 39  1  0  0  0  0
 42 41  1  0  0  0  0
M  END
>  <CHROM.1>
-144.58811563,166.66866278,25.56790248,-175.88477461,174.43781435,-64.71299033
66.28019888,-52.70026881,-152.26030193,-120.14085161,93.11480468,64.94734342
63.44384919,14.00062175,-152.13955879,61.83757918,-53.02858116,-82.01618928
-77.92516406,-55.38936899,96.35066335,56.53029561,-0.02707009,3.53450359
0.93520854,2.48406841,0.92256789,-0.86383695

>  <Name>
lig.pdb

>  <RI>
0

>  <Rbt.Current_Directory>
/home/itssahil/PROJECTS/Mol_Feturizer/New_Systems/rnas/2mxs

>  <Rbt.Executable>
rbdock ($Id: //depot/dev/client3/rdock/2013.1/src/exe/rbdock.cxx#4 $)

>  <Rbt.Library>
libRbt.so (2013.1, Build901 2013/11/27)

>  <Rbt.Parameter_File>
/export/apps/rDock/src/rDock_2013.1_src/data/scripts/dock_solv.prm

>  <Rbt.Receptor>
prm/blind_docking_20.prm

>  <SCORE>
70.8333

>  <SCORE.INTER>
45.521

>  <SCORE.INTER.CONST>
1

>  <SCORE.INTER.POLAR>
-2.99703

>  <SCORE.INTER.ROT>
9

>  <SCORE.INTER.SOLV>
32.8288

>  <SCORE.INTER.VDW>
19.7945

>  <SCORE.INTER.norm>
1.08383

>  <SCORE.INTRA>
14.8257

>  <SCORE.INTRA.DIHEDRAL>
7.47001

>  <SCORE.INTRA.DIHEDRAL.0>
30.1357

>  <SCORE.INTRA.POLAR>
-0.279854

>  <SCORE.INTRA.POLAR.0>
-0.631696

>  <SCORE.INTRA.REPUL>
0.311016

>  <SCORE.INTRA.REPUL.0>
0

>  <SCORE.INTRA.SOLV>
2.01298

>  <SCORE.INTRA.SOLV.lig_0>
-55.904

>  <SCORE.INTRA.VDW>
9.48068

>  <SCORE.INTRA.VDW.0>
-8.21197

>  <SCORE.INTRA.norm>
0.352994

>  <SCORE.RESTR>
10.4866

>  <SCORE.RESTR.CAVITY>
10.4866

>  <SCORE.RESTR.norm>
0.24968

>  <SCORE.SYSTEM>
0

>  <SCORE.SYSTEM.CONST>
0

>  <SCORE.SYSTEM.DIHEDRAL>
0

>  <SCORE.SYSTEM.SOLV>
0

>  <SCORE.SYSTEM.norm>
0

>  <SCORE.heavy>
42

>  <SCORE.norm>
1.68651

>  <RMSD>
7.082

$$$$
lig.pdb
 OpenBabel11021811453D
libRbt.so/2013.1/901 2013/11/27
 42 45  0  0  0  0  0  0  0  0999 V2000
   -1.5299    4.8682    1.3809 C   0  0  2  0  0  0  0  0  0  0  0  0
   -1.4195    5.8448    0.3438 O   0  0  0  0  0  0  0  0  0  0  0  0
   -2.9630    4.8143    1.9313 C   0  0  2  0  0  0  0  0  0  0  0  0
   -3.9375    4.5856    0.8484 N   0  0  0  0  0  0  0  0  0  0  0  0
   -3.2995    6.0897    2.7148 C   0  0  1  0  0  0  0  0  0  0  0  0
   -4.5634    5.9415    3.3329 O   0  0  0  0  0  0  0  0  0  0  0  0
   -2.2342    6.3499    3.7906 C   0  0  2  0  0  0  0  0  0  0  0  0
   -2.4742    7.6072    4.3930 O   0  0  0  0  0  0  0  0  0  0  0  0
   -0.8113    6.3185    3.1968 C   0  0  2  0  0  0  0  0  0  0  0  0
   -0.5994    5.1355    2.4270 O   0  0  0  0  0  0  0  0  0  0  0  0
    0.1951    6.3684    4.3620 C   0  0  0  0  0  0  0  0  0  0  0  0
    0.1142    7.6154    5.1028 O   0  0  0  0  0  0  0  0  0  0  0  0
    1.9793    7.3059   -1.8572 C   0  0  2  0  0  0  0  0  0  0  0  0
    3.4204    7.5906   -2.0069 N   0  0  0  0  0  0  0  0  0  0  0  0
    1.4043    8.0821   -0.6698 C   0  0  0  0  0  0  0  0  0  0  0  0
   -0.0467    7.6869   -0.4219 C   0  0  2  0  0  0  0  0  0  0  0  0
   -0.6185    8.5060    0.6541 N   0  0  0  0  0  0  0  0  0  0  0  0
   -0.0921    6.1776   -0.0882 C   0  0  2  0  0  0  0  0  0  0  0  0
    0.3178    5.4111   -1.3048 C   0  0  2  0  0  0  0  0  0  0  0  0
    0.2292    4.0334   -0.9911 O   0  0  0  0  0  0  0  0  0  0  0  0
    1.7324    5.7941   -1.6966 C   0  0  1  0  0  0  0  0  0  0  0  0
    2.1427    5.1597   -2.8933 O   0  0  0  0  0  0  0  0  0  0  0  0
    1.0672    3.1345   -1.7098 C   0  0  1  0  0  0  0  0  0  0  0  0
    1.6889    2.1667   -0.7007 C   0  0  2  0  0  0  0  0  0  0  0  0
    3.0102    1.8571   -1.1020 O   0  0  0  0  0  0  0  0  0  0  0  0
    0.7443    0.9595   -0.7752 C   0  0  2  0  0  0  0  0  0  0  0  0
    1.3490   -0.2460   -0.3062 O   0  0  0  0  0  0  0  0  0  0  0  0
    0.4126    0.9736   -2.2725 C   0  0  2  0  0  0  0  0  0  0  0  0
    0.2784    2.3505   -2.5960 O   0  0  0  0  0  0  0  0  0  0  0  0
   -0.8865    0.2470   -2.6399 C   0  0  0  0  0  0  0  0  0  0  0  0
   -2.0219    0.9413   -2.1687 O   0  0  0  0  0  0  0  0  0  0  0  0
    0.5327   -1.0175    0.5727 C   0  0  2  0  0  0  0  0  0  0  0  0
   -0.4258   -0.1333    1.3847 C   0  0  2  0  0  0  0  0  0  0  0  0
   -1.2438    0.7096    0.4968 N   0  0  0  0  0  0  0  0  0  0  0  0
    0.3381    0.7115    2.4154 C   0  0  1  0  0  0  0  0  0  0  0  0
   -0.5987    1.4369    3.1881 O   0  0  0  0  0  0  0  0  0  0  0  0
    1.1484   -0.2361    3.3162 C   0  0  2  0  0  0  0  0  0  0  0  0
    1.9076    0.4968    4.2601 O   0  0  0  0  0  0  0  0  0  0  0  0
    2.0672   -1.1466    2.4758 C   0  0  1  0  0  0  0  0  0  0  0  0
    1.3399   -1.8109    1.4399 O   0  0  0  0  0  0  0  0  0  0  0  0
    3.3085   -0.4236    1.9322 C   0  0  0  0  0  0  0  0  0  0  0  0
    2.9461    0.8406    1.2713 N   0  0  0  0  0  0  0  0  0  0  0  0
  1  3  1  0  0  0  0
  1  2  1  6  0  0  0
  3  4  1  6  0  0  0
  5  6  1  1  0  0  0
  5  3  1  0  0  0  0
  7  9  1  0  0  0  0
  7  5  1  0  0  0  0
  7  8  1  6  0  0  0
  9 10  1  0  0  0  0
  9 11  1  1  0  0  0
 10  1  1  0  0  0  0
 11 12  1  0  0  0  0
 13 14  1  1  0  0  0
 13 21  1  0  0  0  0
 15 13  1  0  0  0  0
 16 15  1  0  0  0  0
 16 18  1  0  0  0  0
 16 17  1  1  0  0  0
 18  2  1  6  0  0  0
 18 19  1  0  0  0  0
 19 21  1  0  0  0  0
 19 20  1  1  0  0  0
 21 22  1  6  0  0  0
 23 20  1  1  0  0  0
 23 29  1  0  0  0  0
 23 24  1  0  0  0  0
 24 26  1  0  0  0  0
 24 25  1  6  0  0  0
 26 27  1  6  0  0  0
 28 26  1  0  0  0  0
 28 30  1  1  0  0  0
 29 28  1  0  0  0  0
 30 31  1  0  0  0  0
 32 27  1  1  0  0  0
 32 40  1  0  0  0  0
 32 33  1  0  0  0  0
 33 35  1  0  0  0  0
 33 34  1  6  0  0  0
 35 37  1  0  0  0  0
 35 36  1  1  0  0  0
 37 38  1  1  0  0  0
 39 37  1  0  0  0  0
 39 41  1  6  0  0  0
 40 39  1  0  0  0  0
 42 41  1  0  0  0  0
M  END
>  <CHROM.1>
-143.74106856,168.78001311,116.24161146,-110.93066562,-171.80187975,-72.16663075
-64.25188549,66.42901336,9.36731447,-153.54860338,134.81481045,90.85249330
-51.85869232,134.41207462,-29.94012145,69.29517257,-168.19240867,-62.09591773
-62.93857399,80.95537099,-49.66924093,96.23563760,0.07971259,3.57291138,0.75254202
2.20425026,1.04746804,-0.37015435

>  <Name>
lig.pdb

>  <RI>
0

>  <Rbt.Current_Directory>
/home/itssahil/PROJECTS/Mol_Feturizer/New_Systems/rnas/2mxs

>  <Rbt.Executable>
rbdock ($Id: //depot/dev/client3/rdock/2013.1/src/exe/rbdock.cxx#4 $)

>  <Rbt.Library>
libRbt.so (2013.1, Build901 2013/11/27)

>  <Rbt.Parameter_File>
/export/apps/rDock/src/rDock_2013.1_src/data/scripts/dock_solv.prm

>  <Rbt.Receptor>
prm/blind_docking_60.prm

>  <SCORE>
66.9603

>  <SCORE.INTER>
6.34387

>  <SCORE.INTER.CONST>
1

>  <SCORE.INTER.POLAR>
-3.88219

>  <SCORE.INTER.ROT>
9

>  <SCORE.INTER.SOLV>
29.1414

>  <SCORE.INTER.VDW>
-2.14394

>  <SCORE.INTER.norm>
0.151044

>  <SCORE.INTRA>
40.3202

>  <SCORE.INTRA.DIHEDRAL>
19.1208

>  <SCORE.INTRA.DIHEDRAL.0>
30.1357

>  <SCORE.INTRA.POLAR>
-0.608372

>  <SCORE.INTRA.POLAR.0>
-0.631696

>  <SCORE.INTRA.REPUL>
0

>  <SCORE.INTRA.REPUL.0>
0

>  <SCORE.INTRA.SOLV>
4.31475

>  <SCORE.INTRA.SOLV.lig_0>
-55.904

>  <SCORE.INTRA.VDW>
30.6709

>  <SCORE.INTRA.VDW.0>
-8.21197

>  <SCORE.INTRA.norm>
0.960005

>  <SCORE.RESTR>
20.2962

>  <SCORE.RESTR.CAVITY>
20.2962

>  <SCORE.RESTR.norm>
0.483244

>  <SCORE.SYSTEM>
0

>  <SCORE.SYSTEM.CONST>
0

>  <SCORE.SYSTEM.DIHEDRAL>
0

>  <SCORE.SYSTEM.SOLV>
0

>  <SCORE.SYSTEM.norm>
0

>  <SCORE.heavy>
42

>  <SCORE.norm>
1.59429

>  <RMSD>
7.085

$$$$
lig.pdb
 OpenBabel11021811453D
libRbt.so/2013.1/901 2013/11/27
 42 45  0  0  0  0  0  0  0  0999 V2000
   -2.1260    4.7429    1.3255 C   0  0  2  0  0  0  0  0  0  0  0  0
   -2.0030    5.9909    0.6408 O   0  0  0  0  0  0  0  0  0  0  0  0
   -3.4754    4.6490    2.0537 C   0  0  2  0  0  0  0  0  0  0  0  0
   -4.5957    4.8840    1.1241 N   0  0  0  0  0  0  0  0  0  0  0  0
   -3.5296    5.6218    3.2387 C   0  0  1  0  0  0  0  0  0  0  0  0
   -4.7181    5.4007    3.9738 O   0  0  0  0  0  0  0  0  0  0  0  0
   -2.3165    5.4100    4.1570 C   0  0  2  0  0  0  0  0  0  0  0  0
   -2.3003    6.4161    5.1514 O   0  0  0  0  0  0  0  0  0  0  0  0
   -0.9945    5.4391    3.3633 C   0  0  2  0  0  0  0  0  0  0  0  0
   -1.0477    4.5605    2.2398 O   0  0  0  0  0  0  0  0  0  0  0  0
    0.1416    5.0059    4.3092 C   0  0  0  0  0  0  0  0  0  0  0  0
    0.2410    5.8658    5.4758 O   0  0  0  0  0  0  0  0  0  0  0  0
    1.2614    7.7398   -1.5537 C   0  0  2  0  0  0  0  0  0  0  0  0
    2.6967    7.9049   -1.8586 N   0  0  0  0  0  0  0  0  0  0  0  0
    0.9782    8.1285   -0.1005 C   0  0  0  0  0  0  0  0  0  0  0  0
   -0.4711    7.8279    0.2630 C   0  0  2  0  0  0  0  0  0  0  0  0
   -0.7592    8.2939    1.6252 N   0  0  0  0  0  0  0  0  0  0  0  0
   -0.7089    6.3078    0.1078 C   0  0  2  0  0  0  0  0  0  0  0  0
   -0.5896    5.9553   -1.3403 C   0  0  2  0  0  0  0  0  0  0  0  0
   -0.8515    4.5696   -1.4652 O   0  0  0  0  0  0  0  0  0  0  0  0
    0.8032    6.2965   -1.8354 C   0  0  1  0  0  0  0  0  0  0  0  0
    0.9463    6.0610   -3.2236 O   0  0  0  0  0  0  0  0  0  0  0  0
    0.2603    3.6806   -1.4500 C   0  0  1  0  0  0  0  0  0  0  0  0
    0.7767    3.6023   -0.0117 C   0  0  2  0  0  0  0  0  0  0  0  0
    2.1868    3.4827   -0.0265 O   0  0  0  0  0  0  0  0  0  0  0  0
    0.0769    2.3455    0.5229 C   0  0  2  0  0  0  0  0  0  0  0  0
    0.7389    1.7833    1.6562 O   0  0  0  0  0  0  0  0  0  0  0  0
    0.1015    1.4713   -0.7369 C   0  0  2  0  0  0  0  0  0  0  0  0
   -0.1692    2.3715   -1.8022 O   0  0  0  0  0  0  0  0  0  0  0  0
   -0.9467    0.3527   -0.7518 C   0  0  0  0  0  0  0  0  0  0  0  0
   -2.2544    0.8672   -0.8872 O   0  0  0  0  0  0  0  0  0  0  0  0
    0.3871    0.4305    1.9395 C   0  0  2  0  0  0  0  0  0  0  0  0
    1.1236   -0.1034    3.1775 C   0  0  2  0  0  0  0  0  0  0  0  0
    0.8909    0.7652    4.3435 N   0  0  0  0  0  0  0  0  0  0  0  0
    2.6237   -0.2789    2.8975 C   0  0  1  0  0  0  0  0  0  0  0  0
    3.2321   -0.8516    4.0388 O   0  0  0  0  0  0  0  0  0  0  0  0
    2.7862   -1.2116    1.6853 C   0  0  2  0  0  0  0  0  0  0  0  0
    4.1539   -1.3732    1.3568 O   0  0  0  0  0  0  0  0  0  0  0  0
    1.9991   -0.6804    0.4696 C   0  0  1  0  0  0  0  0  0  0  0  0
    0.6389   -0.4006    0.8086 O   0  0  0  0  0  0  0  0  0  0  0  0
    2.6760    0.5138   -0.2193 C   0  0  0  0  0  0  0  0  0  0  0  0
    4.0529    0.1888   -0.6252 N   0  0  0  0  0  0  0  0  0  0  0  0
  1  3  1  0  0  0  0
  1  2  1  1  0  0  0
  3  4  1  6  0  0  0
  5  6  1  1  0  0  0
  5  3  1  0  0  0  0
  7  9  1  0  0  0  0
  7  5  1  0  0  0  0
  7  8  1  1  0  0  0
  9 10  1  0  0  0  0
  9 11  1  1  0  0  0
 10  1  1  0  0  0  0
 11 12  1  0  0  0  0
 13 14  1  1  0  0  0
 13 21  1  0  0  0  0
 15 13  1  0  0  0  0
 16 15  1  0  0  0  0
 16 18  1  0  0  0  0
 16 17  1  1  0  0  0
 18  2  1  6  0  0  0
 18 19  1  0  0  0  0
 19 21  1  0  0  0  0
 19 20  1  1  0  0  0
 21 22  1  6  0  0  0
 23 20  1  1  0  0  0
 23 29  1  0  0  0  0
 23 24  1  0  0  0  0
 24 26  1  0  0  0  0
 24 25  1  6  0  0  0
 26 27  1  1  0  0  0
 28 26  1  0  0  0  0
 28 30  1  1  0  0  0
 29 28  1  0  0  0  0
 30 31  1  0  0  0  0
 32 27  1  6  0  0  0
 32 40  1  0  0  0  0
 32 33  1  0  0  0  0
 33 35  1  0  0  0  0
 33 34  1  1  0  0  0
 35 37  1  0  0  0  0
 35 36  1  1  0  0  0
 37 38  1  6  0  0  0
 39 37  1  0  0  0  0
 39 41  1  1  0  0  0
 40 39  1  0  0  0  0
 42 41  1  0  0  0  0
M  END
>  <CHROM.1>
-143.48093896,169.79801601,-71.46760688,75.31420750,-175.00994834,-177.57859623
-58.44317701,175.69433375,-166.25776957,-93.99699930,73.62402428,-137.35165158
177.85726602,-161.99603327,-179.37174526,69.54492273,-51.98641501,-38.75964698
-151.23699657,171.45476173,55.81629158,-171.48631937,0.06082850,3.56846142
1.07585982,2.44511228,0.90615807,-0.74751160

>  <Name>
lig.pdb

>  <RI>
0

>  <Rbt.Current_Directory>
/home/itssahil/PROJECTS/Mol_Feturizer/New_Systems/rnas/2mxs

>  <Rbt.Executable>
rbdock ($Id: //depot/dev/client3/rdock/2013.1/src/exe/rbdock.cxx#4 $)

>  <Rbt.Library>
libRbt.so (2013.1, Build901 2013/11/27)

>  <Rbt.Parameter_File>
/export/apps/rDock/src/rDock_2013.1_src/data/scripts/dock_solv.prm

>  <Rbt.Receptor>
prm/blind_docking_20.prm

>  <SCORE>
22.0361

>  <SCORE.INTER>
-3.75076

>  <SCORE.INTER.CONST>
1

>  <SCORE.INTER.POLAR>
-2.85219

>  <SCORE.INTER.ROT>
9

>  <SCORE.INTER.SOLV>
31.1223

>  <SCORE.INTER.VDW>
-12.9673

>  <SCORE.INTER.norm>
-0.0893037

>  <SCORE.INTRA>
14.0495

>  <SCORE.INTRA.DIHEDRAL>
-4.1387

>  <SCORE.INTRA.DIHEDRAL.0>
30.1357

>  <SCORE.INTRA.POLAR>
-0.739941

>  <SCORE.INTRA.POLAR.0>
-0.631696

>  <SCORE.INTRA.REPUL>
0

>  <SCORE.INTRA.REPUL.0>
0

>  <SCORE.INTRA.SOLV>
1.96521

>  <SCORE.INTRA.SOLV.lig_0>
-55.904

>  <SCORE.INTRA.VDW>
17.652

>  <SCORE.INTRA.VDW.0>
-8.21197

>  <SCORE.INTRA.norm>
0.334511

>  <SCORE.RESTR>
11.7374

>  <SCORE.RESTR.CAVITY>
11.7374

>  <SCORE.RESTR.norm>
0.279461

>  <SCORE.SYSTEM>
0

>  <SCORE.SYSTEM.CONST>
0

>  <SCORE.SYSTEM.DIHEDRAL>
0

>  <SCORE.SYSTEM.SOLV>
0

>  <SCORE.SYSTEM.norm>
0

>  <SCORE.heavy>
42

>  <SCORE.norm>
0.524669

>  <RMSD>
7.091

$$$$
lig.pdb
 OpenBabel11021811453D
libRbt.so/2013.1/901 2013/11/27
 42 45  0  0  0  0  0  0  0  0999 V2000
   -2.1621    6.4291    1.9125 C   0  0  2  0  0  0  0  0  0  0  0  0
   -1.9271    6.0672    0.5504 O   0  0  0  0  0  0  0  0  0  0  0  0
   -1.8575    5.2523    2.8517 C   0  0  2  0  0  0  0  0  0  0  0  0
   -0.4882    4.7476    2.6405 N   0  0  0  0  0  0  0  0  0  0  0  0
   -2.8904    4.1309    2.6808 C   0  0  1  0  0  0  0  0  0  0  0  0
   -2.6703    3.1361    3.6625 O   0  0  0  0  0  0  0  0  0  0  0  0
   -4.3130    4.6900    2.8330 C   0  0  2  0  0  0  0  0  0  0  0  0
   -5.2503    3.6785    2.5167 O   0  0  0  0  0  0  0  0  0  0  0  0
   -4.5396    5.9146    1.9235 C   0  0  2  0  0  0  0  0  0  0  0  0
   -3.5023    6.8806    2.0907 O   0  0  0  0  0  0  0  0  0  0  0  0
   -5.8980    6.5406    2.2927 C   0  0  0  0  0  0  0  0  0  0  0  0
   -6.2656    7.6210    1.3939 O   0  0  0  0  0  0  0  0  0  0  0  0
    1.3738    7.6907   -1.6855 C   0  0  2  0  0  0  0  0  0  0  0  0
    2.8142    7.8423   -1.9730 N   0  0  0  0  0  0  0  0  0  0  0  0
    1.0619    8.1668   -0.2645 C   0  0  0  0  0  0  0  0  0  0  0  0
   -0.3932    7.8835    0.0894 C   0  0  2  0  0  0  0  0  0  0  0  0
   -0.7085    8.4311    1.4147 N   0  0  0  0  0  0  0  0  0  0  0  0
   -0.6239    6.3558    0.0235 C   0  0  2  0  0  0  0  0  0  0  0  0
   -0.4761    5.9156   -1.3978 C   0  0  2  0  0  0  0  0  0  0  0  0
   -0.7320    4.5238   -1.4421 O   0  0  0  0  0  0  0  0  0  0  0  0
    0.9249    6.2311   -1.8866 C   0  0  1  0  0  0  0  0  0  0  0  0
    1.0950    5.9113   -3.2548 O   0  0  0  0  0  0  0  0  0  0  0  0
    0.3869    3.6457   -1.5062 C   0  0  1  0  0  0  0  0  0  0  0  0
    1.0229    3.5966   -0.1154 C   0  0  2  0  0  0  0  0  0  0  0  0
    2.4280    3.4901   -0.2468 O   0  0  0  0  0  0  0  0  0  0  0  0
    0.3840    2.3425    0.4963 C   0  0  2  0  0  0  0  0  0  0  0  0
    1.1449    1.8057    1.5787 O   0  0  0  0  0  0  0  0  0  0  0  0
    0.3124    1.4474   -0.7470 C   0  0  2  0  0  0  0  0  0  0  0  0
   -0.0565    2.3269   -1.8000 O   0  0  0  0  0  0  0  0  0  0  0  0
   -0.7213    0.3188   -0.6557 C   0  0  0  0  0  0  0  0  0  0  0  0
   -0.6108   -0.5767   -1.7415 O   0  0  0  0  0  0  0  0  0  0  0  0
    0.5203    0.7224    2.2646 C   0  0  2  0  0  0  0  0  0  0  0  0
    0.6440    0.8650    3.7892 C   0  0  2  0  0  0  0  0  0  0  0  0
    0.1126    2.1617    4.2412 N   0  0  0  0  0  0  0  0  0  0  0  0
    2.0952    0.6608    4.2493 C   0  0  1  0  0  0  0  0  0  0  0  0
    2.1332    0.7173    5.6621 O   0  0  0  0  0  0  0  0  0  0  0  0
    2.5709   -0.7179    3.7605 C   0  0  2  0  0  0  0  0  0  0  0  0
    3.9216   -0.9394    4.1222 O   0  0  0  0  0  0  0  0  0  0  0  0
    2.3921   -0.8552    2.2344 C   0  0  1  0  0  0  0  0  0  0  0  0
    1.0612   -0.5239    1.8316 O   0  0  0  0  0  0  0  0  0  0  0  0
    3.4452   -0.0828    1.4262 C   0  0  0  0  0  0  0  0  0  0  0  0
    3.1273   -0.0872   -0.0109 N   0  0  0  0  0  0  0  0  0  0  0  0
  1  3  1  0  0  0  0
  1  2  1  6  0  0  0
  3  4  1  6  0  0  0
  5  6  1  1  0  0  0
  5  3  1  0  0  0  0
  7  9  1  0  0  0  0
  7  5  1  0  0  0  0
  7  8  1  6  0  0  0
  9 10  1  0  0  0  0
  9 11  1  1  0  0  0
 10  1  1  0  0  0  0
 11 12  1  0  0  0  0
 13 14  1  1  0  0  0
 13 21  1  0  0  0  0
 15 13  1  0  0  0  0
 16 15  1  0  0  0  0
 16 18  1  0  0  0  0
 16 17  1  1  0  0  0
 18  2  1  6  0  0  0
 18 19  1  0  0  0  0
 19 21  1  0  0  0  0
 19 20  1  1  0  0  0
 21 22  1  6  0  0  0
 23 20  1  1  0  0  0
 23 29  1  0  0  0  0
 23 24  1  0  0  0  0
 24 26  1  0  0  0  0
 24 25  1  6  0  0  0
 26 27  1  1  0  0  0
 28 26  1  0  0  0  0
 28 30  1  1  0  0  0
 29 28  1  0  0  0  0
 30 31  1  0  0  0  0
 32 27  1  6  0  0  0
 32 40  1  0  0  0  0
 32 33  1  0  0  0  0
 33 35  1  0  0  0  0
 33 34  1  6  0  0  0
 35 37  1  0  0  0  0
 35 36  1  1  0  0  0
 37 38  1  6  0  0  0
 39 37  1  0  0  0  0
 39 41  1  6  0  0  0
 40 39  1  0  0  0  0
 42 41  1  0  0  0  0
M  END
>  <CHROM.1>
-61.12520855,-92.65884461,133.65693363,68.85905659,-175.93383959,66.57118502
-173.99261345,-38.18072747,-76.03399158,-101.04829378,75.26289624,55.56161077
-156.30807623,173.88549382,-135.84718593,-171.73518253,65.82083234,-172.76006121
90.12043359,83.68812102,-172.06487303,-87.67909274,-0.25500896,3.66000826
1.10022309,2.28666512,0.59289392,-0.68271303

>  <Name>
lig.pdb

>  <RI>
0

>  <Rbt.Current_Directory>
/home/itssahil/PROJECTS/Mol_Feturizer/New_Systems/rnas/2mxs

>  <Rbt.Executable>
rbdock ($Id: //depot/dev/client3/rdock/2013.1/src/exe/rbdock.cxx#4 $)

>  <Rbt.Library>
libRbt.so (2013.1, Build901 2013/11/27)

>  <Rbt.Parameter_File>
/export/apps/rDock/src/rDock_2013.1_src/data/scripts/dock_solv.prm

>  <Rbt.Receptor>
prm/blind_docking_60.prm

>  <SCORE>
34.6238

>  <SCORE.INTER>
-2.57949

>  <SCORE.INTER.CONST>
1

>  <SCORE.INTER.POLAR>
-3.51486

>  <SCORE.INTER.ROT>
9

>  <SCORE.INTER.SOLV>
29.0721

>  <SCORE.INTER.VDW>
-9.29418

>  <SCORE.INTER.norm>
-0.0614165

>  <SCORE.INTRA>
11.585

>  <SCORE.INTRA.DIHEDRAL>
3.92691

>  <SCORE.INTRA.DIHEDRAL.0>
30.1357

>  <SCORE.INTRA.POLAR>
-0.597595

>  <SCORE.INTRA.POLAR.0>
-0.631696

>  <SCORE.INTRA.REPUL>
0.0152663

>  <SCORE.INTRA.REPUL.0>
0

>  <SCORE.INTRA.SOLV>
1.34104

>  <SCORE.INTRA.SOLV.lig_0>
-55.904

>  <SCORE.INTRA.VDW>
10.9065

>  <SCORE.INTRA.VDW.0>
-8.21197

>  <SCORE.INTRA.norm>
0.275834

>  <SCORE.RESTR>
25.6183

>  <SCORE.RESTR.CAVITY>
25.6183

>  <SCORE.RESTR.norm>
0.609959

>  <SCORE.SYSTEM>
0

>  <SCORE.SYSTEM.CONST>
0

>  <SCORE.SYSTEM.DIHEDRAL>
0

>  <SCORE.SYSTEM.SOLV>
0

>  <SCORE.SYSTEM.norm>
0

>  <SCORE.heavy>
42

>  <SCORE.norm>
0.824377

>  <RMSD>
7.119

$$$$
lig.pdb
 OpenBabel11021811453D
libRbt.so/2013.1/901 2013/11/27
 42 45  0  0  0  0  0  0  0  0999 V2000
   -1.9458    4.7148    1.3276 C   0  0  2  0  0  0  0  0  0  0  0  0
   -1.9330    5.9390    0.5908 O   0  0  0  0  0  0  0  0  0  0  0  0
   -3.2925    4.5191    2.0401 C   0  0  2  0  0  0  0  0  0  0  0  0
   -4.4133    4.6032    1.0855 N   0  0  0  0  0  0  0  0  0  0  0  0
   -3.4633    5.5306    3.1807 C   0  0  1  0  0  0  0  0  0  0  0  0
   -4.6377    5.2246    3.9079 O   0  0  0  0  0  0  0  0  0  0  0  0
   -2.2523    5.4782    4.1243 C   0  0  2  0  0  0  0  0  0  0  0  0
   -2.3528    6.5218    5.0741 O   0  0  0  0  0  0  0  0  0  0  0  0
   -0.9252    5.6041    3.3487 C   0  0  2  0  0  0  0  0  0  0  0  0
   -0.8717    4.6781    2.2639 O   0  0  0  0  0  0  0  0  0  0  0  0
    0.2304    5.3251    4.3285 C   0  0  0  0  0  0  0  0  0  0  0  0
    0.3938    6.3919    5.3008 O   0  0  0  0  0  0  0  0  0  0  0  0
    1.1984    7.9904   -1.5345 C   0  0  2  0  0  0  0  0  0  0  0  0
    2.6182    8.2641   -1.8336 N   0  0  0  0  0  0  0  0  0  0  0  0
    0.8945    8.3010   -0.0667 C   0  0  0  0  0  0  0  0  0  0  0  0
   -0.5299    7.8889    0.2855 C   0  0  2  0  0  0  0  0  0  0  0  0
   -0.8442    8.2799    1.6654 N   0  0  0  0  0  0  0  0  0  0  0  0
   -0.6651    6.3636    0.0700 C   0  0  2  0  0  0  0  0  0  0  0  0
   -0.5272    6.0778   -1.3911 C   0  0  2  0  0  0  0  0  0  0  0  0
   -0.6954    4.6836   -1.5709 O   0  0  0  0  0  0  0  0  0  0  0  0
    0.8377    6.5318   -1.8732 C   0  0  1  0  0  0  0  0  0  0  0  0
    0.9916    6.3617   -3.2698 O   0  0  0  0  0  0  0  0  0  0  0  0
    0.4346    3.8457   -1.3521 C   0  0  1  0  0  0  0  0  0  0  0  0
    0.5313    3.5742    0.1507 C   0  0  2  0  0  0  0  0  0  0  0  0
    1.8937    3.5125    0.5285 O   0  0  0  0  0  0  0  0  0  0  0  0
   -0.1882    2.2259    0.2901 C   0  0  2  0  0  0  0  0  0  0  0  0
    0.1719    1.5273    1.4822 O   0  0  0  0  0  0  0  0  0  0  0  0
    0.2583    1.5505   -1.0123 C   0  0  2  0  0  0  0  0  0  0  0  0
    0.2266    2.5880   -1.9823 O   0  0  0  0  0  0  0  0  0  0  0  0
   -0.6513    0.4069   -1.4765 C   0  0  0  0  0  0  0  0  0  0  0  0
   -0.1295   -0.2428   -2.6161 O   0  0  0  0  0  0  0  0  0  0  0  0
    0.0551    0.1083    1.3978 C   0  0  2  0  0  0  0  0  0  0  0  0
    0.3686   -0.5708    2.7397 C   0  0  2  0  0  0  0  0  0  0  0  0
   -0.4777   -0.0274    3.8150 N   0  0  0  0  0  0  0  0  0  0  0  0
    1.8608   -0.4537    3.0849 C   0  0  1  0  0  0  0  0  0  0  0  0
    2.1049   -1.1680    4.2812 O   0  0  0  0  0  0  0  0  0  0  0  0
    2.6762   -1.0592    1.9298 C   0  0  2  0  0  0  0  0  0  0  0  0
    4.0647   -0.9377    2.1786 O   0  0  0  0  0  0  0  0  0  0  0  0
    2.3093   -0.3951    0.5867 C   0  0  1  0  0  0  0  0  0  0  0  0
    0.8968   -0.4039    0.3672 O   0  0  0  0  0  0  0  0  0  0  0  0
    2.9072    1.0096    0.4187 C   0  0  0  0  0  0  0  0  0  0  0  0
    3.9073    1.0410   -0.6607 N   0  0  0  0  0  0  0  0  0  0  0  0
  1  3  1  0  0  0  0
  1  2  1  1  0  0  0
  3  4  1  6  0  0  0
  5  6  1  1  0  0  0
  5  3  1  0  0  0  0
  7  9  1  0  0  0  0
  7  5  1  0  0  0  0
  7  8  1  1  0  0  0
  9 10  1  0  0  0  0
  9 11  1  1  0  0  0
 10  1  1  0  0  0  0
 11 12  1  0  0  0  0
 13 14  1  1  0  0  0
 13 21  1  0  0  0  0
 15 13  1  0  0  0  0
 16 15  1  0  0  0  0
 16 18  1  0  0  0  0
 16 17  1  1  0  0  0
 18  2  1  6  0  0  0
 18 19  1  0  0  0  0
 19 21  1  0  0  0  0
 19 20  1  1  0  0  0
 21 22  1  6  0  0  0
 23 20  1  1  0  0  0
 23 29  1  0  0  0  0
 23 24  1  0  0  0  0
 24 26  1  0  0  0  0
 24 25  1  6  0  0  0
 26 27  1  1  0  0  0
 28 26  1  0  0  0  0
 28 30  1  6  0  0  0
 29 28  1  0  0  0  0
 30 31  1  0  0  0  0
 32 27  1  1  0  0  0
 32 40  1  0  0  0  0
 32 33  1  0  0  0  0
 33 35  1  0  0  0  0
 33 34  1  1  0  0  0
 35 37  1  0  0  0  0
 35 36  1  1  0  0  0
 37 38  1  1  0  0  0
 39 37  1  0  0  0  0
 39 41  1  1  0  0  0
 40 39  1  0  0  0  0
 42 41  1  0  0  0  0
M  END
>  <CHROM.1>
-138.15860994,169.41573667,-58.37932018,-166.06316612,-38.91504168,-175.68478736
-70.27543915,-55.24988597,-43.86845972,-82.85875266,83.19404780,-161.04306125
-177.16892899,-152.84533324,-176.25990100,-175.18359020,71.04688106,-177.72363269
-76.92916123,-35.29400326,113.55775556,59.57649128,0.03747501,3.60332788
1.00505582,2.30401670,0.97738955,-0.64069203

>  <Name>
lig.pdb

>  <RI>
3.17932e+07

>  <Rbt.Current_Directory>
/home/itssahil/PROJECTS/Mol_Feturizer/New_Systems/rnas/2mxs

>  <Rbt.Executable>
rbdock ($Id: //depot/dev/client3/rdock/2013.1/src/exe/rbdock.cxx#4 $)

>  <Rbt.Library>
libRbt.so (2013.1, Build901 2013/11/27)

>  <Rbt.Parameter_File>
/export/apps/rDock/src/rDock_2013.1_src/data/scripts/dock_solv.prm

>  <Rbt.Receptor>
prm/blind_docking_100.prm

>  <SCORE>
42.1545

>  <SCORE.INTER>
1.02525

>  <SCORE.INTER.CONST>
1

>  <SCORE.INTER.POLAR>
-3.83526

>  <SCORE.INTER.ROT>
9

>  <SCORE.INTER.SOLV>
33.137

>  <SCORE.INTER.VDW>
-7.17798

>  <SCORE.INTER.norm>
0.0244107

>  <SCORE.INTRA>
12.9451

>  <SCORE.INTRA.DIHEDRAL>
-0.351597

>  <SCORE.INTRA.DIHEDRAL.0>
30.1357

>  <SCORE.INTRA.POLAR>
0.587548

>  <SCORE.INTRA.POLAR.0>
-0.631696

>  <SCORE.INTRA.REPUL>
0.056775

>  <SCORE.INTRA.REPUL.0>
0

>  <SCORE.INTRA.SOLV>
1.43519

>  <SCORE.INTRA.SOLV.lig_0>
-55.904

>  <SCORE.INTRA.VDW>
10.1218

>  <SCORE.INTRA.VDW.0>
-8.21197

>  <SCORE.INTRA.norm>
0.308218

>  <SCORE.RESTR>
28.1841

>  <SCORE.RESTR.CAVITY>
28.1841

>  <SCORE.RESTR.norm>
0.67105

>  <SCORE.SYSTEM>
0

>  <SCORE.SYSTEM.CONST>
0

>  <SCORE.SYSTEM.DIHEDRAL>
0

>  <SCORE.SYSTEM.SOLV>
0

>  <SCORE.SYSTEM.norm>
0

>  <SCORE.heavy>
42

>  <SCORE.norm>
1.00368

>  <RMSD>
7.127

$$$$
lig.pdb
 OpenBabel11021811453D
libRbt.so/2013.1/901 2013/11/27
 42 45  0  0  0  0  0  0  0  0999 V2000
   -2.0204    4.6443    1.3743 C   0  0  2  0  0  0  0  0  0  0  0  0
   -1.9547    5.9132    0.7208 O   0  0  0  0  0  0  0  0  0  0  0  0
   -3.4001    4.4292    2.0143 C   0  0  2  0  0  0  0  0  0  0  0  0
   -4.4764    4.5971    1.0204 N   0  0  0  0  0  0  0  0  0  0  0  0
   -3.6038    5.3678    3.2106 C   0  0  1  0  0  0  0  0  0  0  0  0
   -4.8139    5.0384    3.8654 O   0  0  0  0  0  0  0  0  0  0  0  0
   -2.4363    5.2305    4.1995 C   0  0  2  0  0  0  0  0  0  0  0  0
   -2.5608    6.2121    5.2106 O   0  0  0  0  0  0  0  0  0  0  0  0
   -1.0746    5.3804    3.4912 C   0  0  2  0  0  0  0  0  0  0  0  0
   -0.9891    4.5259    2.3512 O   0  0  0  0  0  0  0  0  0  0  0  0
    0.0321    5.0157    4.4989 C   0  0  0  0  0  0  0  0  0  0  0  0
   -0.0372    5.8232    5.7045 O   0  0  0  0  0  0  0  0  0  0  0  0
    1.1822    7.8014   -1.5432 C   0  0  2  0  0  0  0  0  0  0  0  0
    2.6013    8.0185   -1.8884 N   0  0  0  0  0  0  0  0  0  0  0  0
    0.9309    8.1593   -0.0762 C   0  0  0  0  0  0  0  0  0  0  0  0
   -0.4960    7.8054    0.3258 C   0  0  2  0  0  0  0  0  0  0  0  0
   -0.7576    8.2417    1.7032 N   0  0  0  0  0  0  0  0  0  0  0  0
   -0.6885    6.2806    0.1542 C   0  0  2  0  0  0  0  0  0  0  0  0
   -0.6020    5.9535   -1.3022 C   0  0  2  0  0  0  0  0  0  0  0  0
   -0.8221    4.5618   -1.4406 O   0  0  0  0  0  0  0  0  0  0  0  0
    0.7631    6.3479   -1.8335 C   0  0  1  0  0  0  0  0  0  0  0  0
    0.8715    6.1375   -3.2288 O   0  0  0  0  0  0  0  0  0  0  0  0
    0.3133    3.7037   -1.4006 C   0  0  1  0  0  0  0  0  0  0  0  0
    0.8120    3.6554    0.0452 C   0  0  2  0  0  0  0  0  0  0  0  0
    2.2249    3.5742    0.0504 O   0  0  0  0  0  0  0  0  0  0  0  0
    0.1394    2.3860    0.5848 C   0  0  2  0  0  0  0  0  0  0  0  0
    0.8011    1.8546    1.7331 O   0  0  0  0  0  0  0  0  0  0  0  0
    0.2049    1.4989   -0.6646 C   0  0  2  0  0  0  0  0  0  0  0  0
   -0.0758    2.3796   -1.7435 O   0  0  0  0  0  0  0  0  0  0  0  0
   -0.8123    0.3520   -0.6806 C   0  0  0  0  0  0  0  0  0  0  0  0
   -0.9217   -0.2283   -1.9630 O   0  0  0  0  0  0  0  0  0  0  0  0
    0.4187    0.5243    2.0769 C   0  0  2  0  0  0  0  0  0  0  0  0
    1.1691    0.0175    3.3179 C   0  0  2  0  0  0  0  0  0  0  0  0
    0.9883    0.9366    4.4540 N   0  0  0  0  0  0  0  0  0  0  0  0
    2.6567   -0.2115    3.0112 C   0  0  1  0  0  0  0  0  0  0  0  0
    3.2758   -0.7571    4.1600 O   0  0  0  0  0  0  0  0  0  0  0  0
    2.7645   -1.1945    1.8330 C   0  0  2  0  0  0  0  0  0  0  0  0
    4.1190   -1.4077    1.4804 O   0  0  0  0  0  0  0  0  0  0  0  0
    1.9640   -0.6881    0.6156 C   0  0  1  0  0  0  0  0  0  0  0  0
    0.6205   -0.3566    0.9739 O   0  0  0  0  0  0  0  0  0  0  0  0
    2.6572    0.4589   -0.1346 C   0  0  0  0  0  0  0  0  0  0  0  0
    4.0076    0.0727   -0.5747 N   0  0  0  0  0  0  0  0  0  0  0  0
  1  3  1  0  0  0  0
  1  2  1  1  0  0  0
  3  4  1  6  0  0  0
  5  6  1  1  0  0  0
  5  3  1  0  0  0  0
  7  9  1  0  0  0  0
  7  5  1  0  0  0  0
  7  8  1  1  0  0  0
  9 10  1  0  0  0  0
  9 11  1  1  0  0  0
 10  1  1  0  0  0  0
 11 12  1  0  0  0  0
 13 14  1  1  0  0  0
 13 21  1  0  0  0  0
 15 13  1  0  0  0  0
 16 15  1  0  0  0  0
 16 18  1  0  0  0  0
 16 17  1  1  0  0  0
 18  2  1  6  0  0  0
 18 19  1  0  0  0  0
 19 21  1  0  0  0  0
 19 20  1  1  0  0  0
 21 22  1  6  0  0  0
 23 20  1  1  0  0  0
 23 29  1  0  0  0  0
 23 24  1  0  0  0  0
 24 26  1  0  0  0  0
 24 25  1  6  0  0  0
 26 27  1  1  0  0  0
 28 26  1  0  0  0  0
 28 30  1  1  0  0  0
 29 28  1  0  0  0  0
 30 31  1  0  0  0  0
 32 27  1  6  0  0  0
 32 40  1  0  0  0  0
 32 33  1  0  0  0  0
 33 35  1  0  0  0  0
 33 34  1  1  0  0  0
 35 37  1  0  0  0  0
 35 36  1  1  0  0  0
 37 38  1  6  0  0  0
 39 37  1  0  0  0  0
 39 41  1  1  0  0  0
 40 39  1  0  0  0  0
 42 41  1  0  0  0  0
M  END
>  <CHROM.1>
-144.26801132,176.02597112,69.92184326,-48.02842145,-166.29892560,-168.47006042
-56.45385239,-46.46202025,-41.78367876,-90.69877139,72.42846916,71.79339801
-42.56512082,-165.78682946,179.94803191,166.19773406,-167.14129640,-138.77891873
-61.29916318,168.62075128,56.60254068,-45.88922809,0.08794744,3.51622844
1.10597929,2.47400135,0.93785238,-0.78431532

>  <Name>
lig.pdb

>  <RI>
0

>  <Rbt.Current_Directory>
/home/itssahil/PROJECTS/Mol_Feturizer/New_Systems/rnas/2mxs

>  <Rbt.Executable>
rbdock ($Id: //depot/dev/client3/rdock/2013.1/src/exe/rbdock.cxx#4 $)

>  <Rbt.Library>
libRbt.so (2013.1, Build901 2013/11/27)

>  <Rbt.Parameter_File>
/export/apps/rDock/src/rDock_2013.1_src/data/scripts/dock_solv.prm

>  <Rbt.Receptor>
prm/blind_docking_20.prm

>  <SCORE>
17.6096

>  <SCORE.INTER>
-11.3418

>  <SCORE.INTER.CONST>
1

>  <SCORE.INTER.POLAR>
-3.81416

>  <SCORE.INTER.ROT>
9

>  <SCORE.INTER.SOLV>
32.0011

>  <SCORE.INTER.VDW>
-15.1144

>  <SCORE.INTER.norm>
-0.270042

>  <SCORE.INTRA>
17.9879

>  <SCORE.INTRA.DIHEDRAL>
-8.16216

>  <SCORE.INTRA.DIHEDRAL.0>
30.1357

>  <SCORE.INTRA.POLAR>
-0.930851

>  <SCORE.INTRA.POLAR.0>
-0.631696

>  <SCORE.INTRA.REPUL>
0.0269273

>  <SCORE.INTRA.REPUL.0>
0

>  <SCORE.INTRA.SOLV>
1.51624

>  <SCORE.INTRA.SOLV.lig_0>
-55.904

>  <SCORE.INTRA.VDW>
24.3411

>  <SCORE.INTRA.VDW.0>
-8.21197

>  <SCORE.INTRA.norm>
0.428283

>  <SCORE.RESTR>
10.9635

>  <SCORE.RESTR.CAVITY>
10.9635

>  <SCORE.RESTR.norm>
0.261035

>  <SCORE.SYSTEM>
0

>  <SCORE.SYSTEM.CONST>
0

>  <SCORE.SYSTEM.DIHEDRAL>
0

>  <SCORE.SYSTEM.SOLV>
0

>  <SCORE.SYSTEM.norm>
0

>  <SCORE.heavy>
42

>  <SCORE.norm>
0.419275

>  <RMSD>
7.139

$$$$
lig.pdb
 OpenBabel11021811453D
libRbt.so/2013.1/901 2013/11/27
 42 45  0  0  0  0  0  0  0  0999 V2000
   -0.7594    4.6240    2.1057 C   0  0  2  0  0  0  0  0  0  0  0  0
   -0.9735    5.6947    1.1842 O   0  0  0  0  0  0  0  0  0  0  0  0
   -2.0869    4.1610    2.7246 C   0  0  2  0  0  0  0  0  0  0  0  0
   -3.0627    3.8047    1.6780 N   0  0  0  0  0  0  0  0  0  0  0  0
   -2.6559    5.2287    3.6679 C   0  0  1  0  0  0  0  0  0  0  0  0
   -3.7915    4.7102    4.3335 O   0  0  0  0  0  0  0  0  0  0  0  0
   -1.6005    5.6385    4.7060 C   0  0  2  0  0  0  0  0  0  0  0  0
   -2.0868    6.7308    5.4624 O   0  0  0  0  0  0  0  0  0  0  0  0
   -0.2658    6.0213    4.0349 C   0  0  2  0  0  0  0  0  0  0  0  0
    0.1617    5.0102    3.1227 O   0  0  0  0  0  0  0  0  0  0  0  0
    0.7909    6.2050    5.1406 C   0  0  0  0  0  0  0  0  0  0  0  0
    0.9504    5.0093    5.9501 O   0  0  0  0  0  0  0  0  0  0  0  0
    1.8459    7.5439   -1.4921 C   0  0  2  0  0  0  0  0  0  0  0  0
    3.1391    8.1906   -1.7916 N   0  0  0  0  0  0  0  0  0  0  0  0
    1.0657    8.3658   -0.4630 C   0  0  0  0  0  0  0  0  0  0  0  0
   -0.2043    7.6351   -0.0436 C   0  0  2  0  0  0  0  0  0  0  0  0
   -0.9939    8.4731    0.8675 N   0  0  0  0  0  0  0  0  0  0  0  0
    0.1971    6.2906    0.6066 C   0  0  2  0  0  0  0  0  0  0  0  0
    0.8166    5.4238   -0.4424 C   0  0  2  0  0  0  0  0  0  0  0  0
    1.1381    4.1850    0.1631 O   0  0  0  0  0  0  0  0  0  0  0  0
    2.0558    6.1005   -0.9971 C   0  0  1  0  0  0  0  0  0  0  0  0
    2.6367    5.3611   -2.0549 O   0  0  0  0  0  0  0  0  0  0  0  0
    1.9374    3.2712   -0.5806 C   0  0  1  0  0  0  0  0  0  0  0  0
    2.0128    1.9641    0.2115 C   0  0  2  0  0  0  0  0  0  0  0  0
    3.2953    1.3894    0.0453 O   0  0  0  0  0  0  0  0  0  0  0  0
    0.8962    1.1263   -0.4259 C   0  0  2  0  0  0  0  0  0  0  0  0
    1.0635   -0.2751   -0.2092 O   0  0  0  0  0  0  0  0  0  0  0  0
    1.0301    1.5728   -1.8870 C   0  0  2  0  0  0  0  0  0  0  0  0
    1.2950    2.9666   -1.8122 O   0  0  0  0  0  0  0  0  0  0  0  0
   -0.2278    1.3500   -2.7348 C   0  0  0  0  0  0  0  0  0  0  0  0
   -0.0637    1.8416   -4.0480 O   0  0  0  0  0  0  0  0  0  0  0  0
    0.2628   -0.8139    0.8407 C   0  0  2  0  0  0  0  0  0  0  0  0
   -0.4500    0.2888    1.6383 C   0  0  2  0  0  0  0  0  0  0  0  0
   -1.2446    1.1519    0.7485 N   0  0  0  0  0  0  0  0  0  0  0  0
    0.5503    1.1068    2.4690 C   0  0  1  0  0  0  0  0  0  0  0  0
   -0.1686    2.0460    3.2447 O   0  0  0  0  0  0  0  0  0  0  0  0
    1.3241    0.1435    3.3851 C   0  0  2  0  0  0  0  0  0  0  0  0
    2.2927    0.8433    4.1443 O   0  0  0  0  0  0  0  0  0  0  0  0
    1.9905   -0.9818    2.5670 C   0  0  1  0  0  0  0  0  0  0  0  0
    1.0512   -1.6288    1.7053 O   0  0  0  0  0  0  0  0  0  0  0  0
    3.2437   -0.5220    1.8075 C   0  0  0  0  0  0  0  0  0  0  0  0
    3.4603   -1.3262    0.5940 N   0  0  0  0  0  0  0  0  0  0  0  0
  1  3  1  0  0  0  0
  1  2  1  6  0  0  0
  3  4  1  6  0  0  0
  5  6  1  1  0  0  0
  5  3  1  0  0  0  0
  7  9  1  0  0  0  0
  7  5  1  0  0  0  0
  7  8  1  6  0  0  0
  9 10  1  0  0  0  0
  9 11  1  1  0  0  0
 10  1  1  0  0  0  0
 11 12  1  0  0  0  0
 13 14  1  1  0  0  0
 13 21  1  0  0  0  0
 15 13  1  0  0  0  0
 16 15  1  0  0  0  0
 16 18  1  0  0  0  0
 16 17  1  1  0  0  0
 18  2  1  6  0  0  0
 18 19  1  0  0  0  0
 19 21  1  0  0  0  0
 19 20  1  1  0  0  0
 21 22  1  6  0  0  0
 23 20  1  1  0  0  0
 23 29  1  0  0  0  0
 23 24  1  0  0  0  0
 24 26  1  0  0  0  0
 24 25  1  6  0  0  0
 26 27  1  6  0  0  0
 28 26  1  0  0  0  0
 28 30  1  6  0  0  0
 29 28  1  0  0  0  0
 30 31  1  0  0  0  0
 32 27  1  6  0  0  0
 32 40  1  0  0  0  0
 32 33  1  0  0  0  0
 33 35  1  0  0  0  0
 33 34  1  6  0  0  0
 35 37  1  0  0  0  0
 35 36  1  1  0  0  0
 37 38  1  6  0  0  0
 39 37  1  0  0  0  0
 39 41  1  6  0  0  0
 40 39  1  0  0  0  0
 42 41  1  0  0  0  0
M  END
>  <CHROM.1>
-165.09560215,175.51000603,175.14456395,-64.90838391,75.99305185,-171.05463176
57.80908838,69.95924274,-142.00189165,-169.94865978,-173.76916714,-59.61205612
-60.59842625,100.13651806,-8.41882951,177.03586781,-174.99351585,10.55239096
-162.18590493,-179.17831151,-152.01348363,48.22385799,0.46788867,3.47328776
1.19795122,2.32195379,1.12692115,-0.43365951

>  <Name>
lig.pdb

>  <RI>
0

>  <Rbt.Current_Directory>
/home/itssahil/PROJECTS/Mol_Feturizer/New_Systems/rnas/2mxs

>  <Rbt.Executable>
rbdock ($Id: //depot/dev/client3/rdock/2013.1/src/exe/rbdock.cxx#4 $)

>  <Rbt.Library>
libRbt.so (2013.1, Build901 2013/11/27)

>  <Rbt.Parameter_File>
/export/apps/rDock/src/rDock_2013.1_src/data/scripts/dock_solv.prm

>  <Rbt.Receptor>
prm/blind_docking_20.prm

>  <SCORE>
28.4963

>  <SCORE.INTER>
0.172279

>  <SCORE.INTER.CONST>
1

>  <SCORE.INTER.POLAR>
-1.33119

>  <SCORE.INTER.ROT>
9

>  <SCORE.INTER.SOLV>
25.4932

>  <SCORE.INTER.VDW>
-13.5456

>  <SCORE.INTER.norm>
0.00410187

>  <SCORE.INTRA>
13.4158

>  <SCORE.INTRA.DIHEDRAL>
-3.4804

>  <SCORE.INTRA.DIHEDRAL.0>
30.1357

>  <SCORE.INTRA.POLAR>
-0.443131

>  <SCORE.INTRA.POLAR.0>
-0.631696

>  <SCORE.INTRA.REPUL>
0

>  <SCORE.INTRA.REPUL.0>
0

>  <SCORE.INTRA.SOLV>
3.59099

>  <SCORE.INTRA.SOLV.lig_0>
-55.904

>  <SCORE.INTRA.VDW>
14.8671

>  <SCORE.INTRA.VDW.0>
-8.21197

>  <SCORE.INTRA.norm>
0.319423

>  <SCORE.RESTR>
14.9083

>  <SCORE.RESTR.CAVITY>
14.9083

>  <SCORE.RESTR.norm>
0.354959

>  <SCORE.SYSTEM>
0

>  <SCORE.SYSTEM.CONST>
0

>  <SCORE.SYSTEM.DIHEDRAL>
0

>  <SCORE.SYSTEM.SOLV>
0

>  <SCORE.SYSTEM.norm>
0

>  <SCORE.heavy>
42

>  <SCORE.norm>
0.678484

>  <RMSD>
7.145

$$$$
lig.pdb
 OpenBabel11021811453D
libRbt.so/2013.1/901 2013/11/27
 42 45  0  0  0  0  0  0  0  0999 V2000
   -1.9183    4.8530    1.5673 C   0  0  2  0  0  0  0  0  0  0  0  0
   -1.8805    6.0236    0.7490 O   0  0  0  0  0  0  0  0  0  0  0  0
   -3.3613    4.5131    1.9696 C   0  0  2  0  0  0  0  0  0  0  0  0
   -4.2261    4.3872    0.7818 N   0  0  0  0  0  0  0  0  0  0  0  0
   -3.9189    5.5539    2.9491 C   0  0  1  0  0  0  0  0  0  0  0  0
   -5.1858    5.1296    3.4144 O   0  0  0  0  0  0  0  0  0  0  0  0
   -2.9683    5.7229    4.1440 C   0  0  2  0  0  0  0  0  0  0  0  0
   -3.4169    6.7945    4.9515 O   0  0  0  0  0  0  0  0  0  0  0  0
   -1.5209    5.9875    3.6821 C   0  0  2  0  0  0  0  0  0  0  0  0
   -1.1001    5.0183    2.7227 O   0  0  0  0  0  0  0  0  0  0  0  0
   -0.6049    5.9269    4.9192 C   0  0  0  0  0  0  0  0  0  0  0  0
    0.7785    6.2258    4.5916 O   0  0  0  0  0  0  0  0  0  0  0  0
    1.2445    7.7743   -1.6387 C   0  0  2  0  0  0  0  0  0  0  0  0
    2.6593    7.9459   -2.0247 N   0  0  0  0  0  0  0  0  0  0  0  0
    1.0401    8.1737   -0.1752 C   0  0  0  0  0  0  0  0  0  0  0  0
   -0.3845    7.8670    0.2711 C   0  0  2  0  0  0  0  0  0  0  0  0
   -0.5994    8.3429    1.6435 N   0  0  0  0  0  0  0  0  0  0  0  0
   -0.6203    6.3441    0.1420 C   0  0  2  0  0  0  0  0  0  0  0  0
   -0.5796    5.9800   -1.3076 C   0  0  2  0  0  0  0  0  0  0  0  0
   -0.8387    4.5916   -1.4062 O   0  0  0  0  0  0  0  0  0  0  0  0
    0.7810    6.3258   -1.8825 C   0  0  1  0  0  0  0  0  0  0  0  0
    0.8481    6.0792   -3.2746 O   0  0  0  0  0  0  0  0  0  0  0  0
    0.2781    3.7090   -1.4334 C   0  0  1  0  0  0  0  0  0  0  0  0
    0.8532    3.6389   -0.0172 C   0  0  2  0  0  0  0  0  0  0  0  0
    2.2621    3.5272   -0.0891 O   0  0  0  0  0  0  0  0  0  0  0  0
    0.1830    2.3801    0.5498 C   0  0  2  0  0  0  0  0  0  0  0  0
    0.8940    1.8258    1.6571 O   0  0  0  0  0  0  0  0  0  0  0  0
    0.1614    1.5015   -0.7070 C   0  0  2  0  0  0  0  0  0  0  0  0
   -0.1578    2.3963   -1.7633 O   0  0  0  0  0  0  0  0  0  0  0  0
   -0.8801    0.3769   -0.6753 C   0  0  0  0  0  0  0  0  0  0  0  0
   -2.1767    0.8757   -0.4238 O   0  0  0  0  0  0  0  0  0  0  0  0
    0.5379    0.4830    1.9800 C   0  0  2  0  0  0  0  0  0  0  0  0
    1.3248   -0.0406    3.1911 C   0  0  2  0  0  0  0  0  0  0  0  0
    1.1592    0.8506    4.3515 N   0  0  0  0  0  0  0  0  0  0  0  0
    2.8075   -0.2420    2.8439 C   0  0  1  0  0  0  0  0  0  0  0  0
    3.4614   -0.8042    3.9651 O   0  0  0  0  0  0  0  0  0  0  0  0
    2.9000   -1.1971    1.6418 C   0  0  2  0  0  0  0  0  0  0  0  0
    4.2483   -1.3836    1.2522 O   0  0  0  0  0  0  0  0  0  0  0  0
    2.0635   -0.6751    0.4554 C   0  0  1  0  0  0  0  0  0  0  0  0
    0.7248   -0.3704    0.8531 O   0  0  0  0  0  0  0  0  0  0  0  0
    2.7231    0.4977   -0.2851 C   0  0  0  0  0  0  0  0  0  0  0  0
    4.1063    0.1772   -0.6726 N   0  0  0  0  0  0  0  0  0  0  0  0
  1  3  1  0  0  0  0
  1  2  1  1  0  0  0
  3  4  1  6  0  0  0
  5  6  1  1  0  0  0
  5  3  1  0  0  0  0
  7  9  1  0  0  0  0
  7  5  1  0  0  0  0
  7  8  1  1  0  0  0
  9 10  1  0  0  0  0
  9 11  1  1  0  0  0
 10  1  1  0  0  0  0
 11 12  1  0  0  0  0
 13 14  1  1  0  0  0
 13 21  1  0  0  0  0
 15 13  1  0  0  0  0
 16 15  1  0  0  0  0
 16 18  1  0  0  0  0
 16 17  1  1  0  0  0
 18  2  1  6  0  0  0
 18 19  1  0  0  0  0
 19 21  1  0  0  0  0
 19 20  1  1  0  0  0
 21 22  1  6  0  0  0
 23 20  1  1  0  0  0
 23 29  1  0  0  0  0
 23 24  1  0  0  0  0
 24 26  1  0  0  0  0
 24 25  1  6  0  0  0
 26 27  1  1  0  0  0
 28 26  1  0  0  0  0
 28 30  1  1  0  0  0
 29 28  1  0  0  0  0
 30 31  1  0  0  0  0
 32 27  1  6  0  0  0
 32 40  1  0  0  0  0
 32 33  1  0  0  0  0
 33 35  1  0  0  0  0
 33 34  1  1  0  0  0
 35 37  1  0  0  0  0
 35 36  1  1  0  0  0
 37 38  1  6  0  0  0
 39 37  1  0  0  0  0
 39 41  1  1  0  0  0
 40 39  1  0  0  0  0
 42 41  1  0  0  0  0
M  END
>  <CHROM.1>
-137.05689290,-171.22925159,-176.74549745,51.51563490,-94.84594118,-70.75702949
-177.37105678,-170.94207319,-173.88154888,-93.42984577,74.11681849,70.91651120
-162.09175972,-163.48933551,-179.13912217,54.84800337,-170.63725516,-26.20074437
7.31138695,172.13843515,52.09887953,-44.78468735,0.05690471,3.63585408,1.05124030
2.42361933,0.83877148,-0.65998874

>  <Name>
lig.pdb

>  <RI>
0

>  <Rbt.Current_Directory>
/home/itssahil/PROJECTS/Mol_Feturizer/New_Systems/rnas/2mxs

>  <Rbt.Executable>
rbdock ($Id: //depot/dev/client3/rdock/2013.1/src/exe/rbdock.cxx#4 $)

>  <Rbt.Library>
libRbt.so (2013.1, Build901 2013/11/27)

>  <Rbt.Parameter_File>
/export/apps/rDock/src/rDock_2013.1_src/data/scripts/dock_solv.prm

>  <Rbt.Receptor>
prm/blind_docking_60.prm

>  <SCORE>
50.0609

>  <SCORE.INTER>
8.93951

>  <SCORE.INTER.CONST>
1

>  <SCORE.INTER.POLAR>
-3.98031

>  <SCORE.INTER.ROT>
9

>  <SCORE.INTER.SOLV>
35.1229

>  <SCORE.INTER.VDW>
-2.08027

>  <SCORE.INTER.norm>
0.212845

>  <SCORE.INTRA>
20.4074

>  <SCORE.INTRA.DIHEDRAL>
1.68167

>  <SCORE.INTRA.DIHEDRAL.0>
30.1357

>  <SCORE.INTRA.POLAR>
-0.000760571

>  <SCORE.INTRA.POLAR.0>
-0.631696

>  <SCORE.INTRA.REPUL>
0.0262027

>  <SCORE.INTRA.REPUL.0>
0

>  <SCORE.INTRA.SOLV>
1.18548

>  <SCORE.INTRA.SOLV.lig_0>
-55.904

>  <SCORE.INTRA.VDW>
18.8454

>  <SCORE.INTRA.VDW.0>
-8.21197

>  <SCORE.INTRA.norm>
0.485889

>  <SCORE.RESTR>
20.714

>  <SCORE.RESTR.CAVITY>
20.714

>  <SCORE.RESTR.norm>
0.493191

>  <SCORE.SYSTEM>
0

>  <SCORE.SYSTEM.CONST>
0

>  <SCORE.SYSTEM.DIHEDRAL>
0

>  <SCORE.SYSTEM.SOLV>
0

>  <SCORE.SYSTEM.norm>
0

>  <SCORE.heavy>
42

>  <SCORE.norm>
1.19193

>  <RMSD>
7.152

$$$$
lig.pdb
 OpenBabel11021811453D
libRbt.so/2013.1/901 2013/11/27
 42 45  0  0  0  0  0  0  0  0999 V2000
   -1.9363    4.8631    1.3937 C   0  0  2  0  0  0  0  0  0  0  0  0
   -1.8633    6.0164    0.5534 O   0  0  0  0  0  0  0  0  0  0  0  0
   -3.2689    4.8255    2.1568 C   0  0  2  0  0  0  0  0  0  0  0  0
   -4.4123    4.9088    1.2293 N   0  0  0  0  0  0  0  0  0  0  0  0
   -3.3314    5.9397    3.2096 C   0  0  1  0  0  0  0  0  0  0  0  0
   -4.4993    5.7814    3.9922 O   0  0  0  0  0  0  0  0  0  0  0  0
   -2.0962    5.8805    4.1209 C   0  0  2  0  0  0  0  0  0  0  0  0
   -2.0927    7.0054    4.9789 O   0  0  0  0  0  0  0  0  0  0  0  0
   -0.7901    5.8447    3.3016 C   0  0  2  0  0  0  0  0  0  0  0  0
   -0.8368    4.8288    2.3002 O   0  0  0  0  0  0  0  0  0  0  0  0
    0.3753    5.5674    4.2702 C   0  0  0  0  0  0  0  0  0  0  0  0
    0.5757    6.6554    5.2117 O   0  0  0  0  0  0  0  0  0  0  0  0
    1.3682    7.7446   -1.7052 C   0  0  2  0  0  0  0  0  0  0  0  0
    2.7987    7.9055   -2.0341 N   0  0  0  0  0  0  0  0  0  0  0  0
    1.1085    8.1443   -0.2506 C   0  0  0  0  0  0  0  0  0  0  0  0
   -0.3352    7.8485    0.1380 C   0  0  2  0  0  0  0  0  0  0  0  0
   -0.6011    8.3248    1.5012 N   0  0  0  0  0  0  0  0  0  0  0  0
   -0.5774    6.3276   -0.0023 C   0  0  2  0  0  0  0  0  0  0  0  0
   -0.4815    5.9644   -1.4495 C   0  0  2  0  0  0  0  0  0  0  0  0
   -0.7473    4.5782   -1.5601 O   0  0  0  0  0  0  0  0  0  0  0  0
    0.9036    6.3000   -1.9691 C   0  0  1  0  0  0  0  0  0  0  0  0
    1.0244    6.0541   -3.3577 O   0  0  0  0  0  0  0  0  0  0  0  0
    0.3636    3.6878   -1.5576 C   0  0  1  0  0  0  0  0  0  0  0  0
    0.8822    3.5914   -0.1212 C   0  0  2  0  0  0  0  0  0  0  0  0
    2.2921    3.4704   -0.1397 O   0  0  0  0  0  0  0  0  0  0  0  0
    0.1818    2.3289    0.3991 C   0  0  2  0  0  0  0  0  0  0  0  0
    0.8451    1.7521    1.5244 O   0  0  0  0  0  0  0  0  0  0  0  0
    0.2035    1.4702   -0.8714 C   0  0  2  0  0  0  0  0  0  0  0  0
   -0.0679    2.3837   -1.9251 O   0  0  0  0  0  0  0  0  0  0  0  0
   -0.8460    0.3529   -0.8983 C   0  0  0  0  0  0  0  0  0  0  0  0
   -2.1473    0.8663   -1.0885 O   0  0  0  0  0  0  0  0  0  0  0  0
    0.5289    0.3819    1.7626 C   0  0  2  0  0  0  0  0  0  0  0  0
    1.2934   -0.1782    2.9717 C   0  0  2  0  0  0  0  0  0  0  0  0
    1.0552    0.6421    4.1710 N   0  0  0  0  0  0  0  0  0  0  0  0
    2.7935   -0.3075    2.6677 C   0  0  1  0  0  0  0  0  0  0  0  0
    3.4297   -0.9061    3.7802 O   0  0  0  0  0  0  0  0  0  0  0  0
    2.9625   -1.1920    1.4207 C   0  0  2  0  0  0  0  0  0  0  0  0
    4.3293   -1.3087    1.0704 O   0  0  0  0  0  0  0  0  0  0  0  0
    2.1478   -0.6365    0.2345 C   0  0  1  0  0  0  0  0  0  0  0  0
    0.7858   -0.4017    0.5994 O   0  0  0  0  0  0  0  0  0  0  0  0
    2.7875    0.5976   -0.4187 C   0  0  0  0  0  0  0  0  0  0  0  0
    4.1715    0.3250   -0.8389 N   0  0  0  0  0  0  0  0  0  0  0  0
  1  3  1  0  0  0  0
  1  2  1  1  0  0  0
  3  4  1  6  0  0  0
  5  6  1  1  0  0  0
  5  3  1  0  0  0  0
  7  9  1  0  0  0  0
  7  5  1  0  0  0  0
  7  8  1  1  0  0  0
  9 10  1  0  0  0  0
  9 11  1  1  0  0  0
 10  1  1  0  0  0  0
 11 12  1  0  0  0  0
 13 14  1  1  0  0  0
 13 21  1  0  0  0  0
 15 13  1  0  0  0  0
 16 15  1  0  0  0  0
 16 18  1  0  0  0  0
 16 17  1  1  0  0  0
 18  2  1  6  0  0  0
 18 19  1  0  0  0  0
 19 21  1  0  0  0  0
 19 20  1  1  0  0  0
 21 22  1  6  0  0  0
 23 20  1  1  0  0  0
 23 29  1  0  0  0  0
 23 24  1  0  0  0  0
 24 26  1  0  0  0  0
 24 25  1  6  0  0  0
 26 27  1  1  0  0  0
 28 26  1  0  0  0  0
 28 30  1  1  0  0  0
 29 28  1  0  0  0  0
 30 31  1  0  0  0  0
 32 27  1  6  0  0  0
 32 40  1  0  0  0  0
 32 33  1  0  0  0  0
 33 35  1  0  0  0  0
 33 34  1  1  0  0  0
 35 37  1  0  0  0  0
 35 36  1  1  0  0  0
 37 38  1  6  0  0  0
 39 37  1  0  0  0  0
 39 41  1  1  0  0  0
 40 39  1  0  0  0  0
 42 41  1  0  0  0  0
M  END
>  <CHROM.1>
-135.63201643,167.49276105,-84.41792116,63.00979582,55.87025234,50.88576188
-65.71275904,-51.45666095,-52.34412261,-94.06826163,75.04269989,62.17673417
-158.78142197,-159.83565945,179.08544191,72.32447126,174.52974177,-153.54983546
-75.44473813,-174.68880490,55.18335465,57.74540587,0.20830896,3.67039838
0.94766448,2.50254020,0.95535468,-0.74653941

>  <Name>
lig.pdb

>  <RI>
0

>  <Rbt.Current_Directory>
/home/itssahil/PROJECTS/Mol_Feturizer/New_Systems/rnas/2mxs

>  <Rbt.Executable>
rbdock ($Id: //depot/dev/client3/rdock/2013.1/src/exe/rbdock.cxx#4 $)

>  <Rbt.Library>
libRbt.so (2013.1, Build901 2013/11/27)

>  <Rbt.Parameter_File>
/export/apps/rDock/src/rDock_2013.1_src/data/scripts/dock_solv.prm

>  <Rbt.Receptor>
prm/blind_docking_60.prm

>  <SCORE>
29.7487

>  <SCORE.INTER>
-5.33945

>  <SCORE.INTER.CONST>
1

>  <SCORE.INTER.POLAR>
-3.88808

>  <SCORE.INTER.ROT>
9

>  <SCORE.INTER.SOLV>
33.2285

>  <SCORE.INTER.VDW>
-11.2755

>  <SCORE.INTER.norm>
-0.12713

>  <SCORE.INTRA>
16.25

>  <SCORE.INTRA.DIHEDRAL>
-7.6453

>  <SCORE.INTRA.DIHEDRAL.0>
30.1357

>  <SCORE.INTRA.POLAR>
-0.187693

>  <SCORE.INTRA.POLAR.0>
-0.631696

>  <SCORE.INTRA.REPUL>
0.0522612

>  <SCORE.INTRA.REPUL.0>
0

>  <SCORE.INTRA.SOLV>
2.14339

>  <SCORE.INTRA.SOLV.lig_0>
-55.904

>  <SCORE.INTRA.VDW>
19.3778

>  <SCORE.INTRA.VDW.0>
-8.21197

>  <SCORE.INTRA.norm>
0.386905

>  <SCORE.RESTR>
18.8382

>  <SCORE.RESTR.CAVITY>
18.8382

>  <SCORE.RESTR.norm>
0.448527

>  <SCORE.SYSTEM>
0

>  <SCORE.SYSTEM.CONST>
0

>  <SCORE.SYSTEM.DIHEDRAL>
0

>  <SCORE.SYSTEM.SOLV>
0

>  <SCORE.SYSTEM.norm>
0

>  <SCORE.heavy>
42

>  <SCORE.norm>
0.708302

>  <RMSD>
7.156

$$$$
lig.pdb
 OpenBabel11021811453D
libRbt.so/2013.1/901 2013/11/27
 42 45  0  0  0  0  0  0  0  0999 V2000
   -1.8846    4.7746    1.3286 C   0  0  2  0  0  0  0  0  0  0  0  0
   -1.8081    6.0427    0.6749 O   0  0  0  0  0  0  0  0  0  0  0  0
   -3.2753    4.5595    1.9445 C   0  0  2  0  0  0  0  0  0  0  0  0
   -4.3339    4.7257    0.9315 N   0  0  0  0  0  0  0  0  0  0  0  0
   -3.5005    5.4993    3.1359 C   0  0  1  0  0  0  0  0  0  0  0  0
   -4.7218    5.1700    3.7696 O   0  0  0  0  0  0  0  0  0  0  0  0
   -2.3506    5.3637    4.1454 C   0  0  2  0  0  0  0  0  0  0  0  0
   -2.4934    6.3465    5.1530 O   0  0  0  0  0  0  0  0  0  0  0  0
   -0.9767    5.5135    3.4610 C   0  0  2  0  0  0  0  0  0  0  0  0
   -0.8707    4.6578    2.3237 O   0  0  0  0  0  0  0  0  0  0  0  0
    0.1123    5.1506    4.4886 C   0  0  0  0  0  0  0  0  0  0  0  0
    0.3881    6.2445    5.4038 O   0  0  0  0  0  0  0  0  0  0  0  0
    1.3070    7.8373   -1.6930 C   0  0  2  0  0  0  0  0  0  0  0  0
    2.7225    8.0378   -2.0622 N   0  0  0  0  0  0  0  0  0  0  0  0
    1.0731    8.2501   -0.2377 C   0  0  0  0  0  0  0  0  0  0  0  0
   -0.3498    7.9151    0.1934 C   0  0  2  0  0  0  0  0  0  0  0  0
   -0.5947    8.4030    1.5564 N   0  0  0  0  0  0  0  0  0  0  0  0
   -0.5476    6.3855    0.0808 C   0  0  2  0  0  0  0  0  0  0  0  0
   -0.4784    6.0043   -1.3633 C   0  0  2  0  0  0  0  0  0  0  0  0
   -0.7031    4.6090   -1.4475 O   0  0  0  0  0  0  0  0  0  0  0  0
    0.8814    6.3752   -1.9243 C   0  0  1  0  0  0  0  0  0  0  0  0
    0.9734    6.1128   -3.3120 O   0  0  0  0  0  0  0  0  0  0  0  0
    0.4345    3.7530   -1.4480 C   0  0  1  0  0  0  0  0  0  0  0  0
    0.9851    3.7063   -0.0211 C   0  0  2  0  0  0  0  0  0  0  0  0
    2.3974    3.6277   -0.0666 O   0  0  0  0  0  0  0  0  0  0  0  0
    0.3347    2.4359    0.5429 C   0  0  2  0  0  0  0  0  0  0  0  0
    1.0383    1.9063    1.6669 O   0  0  0  0  0  0  0  0  0  0  0  0
    0.3568    1.5484   -0.7076 C   0  0  2  0  0  0  0  0  0  0  0  0
    0.0359    2.4280   -1.7761 O   0  0  0  0  0  0  0  0  0  0  0  0
   -0.6582    0.3995   -0.6865 C   0  0  0  0  0  0  0  0  0  0  0  0
   -0.4488   -0.4990   -1.7551 O   0  0  0  0  0  0  0  0  0  0  0  0
    0.7428    0.5431    1.9645 C   0  0  2  0  0  0  0  0  0  0  0  0
    1.4772    0.0622    3.2253 C   0  0  2  0  0  0  0  0  0  0  0  0
    1.1813    0.9366    4.3725 N   0  0  0  0  0  0  0  0  0  0  0  0
    2.9892   -0.0484    2.9779 C   0  0  1  0  0  0  0  0  0  0  0  0
    3.5995   -0.5754    4.1400 O   0  0  0  0  0  0  0  0  0  0  0  0
    3.2190   -0.9907    1.7841 C   0  0  2  0  0  0  0  0  0  0  0  0
    4.5991   -1.0942    1.4855 O   0  0  0  0  0  0  0  0  0  0  0  0
    2.4337   -0.5144    0.5448 C   0  0  1  0  0  0  0  0  0  0  0  0
    1.0555   -0.2924    0.8522 O   0  0  0  0  0  0  0  0  0  0  0  0
    3.0694    0.6991   -0.1494 C   0  0  0  0  0  0  0  0  0  0  0  0
    4.3661    0.3529   -0.7535 N   0  0  0  0  0  0  0  0  0  0  0  0
  1  3  1  0  0  0  0
  1  2  1  1  0  0  0
  3  4  1  6  0  0  0
  5  6  1  1  0  0  0
  5  3  1  0  0  0  0
  7  9  1  0  0  0  0
  7  5  1  0  0  0  0
  7  8  1  1  0  0  0
  9 10  1  0  0  0  0
  9 11  1  1  0  0  0
 10  1  1  0  0  0  0
 11 12  1  0  0  0  0
 13 14  1  1  0  0  0
 13 21  1  0  0  0  0
 15 13  1  0  0  0  0
 16 15  1  0  0  0  0
 16 18  1  0  0  0  0
 16 17  1  1  0  0  0
 18  2  1  6  0  0  0
 18 19  1  0  0  0  0
 19 21  1  0  0  0  0
 19 20  1  1  0  0  0
 21 22  1  6  0  0  0
 23 20  1  1  0  0  0
 23 29  1  0  0  0  0
 23 24  1  0  0  0  0
 24 26  1  0  0  0  0
 24 25  1  6  0  0  0
 26 27  1  1  0  0  0
 28 26  1  0  0  0  0
 28 30  1  1  0  0  0
 29 28  1  0  0  0  0
 30 31  1  0  0  0  0
 32 27  1  6  0  0  0
 32 40  1  0  0  0  0
 32 33  1  0  0  0  0
 33 35  1  0  0  0  0
 33 34  1  1  0  0  0
 35 37  1  0  0  0  0
 35 36  1  1  0  0  0
 37 38  1  6  0  0  0
 39 37  1  0  0  0  0
 39 41  1  1  0  0  0
 40 39  1  0  0  0  0
 42 41  1  0  0  0  0
M  END
>  <CHROM.1>
-146.75725675,178.59192057,26.85910372,70.53996688,-47.69917972,-174.69333086
-79.88877372,173.33543744,-58.61161926,-93.41669393,74.52835542,-143.25491082
-34.59732702,-161.40240416,-177.03463759,-170.68204139,71.33438898,-141.32829132
36.12509622,-174.38475747,66.87681973,61.01033371,0.29814860,3.61718474,1.03417252
2.51669641,0.90929312,-0.80366300

>  <Name>
lig.pdb

>  <RI>
0

>  <Rbt.Current_Directory>
/home/itssahil/PROJECTS/Mol_Feturizer/New_Systems/rnas/2mxs

>  <Rbt.Executable>
rbdock ($Id: //depot/dev/client3/rdock/2013.1/src/exe/rbdock.cxx#4 $)

>  <Rbt.Library>
libRbt.so (2013.1, Build901 2013/11/27)

>  <Rbt.Parameter_File>
/export/apps/rDock/src/rDock_2013.1_src/data/scripts/dock_solv.prm

>  <Rbt.Receptor>
prm/blind_docking_60.prm

>  <SCORE>
58.5704

>  <SCORE.INTER>
21.3919

>  <SCORE.INTER.CONST>
1

>  <SCORE.INTER.POLAR>
-4.08545

>  <SCORE.INTER.ROT>
9

>  <SCORE.INTER.SOLV>
34.1448

>  <SCORE.INTER.VDW>
6.8978

>  <SCORE.INTER.norm>
0.50933

>  <SCORE.INTRA>
17.1988

>  <SCORE.INTRA.DIHEDRAL>
0.0752626

>  <SCORE.INTRA.DIHEDRAL.0>
30.1357

>  <SCORE.INTRA.POLAR>
0.359099

>  <SCORE.INTRA.POLAR.0>
-0.631696

>  <SCORE.INTRA.REPUL>
0

>  <SCORE.INTRA.REPUL.0>
0

>  <SCORE.INTRA.SOLV>
1.09173

>  <SCORE.INTRA.SOLV.lig_0>
-55.904

>  <SCORE.INTRA.VDW>
15.3944

>  <SCORE.INTRA.VDW.0>
-8.21197

>  <SCORE.INTRA.norm>
0.409496

>  <SCORE.RESTR>
19.9797

>  <SCORE.RESTR.CAVITY>
19.9797

>  <SCORE.RESTR.norm>
0.475707

>  <SCORE.SYSTEM>
0

>  <SCORE.SYSTEM.CONST>
0

>  <SCORE.SYSTEM.DIHEDRAL>
0

>  <SCORE.SYSTEM.SOLV>
0

>  <SCORE.SYSTEM.norm>
0

>  <SCORE.heavy>
42

>  <SCORE.norm>
1.39453

>  <RMSD>
7.159

$$$$
lig.pdb
 OpenBabel11021811453D
libRbt.so/2013.1/901 2013/11/27
 42 45  0  0  0  0  0  0  0  0999 V2000
   -1.7222    4.5871    4.1350 C   0  0  2  0  0  0  0  0  0  0  0  0
   -0.8570    5.7234    4.0912 O   0  0  0  0  0  0  0  0  0  0  0  0
   -0.9379    3.2919    3.8760 C   0  0  2  0  0  0  0  0  0  0  0  0
    0.1944    3.1629    4.8118 N   0  0  0  0  0  0  0  0  0  0  0  0
   -0.4601    3.2202    2.4200 C   0  0  1  0  0  0  0  0  0  0  0  0
    0.1218    1.9534    2.1785 O   0  0  0  0  0  0  0  0  0  0  0  0
   -1.6421    3.4285    1.4612 C   0  0  2  0  0  0  0  0  0  0  0  0
   -1.1591    3.5170    0.1344 O   0  0  0  0  0  0  0  0  0  0  0  0
   -2.4381    4.7016    1.8130 C   0  0  2  0  0  0  0  0  0  0  0  0
   -2.7863    4.7265    3.1969 O   0  0  0  0  0  0  0  0  0  0  0  0
   -3.7170    4.7194    0.9543 C   0  0  0  0  0  0  0  0  0  0  0  0
   -4.5723    3.5760    1.2217 O   0  0  0  0  0  0  0  0  0  0  0  0
   -0.0085    8.7211    7.0618 C   0  0  2  0  0  0  0  0  0  0  0  0
   -0.3967    9.6116    8.1737 N   0  0  0  0  0  0  0  0  0  0  0  0
   -0.8240    9.0485    5.8084 C   0  0  0  0  0  0  0  0  0  0  0  0
   -0.5311    8.0445    4.6998 C   0  0  2  0  0  0  0  0  0  0  0  0
   -1.2418    8.4231    3.4721 N   0  0  0  0  0  0  0  0  0  0  0  0
   -0.9382    6.6370    5.1947 C   0  0  2  0  0  0  0  0  0  0  0  0
   -0.0322    6.2503    6.3195 C   0  0  2  0  0  0  0  0  0  0  0  0
   -0.3942    4.9444    6.7293 O   0  0  0  0  0  0  0  0  0  0  0  0
   -0.1796    7.2424    7.4576 C   0  0  1  0  0  0  0  0  0  0  0  0
    0.7181    6.9723    8.5179 O   0  0  0  0  0  0  0  0  0  0  0  0
   -1.4936    4.8111    7.6239 C   0  0  1  0  0  0  0  0  0  0  0  0
   -2.4968    3.8444    6.9910 C   0  0  2  0  0  0  0  0  0  0  0  0
   -3.8118    4.2605    7.3081 O   0  0  0  0  0  0  0  0  0  0  0  0
   -2.1214    2.5059    7.6410 C   0  0  2  0  0  0  0  0  0  0  0  0
   -3.1827    1.5517    7.5953 O   0  0  0  0  0  0  0  0  0  0  0  0
   -1.7494    2.9889    9.0482 C   0  0  2  0  0  0  0  0  0  0  0  0
   -1.0543    4.2095    8.8352 O   0  0  0  0  0  0  0  0  0  0  0  0
   -0.8429    2.0292    9.8278 C   0  0  0  0  0  0  0  0  0  0  0  0
   -1.4235    0.7480    9.9485 O   0  0  0  0  0  0  0  0  0  0  0  0
   -3.6661    1.2626    6.2851 C   0  0  2  0  0  0  0  0  0  0  0  0
   -4.8249    0.2544    6.3139 C   0  0  2  0  0  0  0  0  0  0  0  0
   -5.9091    0.7238    7.1927 N   0  0  0  0  0  0  0  0  0  0  0  0
   -4.3343   -1.1425    6.7232 C   0  0  1  0  0  0  0  0  0  0  0  0
   -5.4225   -2.0430    6.6487 O   0  0  0  0  0  0  0  0  0  0  0  0
   -3.2229   -1.5719    5.7504 C   0  0  2  0  0  0  0  0  0  0  0  0
   -2.7040   -2.8392    6.1100 O   0  0  0  0  0  0  0  0  0  0  0  0
   -2.0943   -0.5214    5.7023 C   0  0  1  0  0  0  0  0  0  0  0  0
   -2.6091    0.7887    5.4536 O   0  0  0  0  0  0  0  0  0  0  0  0
   -1.1794   -0.5537    6.9355 C   0  0  0  0  0  0  0  0  0  0  0  0
   -0.3748   -1.7856    6.9740 N   0  0  0  0  0  0  0  0  0  0  0  0
  1  3  1  0  0  0  0
  1  2  1  6  0  0  0
  3  4  1  1  0  0  0
  5  6  1  6  0  0  0
  5  3  1  0  0  0  0
  7  9  1  0  0  0  0
  7  5  1  0  0  0  0
  7  8  1  6  0  0  0
  9 10  1  0  0  0  0
  9 11  1  6  0  0  0
 10  1  1  0  0  0  0
 11 12  1  0  0  0  0
 13 14  1  1  0  0  0
 13 21  1  0  0  0  0
 15 13  1  0  0  0  0
 16 15  1  0  0  0  0
 16 18  1  0  0  0  0
 16 17  1  6  0  0  0
 18  2  1  6  0  0  0
 18 19  1  0  0  0  0
 19 21  1  0  0  0  0
 19 20  1  1  0  0  0
 21 22  1  1  0  0  0
 23 20  1  6  0  0  0
 23 29  1  0  0  0  0
 23 24  1  0  0  0  0
 24 26  1  0  0  0  0
 24 25  1  1  0  0  0
 26 27  1  1  0  0  0
 28 26  1  0  0  0  0
 28 30  1  6  0  0  0
 29 28  1  0  0  0  0
 30 31  1  0  0  0  0
 32 27  1  1  0  0  0
 32 40  1  0  0  0  0
 32 33  1  0  0  0  0
 33 35  1  0  0  0  0
 33 34  1  1  0  0  0
 35 37  1  0  0  0  0
 35 36  1  6  0  0  0
 37 38  1  1  0  0  0
 39 37  1  0  0  0  0
 39 41  1  1  0  0  0
 40 39  1  0  0  0  0
 42 41  1  0  0  0  0
M  END
>  <CHROM.1>
-152.29812037,-129.88976070,-65.69703579,62.94256959,65.41195759,89.93800527
61.42188688,-168.22911779,46.34236101,-82.41494022,125.41926706,63.49693185
-64.87806264,56.97167037,-178.73583283,-57.15670755,-62.14534071,-179.24102313
-170.82040003,60.32996585,68.36630940,-142.97055086,-1.87757273,3.33956916
5.69140329,0.48477370,-1.23568993,-1.21721928

>  <Name>
lig.pdb

>  <RI>
4.11275e+07

>  <Rbt.Current_Directory>
/home/itssahil/PROJECTS/Mol_Feturizer/New_Systems/rnas/2mxs

>  <Rbt.Executable>
rbdock ($Id: //depot/dev/client3/rdock/2013.1/src/exe/rbdock.cxx#4 $)

>  <Rbt.Library>
libRbt.so (2013.1, Build901 2013/11/27)

>  <Rbt.Parameter_File>
/export/apps/rDock/src/rDock_2013.1_src/data/scripts/dock_solv.prm

>  <Rbt.Receptor>
prm/pocket_docking_8.prm

>  <SCORE>
-33.6737

>  <SCORE.INTER>
-33.3601

>  <SCORE.INTER.CONST>
1

>  <SCORE.INTER.POLAR>
-5.26485

>  <SCORE.INTER.ROT>
9

>  <SCORE.INTER.SOLV>
20.8758

>  <SCORE.INTER.VDW>
-21.2492

>  <SCORE.INTER.norm>
-0.794288

>  <SCORE.INTRA>
-0.313589

>  <SCORE.INTRA.DIHEDRAL>
-2.27185

>  <SCORE.INTRA.DIHEDRAL.0>
30.1357

>  <SCORE.INTRA.POLAR>
-0.483191

>  <SCORE.INTRA.POLAR.0>
-0.631696

>  <SCORE.INTRA.REPUL>
0

>  <SCORE.INTRA.REPUL.0>
0

>  <SCORE.INTRA.SOLV>
0.923146

>  <SCORE.INTRA.SOLV.lig_0>
-55.904

>  <SCORE.INTRA.VDW>
2.00361

>  <SCORE.INTRA.VDW.0>
-8.21197

>  <SCORE.INTRA.norm>
-0.00746641

>  <SCORE.RESTR>
0

>  <SCORE.RESTR.CAVITY>
0

>  <SCORE.RESTR.norm>
0

>  <SCORE.SYSTEM>
0

>  <SCORE.SYSTEM.CONST>
0

>  <SCORE.SYSTEM.DIHEDRAL>
0

>  <SCORE.SYSTEM.SOLV>
0

>  <SCORE.SYSTEM.norm>
0

>  <SCORE.heavy>
42

>  <SCORE.norm>
-0.801754

>  <RMSD>
7.160

$$$$
lig.pdb
 OpenBabel11021811453D
libRbt.so/2013.1/901 2013/11/27
 42 45  0  0  0  0  0  0  0  0999 V2000
   -1.6092    4.9353    1.2912 C   0  0  2  0  0  0  0  0  0  0  0  0
   -1.4624    5.9331    0.2790 O   0  0  0  0  0  0  0  0  0  0  0  0
   -3.0417    4.9252    1.8457 C   0  0  2  0  0  0  0  0  0  0  0  0
   -4.0278    4.7640    0.7613 N   0  0  0  0  0  0  0  0  0  0  0  0
   -3.3240    6.1925    2.6630 C   0  0  1  0  0  0  0  0  0  0  0  0
   -4.5910    6.0795    3.2821 O   0  0  0  0  0  0  0  0  0  0  0  0
   -2.2459    6.3816    3.7409 C   0  0  2  0  0  0  0  0  0  0  0  0
   -2.4331    7.6317    4.3763 O   0  0  0  0  0  0  0  0  0  0  0  0
   -0.8272    6.3082    3.1408 C   0  0  2  0  0  0  0  0  0  0  0  0
   -0.6655    5.1378    2.3401 O   0  0  0  0  0  0  0  0  0  0  0  0
    0.1839    6.2873    4.3029 C   0  0  0  0  0  0  0  0  0  0  0  0
   -0.1468    5.2826    5.2986 O   0  0  0  0  0  0  0  0  0  0  0  0
    1.9939    7.4872   -1.7630 C   0  0  2  0  0  0  0  0  0  0  0  0
    3.4483    7.7008   -1.9024 N   0  0  0  0  0  0  0  0  0  0  0  0
    1.4862    8.1153   -0.4626 C   0  0  0  0  0  0  0  0  0  0  0  0
    0.0162    7.7787   -0.2420 C   0  0  2  0  0  0  0  0  0  0  0  0
   -0.4870    8.4654    0.9543 N   0  0  0  0  0  0  0  0  0  0  0  0
   -0.1222    6.2426   -0.1300 C   0  0  2  0  0  0  0  0  0  0  0  0
    0.2210    5.6386   -1.4540 C   0  0  2  0  0  0  0  0  0  0  0  0
    0.0477    4.2379   -1.3418 O   0  0  0  0  0  0  0  0  0  0  0  0
    1.6520    5.9863   -1.8180 C   0  0  1  0  0  0  0  0  0  0  0  0
    2.0044    5.5098   -3.1032 O   0  0  0  0  0  0  0  0  0  0  0  0
    0.8711    3.4013   -2.1474 C   0  0  1  0  0  0  0  0  0  0  0  0
    1.8260    2.6499   -1.2175 C   0  0  2  0  0  0  0  0  0  0  0  0
    3.0794    2.4983   -1.8569 O   0  0  0  0  0  0  0  0  0  0  0  0
    1.0990    1.3152   -1.0054 C   0  0  2  0  0  0  0  0  0  0  0  0
    1.9742    0.2698   -0.5810 O   0  0  0  0  0  0  0  0  0  0  0  0
    0.4903    1.1197   -2.3994 C   0  0  2  0  0  0  0  0  0  0  0  0
    0.0696    2.4188   -2.7913 O   0  0  0  0  0  0  0  0  0  0  0  0
   -0.7155    0.1735   -2.4365 C   0  0  0  0  0  0  0  0  0  0  0  0
   -0.3792   -1.0756   -3.0020 O   0  0  0  0  0  0  0  0  0  0  0  0
    2.9582    0.6683    0.3713 C   0  0  2  0  0  0  0  0  0  0  0  0
    3.0708   -0.3348    1.5294 C   0  0  2  0  0  0  0  0  0  0  0  0
    3.3333   -1.6932    1.0254 N   0  0  0  0  0  0  0  0  0  0  0  0
    1.8191   -0.2973    2.4190 C   0  0  1  0  0  0  0  0  0  0  0  0
    2.0152   -1.1740    3.5116 O   0  0  0  0  0  0  0  0  0  0  0  0
    1.6236    1.1428    2.9229 C   0  0  2  0  0  0  0  0  0  0  0  0
    0.4549    1.2422    3.7157 O   0  0  0  0  0  0  0  0  0  0  0  0
    1.5621    2.1369    1.7449 C   0  0  1  0  0  0  0  0  0  0  0  0
    2.6774    1.9759    0.8655 O   0  0  0  0  0  0  0  0  0  0  0  0
    0.2257    2.1028    0.9888 C   0  0  0  0  0  0  0  0  0  0  0  0
   -0.9137    2.2666    1.9060 N   0  0  0  0  0  0  0  0  0  0  0  0
  1  3  1  0  0  0  0
  1  2  1  6  0  0  0
  3  4  1  6  0  0  0
  5  6  1  1  0  0  0
  5  3  1  0  0  0  0
  7  9  1  0  0  0  0
  7  5  1  0  0  0  0
  7  8  1  6  0  0  0
  9 10  1  0  0  0  0
  9 11  1  1  0  0  0
 10  1  1  0  0  0  0
 11 12  1  0  0  0  0
 13 14  1  1  0  0  0
 13 21  1  0  0  0  0
 15 13  1  0  0  0  0
 16 15  1  0  0  0  0
 16 18  1  0  0  0  0
 16 17  1  1  0  0  0
 18  2  1  6  0  0  0
 18 19  1  0  0  0  0
 19 21  1  0  0  0  0
 19 20  1  1  0  0  0
 21 22  1  6  0  0  0
 23 20  1  1  0  0  0
 23 29  1  0  0  0  0
 23 24  1  0  0  0  0
 24 26  1  0  0  0  0
 24 25  1  6  0  0  0
 26 27  1  6  0  0  0
 28 26  1  0  0  0  0
 28 30  1  1  0  0  0
 29 28  1  0  0  0  0
 30 31  1  0  0  0  0
 32 27  1  6  0  0  0
 32 40  1  0  0  0  0
 32 33  1  0  0  0  0
 33 35  1  0  0  0  0
 33 34  1  6  0  0  0
 35 37  1  0  0  0  0
 35 36  1  1  0  0  0
 37 38  1  6  0  0  0
 39 37  1  0  0  0  0
 39 41  1  6  0  0  0
 40 39  1  0  0  0  0
 42 41  1  0  0  0  0
M  END
>  <CHROM.1>
-136.18033031,167.54319008,-8.45986199,-55.46160196,-179.53057444,-71.53001020
50.46139876,74.86614989,36.11067796,-150.01767975,111.97703647,-63.13615547
58.57150427,40.29865376,134.56406226,-105.77669999,-74.07051481,-92.24050266
179.10725951,69.26471773,52.74183475,56.64933563,0.29704323,3.74076403,0.63237315
2.57082839,1.03513142,-0.60523666

>  <Name>
lig.pdb

>  <RI>
0

>  <Rbt.Current_Directory>
/home/itssahil/PROJECTS/Mol_Feturizer/New_Systems/rnas/2mxs

>  <Rbt.Executable>
rbdock ($Id: //depot/dev/client3/rdock/2013.1/src/exe/rbdock.cxx#4 $)

>  <Rbt.Library>
libRbt.so (2013.1, Build901 2013/11/27)

>  <Rbt.Parameter_File>
/export/apps/rDock/src/rDock_2013.1_src/data/scripts/dock_solv.prm

>  <Rbt.Receptor>
prm/blind_docking_60.prm

>  <SCORE>
79.8571

>  <SCORE.INTER>
27.2272

>  <SCORE.INTER.CONST>
1

>  <SCORE.INTER.POLAR>
-3.06954

>  <SCORE.INTER.ROT>
9

>  <SCORE.INTER.SOLV>
34.3312

>  <SCORE.INTER.VDW>
7.33952

>  <SCORE.INTER.norm>
0.648266

>  <SCORE.INTRA>
36.8054

>  <SCORE.INTRA.DIHEDRAL>
10.0034

>  <SCORE.INTRA.DIHEDRAL.0>
30.1357

>  <SCORE.INTRA.POLAR>
-0.724887

>  <SCORE.INTRA.POLAR.0>
-0.631696

>  <SCORE.INTRA.REPUL>
0.0318759

>  <SCORE.INTRA.REPUL.0>
0

>  <SCORE.INTRA.SOLV>
2.45004

>  <SCORE.INTRA.SOLV.lig_0>
-55.904

>  <SCORE.INTRA.VDW>
32.8839

>  <SCORE.INTRA.VDW.0>
-8.21197

>  <SCORE.INTRA.norm>
0.876318

>  <SCORE.RESTR>
15.8246

>  <SCORE.RESTR.CAVITY>
15.8246

>  <SCORE.RESTR.norm>
0.376776

>  <SCORE.SYSTEM>
0

>  <SCORE.SYSTEM.CONST>
0

>  <SCORE.SYSTEM.DIHEDRAL>
0

>  <SCORE.SYSTEM.SOLV>
0

>  <SCORE.SYSTEM.norm>
0

>  <SCORE.heavy>
42

>  <SCORE.norm>
1.90136

>  <RMSD>
7.178

$$$$
lig.pdb
 OpenBabel11021811453D
libRbt.so/2013.1/901 2013/11/27
 42 45  0  0  0  0  0  0  0  0999 V2000
   -0.1857    5.1855    1.4185 C   0  0  2  0  0  0  0  0  0  0  0  0
   -1.4994    5.6868    1.6722 O   0  0  0  0  0  0  0  0  0  0  0  0
   -0.0370    4.7587   -0.0496 C   0  0  2  0  0  0  0  0  0  0  0  0
   -0.3947    5.8620   -0.9602 N   0  0  0  0  0  0  0  0  0  0  0  0
   -0.8731    3.5070   -0.3458 C   0  0  1  0  0  0  0  0  0  0  0  0
   -0.5944    3.0555   -1.6573 O   0  0  0  0  0  0  0  0  0  0  0  0
   -0.5380    2.3934    0.6579 C   0  0  2  0  0  0  0  0  0  0  0  0
   -1.4271    1.3093    0.4690 O   0  0  0  0  0  0  0  0  0  0  0  0
   -0.6301    2.8968    2.1127 C   0  0  2  0  0  0  0  0  0  0  0  0
    0.1173    4.0996    2.2908 O   0  0  0  0  0  0  0  0  0  0  0  0
   -0.0733    1.7967    3.0363 C   0  0  0  0  0  0  0  0  0  0  0  0
    1.1518    1.2138    2.5170 O   0  0  0  0  0  0  0  0  0  0  0  0
   -0.8445    7.9728    5.2606 C   0  0  2  0  0  0  0  0  0  0  0  0
   -1.3061    8.8244    6.3750 N   0  0  0  0  0  0  0  0  0  0  0  0
   -1.1215    8.6559    3.9190 C   0  0  0  0  0  0  0  0  0  0  0  0
   -0.7779    7.7256    2.7618 C   0  0  2  0  0  0  0  0  0  0  0  0
   -0.9533    8.4228    1.4815 N   0  0  0  0  0  0  0  0  0  0  0  0
   -1.6713    6.4675    2.8640 C   0  0  2  0  0  0  0  0  0  0  0  0
   -1.2879    5.7134    4.0967 C   0  0  2  0  0  0  0  0  0  0  0  0
   -2.0874    4.5461    4.1489 O   0  0  0  0  0  0  0  0  0  0  0  0
   -1.5105    6.5851    5.3181 C   0  0  1  0  0  0  0  0  0  0  0  0
   -1.0842    5.9503    6.5091 O   0  0  0  0  0  0  0  0  0  0  0  0
   -3.4215    4.6339    3.6597 C   0  0  1  0  0  0  0  0  0  0  0  0
   -3.6306    3.4908    2.6642 C   0  0  2  0  0  0  0  0  0  0  0  0
   -4.4715    3.9318    1.6148 O   0  0  0  0  0  0  0  0  0  0  0  0
   -4.2817    2.4083    3.5357 C   0  0  2  0  0  0  0  0  0  0  0  0
   -5.0041    1.4428    2.7711 O   0  0  0  0  0  0  0  0  0  0  0  0
   -5.1472    3.2865    4.4478 C   0  0  2  0  0  0  0  0  0  0  0  0
   -4.3371    4.4199    4.7265 O   0  0  0  0  0  0  0  0  0  0  0  0
   -5.5475    2.6232    5.7708 C   0  0  0  0  0  0  0  0  0  0  0  0
   -4.4165    2.2616    6.5344 O   0  0  0  0  0  0  0  0  0  0  0  0
   -4.1871    0.5487    2.0181 C   0  0  2  0  0  0  0  0  0  0  0  0
   -5.0013   -0.2195    0.9659 C   0  0  2  0  0  0  0  0  0  0  0  0
   -5.7316    0.7078    0.0857 N   0  0  0  0  0  0  0  0  0  0  0  0
   -5.9494   -1.2304    1.6283 C   0  0  1  0  0  0  0  0  0  0  0  0
   -6.6064   -1.9650    0.6137 O   0  0  0  0  0  0  0  0  0  0  0  0
   -5.1147   -2.1741    2.5106 C   0  0  2  0  0  0  0  0  0  0  0  0
   -5.9481   -3.1021    3.1804 O   0  0  0  0  0  0  0  0  0  0  0  0
   -4.2696   -1.3779    3.5262 C   0  0  1  0  0  0  0  0  0  0  0  0
   -3.5043   -0.3560    2.8831 O   0  0  0  0  0  0  0  0  0  0  0  0
   -5.0903   -0.8261    4.7013 C   0  0  0  0  0  0  0  0  0  0  0  0
   -4.2440   -0.5888    5.8818 N   0  0  0  0  0  0  0  0  0  0  0  0
  1  3  1  0  0  0  0
  1  2  1  6  0  0  0
  3  4  1  6  0  0  0
  5  6  1  6  0  0  0
  5  3  1  0  0  0  0
  7  9  1  0  0  0  0
  7  5  1  0  0  0  0
  7  8  1  1  0  0  0
  9 10  1  0  0  0  0
  9 11  1  1  0  0  0
 10  1  1  0  0  0  0
 11 12  1  0  0  0  0
 13 14  1  1  0  0  0
 13 21  1  0  0  0  0
 15 13  1  0  0  0  0
 16 15  1  0  0  0  0
 16 18  1  0  0  0  0
 16 17  1  6  0  0  0
 18  2  1  6  0  0  0
 18 19  1  0  0  0  0
 19 21  1  0  0  0  0
 19 20  1  1  0  0  0
 21 22  1  1  0  0  0
 23 20  1  1  0  0  0
 23 29  1  0  0  0  0
 23 24  1  0  0  0  0
 24 26  1  0  0  0  0
 24 25  1  6  0  0  0
 26 27  1  6  0  0  0
 28 26  1  0  0  0  0
 28 30  1  1  0  0  0
 29 28  1  0  0  0  0
 30 31  1  0  0  0  0
 32 27  1  1  0  0  0
 32 40  1  0  0  0  0
 32 33  1  0  0  0  0
 33 35  1  0  0  0  0
 33 34  1  1  0  0  0
 35 37  1  0  0  0  0
 35 36  1  6  0  0  0
 37 38  1  1  0  0  0
 39 37  1  0  0  0  0
 39 41  1  1  0  0  0
 40 39  1  0  0  0  0
 42 41  1  0  0  0  0
M  END
>  <CHROM.1>
61.80032681,-162.54558858,-172.96552534,-170.95172280,57.03003513,62.61721384
43.76406199,-63.63708606,-132.17227688,-34.53171568,128.69634818,74.55264782
69.96988505,71.76567737,-165.81088730,59.55048767,59.37241668,-45.09164527
-169.02562554,57.93795893,156.14052573,19.19649867,-2.71259937,3.08976323
2.79173300,-0.68053621,-0.90544457,-2.28824666

>  <Name>
lig.pdb

>  <RI>
3.99633e+07

>  <Rbt.Current_Directory>
/home/itssahil/PROJECTS/Mol_Feturizer/New_Systems/rnas/2mxs

>  <Rbt.Executable>
rbdock ($Id: //depot/dev/client3/rdock/2013.1/src/exe/rbdock.cxx#4 $)

>  <Rbt.Library>
libRbt.so (2013.1, Build901 2013/11/27)

>  <Rbt.Parameter_File>
/export/apps/rDock/src/rDock_2013.1_src/data/scripts/dock_solv.prm

>  <Rbt.Receptor>
prm/pocket_docking_5.prm

>  <SCORE>
-35.802

>  <SCORE.INTER>
-36.4266

>  <SCORE.INTER.CONST>
1

>  <SCORE.INTER.POLAR>
-4.5768

>  <SCORE.INTER.ROT>
9

>  <SCORE.INTER.SOLV>
19.0521

>  <SCORE.INTER.VDW>
-24.9791

>  <SCORE.INTER.norm>
-0.867301

>  <SCORE.INTRA>
0.61615

>  <SCORE.INTRA.DIHEDRAL>
-4.97789

>  <SCORE.INTRA.DIHEDRAL.0>
30.1357

>  <SCORE.INTRA.POLAR>
-0.46183

>  <SCORE.INTRA.POLAR.0>
-0.631696

>  <SCORE.INTRA.REPUL>
0.0103795

>  <SCORE.INTRA.REPUL.0>
0

>  <SCORE.INTRA.SOLV>
2.33279

>  <SCORE.INTRA.SOLV.lig_0>
-55.904

>  <SCORE.INTRA.VDW>
3.45703

>  <SCORE.INTRA.VDW.0>
-8.21197

>  <SCORE.INTRA.norm>
0.0146702

>  <SCORE.RESTR>
0.00849866

>  <SCORE.RESTR.CAVITY>
0.00849866

>  <SCORE.RESTR.norm>
0.000202349

>  <SCORE.SYSTEM>
0

>  <SCORE.SYSTEM.CONST>
0

>  <SCORE.SYSTEM.DIHEDRAL>
0

>  <SCORE.SYSTEM.SOLV>
0

>  <SCORE.SYSTEM.norm>
0

>  <SCORE.heavy>
42

>  <SCORE.norm>
-0.852429

>  <RMSD>
7.200

$$$$
lig.pdb
 OpenBabel11021811453D
libRbt.so/2013.1/901 2013/11/27
 42 45  0  0  0  0  0  0  0  0999 V2000
   -3.0887   -0.8940    1.5857 C   0  0  2  0  0  0  0  0  0  0  0  0
   -2.0819    0.0223    2.0194 O   0  0  0  0  0  0  0  0  0  0  0  0
   -3.1653   -0.9372    0.0521 C   0  0  2  0  0  0  0  0  0  0  0  0
   -1.8476   -1.2429   -0.5350 N   0  0  0  0  0  0  0  0  0  0  0  0
   -3.7265    0.3762   -0.5077 C   0  0  1  0  0  0  0  0  0  0  0  0
   -3.9257    0.2453   -1.9023 O   0  0  0  0  0  0  0  0  0  0  0  0
   -5.0640    0.7143    0.1680 C   0  0  2  0  0  0  0  0  0  0  0  0
   -5.4848    2.0007   -0.2436 O   0  0  0  0  0  0  0  0  0  0  0  0
   -4.9482    0.6698    1.7051 C   0  0  2  0  0  0  0  0  0  0  0  0
   -4.3555   -0.5526    2.1428 O   0  0  0  0  0  0  0  0  0  0  0  0
   -6.3647    0.8021    2.2961 C   0  0  0  0  0  0  0  0  0  0  0  0
   -6.4974    0.1028    3.5625 O   0  0  0  0  0  0  0  0  0  0  0  0
   -1.0660   -1.6160    5.8684 C   0  0  2  0  0  0  0  0  0  0  0  0
   -0.3048   -1.6160    7.1336 N   0  0  0  0  0  0  0  0  0  0  0  0
   -0.1144   -1.7335    4.6751 C   0  0  0  0  0  0  0  0  0  0  0  0
   -0.8780   -1.5926    3.3636 C   0  0  2  0  0  0  0  0  0  0  0  0
    0.0254   -1.8045    2.2257 N   0  0  0  0  0  0  0  0  0  0  0  0
   -1.5360   -0.1936    3.3289 C   0  0  2  0  0  0  0  0  0  0  0  0
   -2.5815   -0.1355    4.3962 C   0  0  2  0  0  0  0  0  0  0  0  0
   -3.1990    1.1363    4.3198 O   0  0  0  0  0  0  0  0  0  0  0  0
   -1.9382   -0.3517    5.7529 C   0  0  1  0  0  0  0  0  0  0  0  0
   -2.8952   -0.3903    6.7948 O   0  0  0  0  0  0  0  0  0  0  0  0
   -2.3986    2.2799    4.6000 C   0  0  1  0  0  0  0  0  0  0  0  0
   -1.4302    2.4707    3.4307 C   0  0  2  0  0  0  0  0  0  0  0  0
   -0.1915    2.9471    3.9218 O   0  0  0  0  0  0  0  0  0  0  0  0
   -2.1625    3.5002    2.5596 C   0  0  2  0  0  0  0  0  0  0  0  0
   -1.2866    4.1997    1.6751 O   0  0  0  0  0  0  0  0  0  0  0  0
   -2.8013    4.3665    3.6522 C   0  0  2  0  0  0  0  0  0  0  0  0
   -3.2204    3.4396    4.6439 O   0  0  0  0  0  0  0  0  0  0  0  0
   -4.0145    5.1799    3.1865 C   0  0  0  0  0  0  0  0  0  0  0  0
   -3.6272    6.2921    2.4080 O   0  0  0  0  0  0  0  0  0  0  0  0
   -1.6267    4.0928    0.2942 C   0  0  2  0  0  0  0  0  0  0  0  0
   -0.6542    3.1763   -0.4637 C   0  0  2  0  0  0  0  0  0  0  0  0
   -0.5766    1.8506    0.1723 N   0  0  0  0  0  0  0  0  0  0  0  0
    0.7338    3.8226   -0.5879 C   0  0  1  0  0  0  0  0  0  0  0  0
    1.5580    2.9760   -1.3656 O   0  0  0  0  0  0  0  0  0  0  0  0
    0.5745    5.1879   -1.2781 C   0  0  2  0  0  0  0  0  0  0  0  0
    1.8234    5.8472   -1.3792 O   0  0  0  0  0  0  0  0  0  0  0  0
   -0.4423    6.0718   -0.5268 C   0  0  1  0  0  0  0  0  0  0  0  0
   -1.6760    5.3827   -0.3115 O   0  0  0  0  0  0  0  0  0  0  0  0
    0.1150    6.6702    0.7732 C   0  0  0  0  0  0  0  0  0  0  0  0
   -0.8859    7.5124    1.4479 N   0  0  0  0  0  0  0  0  0  0  0  0
  1  3  1  0  0  0  0
  1  2  1  6  0  0  0
  3  4  1  6  0  0  0
  5  6  1  6  0  0  0
  5  3  1  0  0  0  0
  7  9  1  0  0  0  0
  7  5  1  0  0  0  0
  7  8  1  1  0  0  0
  9 10  1  0  0  0  0
  9 11  1  1  0  0  0
 10  1  1  0  0  0  0
 11 12  1  0  0  0  0
 13 14  1  1  0  0  0
 13 21  1  0  0  0  0
 15 13  1  0  0  0  0
 16 15  1  0  0  0  0
 16 18  1  0  0  0  0
 16 17  1  6  0  0  0
 18  2  1  6  0  0  0
 18 19  1  0  0  0  0
 19 21  1  0  0  0  0
 19 20  1  1  0  0  0
 21 22  1  1  0  0  0
 23 20  1  6  0  0  0
 23 29  1  0  0  0  0
 23 24  1  0  0  0  0
 24 26  1  0  0  0  0
 24 25  1  1  0  0  0
 26 27  1  1  0  0  0
 28 26  1  0  0  0  0
 28 30  1  6  0  0  0
 29 28  1  0  0  0  0
 30 31  1  0  0  0  0
 32 27  1  1  0  0  0
 32 40  1  0  0  0  0
 32 33  1  0  0  0  0
 33 35  1  0  0  0  0
 33 34  1  1  0  0  0
 35 37  1  0  0  0  0
 35 36  1  6  0  0  0
 37 38  1  1  0  0  0
 39 37  1  0  0  0  0
 39 41  1  1  0  0  0
 40 39  1  0  0  0  0
 42 41  1  0  0  0  0
M  END
>  <CHROM.1>
60.56493313,-156.51784763,-41.90321903,-175.45561424,173.25629949,-57.55387350
149.52604867,3.85863669,-72.77493385,-64.61518071,71.66420298,47.42560685
-170.60515643,122.61089324,-107.00833800,-75.34386187,-174.23772627,49.76890988
-62.16061161,63.48447977,179.55976764,-36.00828887,-2.06715609,1.92366691
2.01536282,2.09985593,1.00287963,2.06692193

>  <Name>
lig.pdb

>  <RI>
3.99633e+07

>  <Rbt.Current_Directory>
/home/itssahil/PROJECTS/Mol_Feturizer/New_Systems/rnas/2mxs

>  <Rbt.Executable>
rbdock ($Id: //depot/dev/client3/rdock/2013.1/src/exe/rbdock.cxx#4 $)

>  <Rbt.Library>
libRbt.so (2013.1, Build901 2013/11/27)

>  <Rbt.Parameter_File>
/export/apps/rDock/src/rDock_2013.1_src/data/scripts/dock_solv.prm

>  <Rbt.Receptor>
prm/pocket_docking_5.prm

>  <SCORE>
-45.3282

>  <SCORE.INTER>
-47.8326

>  <SCORE.INTER.CONST>
1

>  <SCORE.INTER.POLAR>
-6.13817

>  <SCORE.INTER.ROT>
9

>  <SCORE.INTER.SOLV>
21.9019

>  <SCORE.INTER.VDW>
-28.3285

>  <SCORE.INTER.norm>
-1.13887

>  <SCORE.INTRA>
2.50449

>  <SCORE.INTRA.DIHEDRAL>
-1.51322

>  <SCORE.INTRA.DIHEDRAL.0>
30.1357

>  <SCORE.INTRA.POLAR>
-0.296956

>  <SCORE.INTRA.POLAR.0>
-0.631696

>  <SCORE.INTRA.REPUL>
0

>  <SCORE.INTRA.REPUL.0>
0

>  <SCORE.INTRA.SOLV>
1.67971

>  <SCORE.INTRA.SOLV.lig_0>
-55.904

>  <SCORE.INTRA.VDW>
3.43089

>  <SCORE.INTRA.VDW.0>
-8.21197

>  <SCORE.INTRA.norm>
0.0596307

>  <SCORE.RESTR>
0

>  <SCORE.RESTR.CAVITY>
0

>  <SCORE.RESTR.norm>
0

>  <SCORE.SYSTEM>
0

>  <SCORE.SYSTEM.CONST>
0

>  <SCORE.SYSTEM.DIHEDRAL>
0

>  <SCORE.SYSTEM.SOLV>
0

>  <SCORE.SYSTEM.norm>
0

>  <SCORE.heavy>
42

>  <SCORE.norm>
-1.07924

>  <RMSD>
7.207

$$$$
lig.pdb
 OpenBabel11021811453D
libRbt.so/2013.1/901 2013/11/27
 42 45  0  0  0  0  0  0  0  0999 V2000
   -0.6273    4.4801    1.5491 C   0  0  2  0  0  0  0  0  0  0  0  0
   -0.3578    4.9501    0.2270 O   0  0  0  0  0  0  0  0  0  0  0  0
   -2.1011    4.0724    1.6951 C   0  0  2  0  0  0  0  0  0  0  0  0
   -2.4813    3.0853    0.6677 N   0  0  0  0  0  0  0  0  0  0  0  0
   -3.0189    5.3006    1.6453 C   0  0  1  0  0  0  0  0  0  0  0  0
   -4.3466    4.9068    1.9346 O   0  0  0  0  0  0  0  0  0  0  0  0
   -2.5632    6.3475    2.6730 C   0  0  2  0  0  0  0  0  0  0  0  0
   -3.3198    7.5308    2.5033 O   0  0  0  0  0  0  0  0  0  0  0  0
   -1.0606    6.6635    2.5300 C   0  0  2  0  0  0  0  0  0  0  0  0
   -0.2809    5.4682    2.5163 O   0  0  0  0  0  0  0  0  0  0  0  0
   -0.6410    7.5448    3.7220 C   0  0  0  0  0  0  0  0  0  0  0  0
   -1.2663    7.1215    4.9630 O   0  0  0  0  0  0  0  0  0  0  0  0
    3.3515    5.5391   -1.8765 C   0  0  2  0  0  0  0  0  0  0  0  0
    4.7931    5.8546   -1.9290 N   0  0  0  0  0  0  0  0  0  0  0  0
    2.5698    6.7184   -1.2923 C   0  0  0  0  0  0  0  0  0  0  0  0
    1.1031    6.3497   -1.1038 C   0  0  2  0  0  0  0  0  0  0  0  0
    0.3432    7.5159   -0.6363 N   0  0  0  0  0  0  0  0  0  0  0  0
    1.0199    5.1674   -0.1105 C   0  0  2  0  0  0  0  0  0  0  0  0
    1.6439    3.9679   -0.7489 C   0  0  2  0  0  0  0  0  0  0  0  0
    1.5200    2.8885    0.1588 O   0  0  0  0  0  0  0  0  0  0  0  0
    3.1000    4.2561   -1.0622 C   0  0  1  0  0  0  0  0  0  0  0  0
    3.7192    3.1824   -1.7453 O   0  0  0  0  0  0  0  0  0  0  0  0
    1.4618    1.5721   -0.3804 C   0  0  1  0  0  0  0  0  0  0  0  0
    0.6755    0.6996    0.6003 C   0  0  2  0  0  0  0  0  0  0  0  0
    1.2290   -0.6028    0.6156 O   0  0  0  0  0  0  0  0  0  0  0  0
   -0.7422    0.7386    0.0142 C   0  0  2  0  0  0  0  0  0  0  0  0
   -1.5507   -0.3554    0.4482 O   0  0  0  0  0  0  0  0  0  0  0  0
   -0.4108    0.7406   -1.4832 C   0  0  2  0  0  0  0  0  0  0  0  0
    0.7255    1.5858   -1.5968 O   0  0  0  0  0  0  0  0  0  0  0  0
   -1.5292    1.2868   -2.3783 C   0  0  0  0  0  0  0  0  0  0  0  0
   -2.7912    0.7773   -2.0031 O   0  0  0  0  0  0  0  0  0  0  0  0
   -1.7672   -0.4125    1.8567 C   0  0  2  0  0  0  0  0  0  0  0  0
   -1.9136   -1.8588    2.3534 C   0  0  2  0  0  0  0  0  0  0  0  0
   -0.7513   -2.6714    1.9575 N   0  0  0  0  0  0  0  0  0  0  0  0
   -3.2290   -2.4827    1.8636 C   0  0  1  0  0  0  0  0  0  0  0  0
   -3.3495   -3.7775    2.4203 O   0  0  0  0  0  0  0  0  0  0  0  0
   -4.3932   -1.5934    2.3322 C   0  0  2  0  0  0  0  0  0  0  0  0
   -5.6306   -2.1021    1.8689 O   0  0  0  0  0  0  0  0  0  0  0  0
   -4.1997   -0.1368    1.8628 C   0  0  1  0  0  0  0  0  0  0  0  0
   -2.9084    0.3611    2.2205 O   0  0  0  0  0  0  0  0  0  0  0  0
   -4.4997    0.0669    0.3703 C   0  0  0  0  0  0  0  0  0  0  0  0
   -5.9226    0.3692    0.1459 N   0  0  0  0  0  0  0  0  0  0  0  0
  1  3  1  0  0  0  0
  1  2  1  6  0  0  0
  3  4  1  6  0  0  0
  5  6  1  1  0  0  0
  5  3  1  0  0  0  0
  7  9  1  0  0  0  0
  7  5  1  0  0  0  0
  7  8  1  6  0  0  0
  9 10  1  0  0  0  0
  9 11  1  1  0  0  0
 10  1  1  0  0  0  0
 11 12  1  0  0  0  0
 13 14  1  1  0  0  0
 13 21  1  0  0  0  0
 15 13  1  0  0  0  0
 16 15  1  0  0  0  0
 16 18  1  0  0  0  0
 16 17  1  1  0  0  0
 18  2  1  6  0  0  0
 18 19  1  0  0  0  0
 19 21  1  0  0  0  0
 19 20  1  1  0  0  0
 21 22  1  6  0  0  0
 23 20  1  1  0  0  0
 23 29  1  0  0  0  0
 23 24  1  0  0  0  0
 24 26  1  0  0  0  0
 24 25  1  6  0  0  0
 26 27  1  6  0  0  0
 28 26  1  0  0  0  0
 28 30  1  6  0  0  0
 29 28  1  0  0  0  0
 30 31  1  0  0  0  0
 32 27  1  6  0  0  0
 32 40  1  0  0  0  0
 32 33  1  0  0  0  0
 33 35  1  0  0  0  0
 33 34  1  6  0  0  0
 35 37  1  0  0  0  0
 35 36  1  1  0  0  0
 37 38  1  6  0  0  0
 39 37  1  0  0  0  0
 39 41  1  6  0  0  0
 40 39  1  0  0  0  0
 42 41  1  0  0  0  0
M  END
>  <CHROM.1>
-147.32222304,-170.59358750,-111.82916865,-58.82123493,-88.77190439,-66.31481702
39.88017017,-52.87099666,56.30073393,152.14308666,-152.63848574,171.83763307
68.70619169,61.53032756,-148.39131317,-44.37565611,-53.39482929,-131.73331848
63.74859659,171.42309413,88.30474546,95.86105169,-0.99604423,2.62671356,0.70552035
0.91950622,0.54007556,0.20483159

>  <Name>
lig.pdb

>  <RI>
0

>  <Rbt.Current_Directory>
/home/itssahil/PROJECTS/Mol_Feturizer/New_Systems/rnas/2mxs

>  <Rbt.Executable>
rbdock ($Id: //depot/dev/client3/rdock/2013.1/src/exe/rbdock.cxx#4 $)

>  <Rbt.Library>
libRbt.so (2013.1, Build901 2013/11/27)

>  <Rbt.Parameter_File>
/export/apps/rDock/src/rDock_2013.1_src/data/scripts/dock_solv.prm

>  <Rbt.Receptor>
prm/pocket_docking_6.prm

>  <SCORE>
-47.0795

>  <SCORE.INTER>
-49.6434

>  <SCORE.INTER.CONST>
1

>  <SCORE.INTER.POLAR>
-5.38318

>  <SCORE.INTER.ROT>
9

>  <SCORE.INTER.SOLV>
21.9966

>  <SCORE.INTER.VDW>
-32.0839

>  <SCORE.INTER.norm>
-1.18199

>  <SCORE.INTRA>
2.56397

>  <SCORE.INTRA.DIHEDRAL>
3.7379

>  <SCORE.INTRA.DIHEDRAL.0>
30.1357

>  <SCORE.INTRA.POLAR>
-0.981915

>  <SCORE.INTRA.POLAR.0>
-0.631696

>  <SCORE.INTRA.REPUL>
0

>  <SCORE.INTRA.REPUL.0>
0

>  <SCORE.INTRA.SOLV>
1.80442

>  <SCORE.INTRA.SOLV.lig_0>
-55.904

>  <SCORE.INTRA.VDW>
3.13132

>  <SCORE.INTRA.VDW.0>
-8.21197

>  <SCORE.INTRA.norm>
0.0610468

>  <SCORE.RESTR>
0

>  <SCORE.RESTR.CAVITY>
0

>  <SCORE.RESTR.norm>
0

>  <SCORE.SYSTEM>
0

>  <SCORE.SYSTEM.CONST>
0

>  <SCORE.SYSTEM.DIHEDRAL>
0

>  <SCORE.SYSTEM.SOLV>
0

>  <SCORE.SYSTEM.norm>
0

>  <SCORE.heavy>
42

>  <SCORE.norm>
-1.12094

>  <RMSD>
7.253

$$$$
lig.pdb
 OpenBabel11021811453D
libRbt.so/2013.1/901 2013/11/27
 42 45  0  0  0  0  0  0  0  0999 V2000
    0.4025    4.7392    2.0127 C   0  0  2  0  0  0  0  0  0  0  0  0
    0.5568    4.5827    0.6009 O   0  0  0  0  0  0  0  0  0  0  0  0
   -0.6566    3.7695    2.5582 C   0  0  2  0  0  0  0  0  0  0  0  0
   -0.3415    2.3779    2.1859 N   0  0  0  0  0  0  0  0  0  0  0  0
   -2.0604    4.1631    2.0809 C   0  0  1  0  0  0  0  0  0  0  0  0
   -3.0208    3.3457    2.7220 O   0  0  0  0  0  0  0  0  0  0  0  0
   -2.3422    5.6360    2.4138 C   0  0  2  0  0  0  0  0  0  0  0  0
   -3.5709    6.0219    1.8283 O   0  0  0  0  0  0  0  0  0  0  0  0
   -1.2119    6.5560    1.9094 C   0  0  2  0  0  0  0  0  0  0  0  0
    0.0659    6.0858    2.3374 O   0  0  0  0  0  0  0  0  0  0  0  0
   -1.4599    7.9700    2.4683 C   0  0  0  0  0  0  0  0  0  0  0  0
   -1.1697    8.0561    3.8891 O   0  0  0  0  0  0  0  0  0  0  0  0
    4.0339    4.3919   -1.9298 C   0  0  2  0  0  0  0  0  0  0  0  0
    5.4884    4.4811   -2.1680 N   0  0  0  0  0  0  0  0  0  0  0  0
    3.4968    5.7284   -1.4116 C   0  0  0  0  0  0  0  0  0  0  0  0
    2.0264    5.6045   -1.0302 C   0  0  2  0  0  0  0  0  0  0  0  0
    1.4950    6.9129   -0.6280 N   0  0  0  0  0  0  0  0  0  0  0  0
    1.9010    4.5558    0.0994 C   0  0  2  0  0  0  0  0  0  0  0  0
    2.2738    3.2176   -0.4536 C   0  0  2  0  0  0  0  0  0  0  0  0
    2.1122    2.2673    0.5835 O   0  0  0  0  0  0  0  0  0  0  0  0
    3.7077    3.2511   -0.9477 C   0  0  1  0  0  0  0  0  0  0  0  0
    4.0877    2.0326   -1.5592 O   0  0  0  0  0  0  0  0  0  0  0  0
    2.2217    0.8893    0.2430 C   0  0  1  0  0  0  0  0  0  0  0  0
    1.3795    0.0927    1.2418 C   0  0  2  0  0  0  0  0  0  0  0  0
    2.0200   -1.1391    1.5165 O   0  0  0  0  0  0  0  0  0  0  0  0
    0.0519   -0.0794    0.4916 C   0  0  2  0  0  0  0  0  0  0  0  0
   -0.7243   -1.1721    0.9839 O   0  0  0  0  0  0  0  0  0  0  0  0
    0.5758   -0.2543   -0.9392 C   0  0  2  0  0  0  0  0  0  0  0  0
    1.6523    0.6672   -1.0409 O   0  0  0  0  0  0  0  0  0  0  0  0
   -0.4525    0.0584   -2.0325 C   0  0  0  0  0  0  0  0  0  0  0  0
    0.1469    0.6865   -3.1457 O   0  0  0  0  0  0  0  0  0  0  0  0
   -1.4217   -0.9058    2.1992 C   0  0  2  0  0  0  0  0  0  0  0  0
   -2.1166   -2.1624    2.7454 C   0  0  2  0  0  0  0  0  0  0  0  0
   -1.1554   -3.2654    2.9108 N   0  0  0  0  0  0  0  0  0  0  0  0
   -3.2976   -2.5746    1.8539 C   0  0  1  0  0  0  0  0  0  0  0  0
   -3.9489   -3.6798    2.4497 O   0  0  0  0  0  0  0  0  0  0  0  0
   -4.2649   -1.3835    1.7466 C   0  0  2  0  0  0  0  0  0  0  0  0
   -5.3538   -1.6968    0.8978 O   0  0  0  0  0  0  0  0  0  0  0  0
   -3.5343   -0.1218    1.2425 C   0  0  1  0  0  0  0  0  0  0  0  0
   -2.3634    0.1491    2.0164 O   0  0  0  0  0  0  0  0  0  0  0  0
   -3.2323   -0.1539   -0.2630 C   0  0  0  0  0  0  0  0  0  0  0  0
   -4.4514    0.0612   -1.0591 N   0  0  0  0  0  0  0  0  0  0  0  0
  1  3  1  0  0  0  0
  1  2  1  6  0  0  0
  3  4  1  6  0  0  0
  5  6  1  1  0  0  0
  5  3  1  0  0  0  0
  7  9  1  0  0  0  0
  7  5  1  0  0  0  0
  7  8  1  6  0  0  0
  9 10  1  0  0  0  0
  9 11  1  1  0  0  0
 10  1  1  0  0  0  0
 11 12  1  0  0  0  0
 13 14  1  1  0  0  0
 13 21  1  0  0  0  0
 15 13  1  0  0  0  0
 16 15  1  0  0  0  0
 16 18  1  0  0  0  0
 16 17  1  1  0  0  0
 18  2  1  6  0  0  0
 18 19  1  0  0  0  0
 19 21  1  0  0  0  0
 19 20  1  1  0  0  0
 21 22  1  6  0  0  0
 23 20  1  1  0  0  0
 23 29  1  0  0  0  0
 23 24  1  0  0  0  0
 24 26  1  0  0  0  0
 24 25  1  6  0  0  0
 26 27  1  1  0  0  0
 28 26  1  0  0  0  0
 28 30  1  6  0  0  0
 29 28  1  0  0  0  0
 30 31  1  0  0  0  0
 32 27  1  6  0  0  0
 32 40  1  0  0  0  0
 32 33  1  0  0  0  0
 33 35  1  0  0  0  0
 33 34  1  6  0  0  0
 35 37  1  0  0  0  0
 35 36  1  1  0  0  0
 37 38  1  6  0  0  0
 39 37  1  0  0  0  0
 39 41  1  6  0  0  0
 40 39  1  0  0  0  0
 42 41  1  0  0  0  0
M  END
>  <CHROM.1>
-127.29496527,-135.76213012,-27.97743256,-173.21496374,-42.07019365,65.01327979
73.13785336,-72.82825960,-71.52658324,171.07822516,-152.58976217,73.82266797
68.01459675,77.87799800,-174.15053120,143.17993339,-60.08356288,-93.33660771
67.66377238,66.15463997,73.66969056,-49.25573650,-0.31731775,2.12058535,0.75167497
0.90741756,0.49918189,0.17464643

>  <Name>
lig.pdb

>  <RI>
4.11275e+07

>  <Rbt.Current_Directory>
/home/itssahil/PROJECTS/Mol_Feturizer/New_Systems/rnas/2mxs

>  <Rbt.Executable>
rbdock ($Id: //depot/dev/client3/rdock/2013.1/src/exe/rbdock.cxx#4 $)

>  <Rbt.Library>
libRbt.so (2013.1, Build901 2013/11/27)

>  <Rbt.Parameter_File>
/export/apps/rDock/src/rDock_2013.1_src/data/scripts/dock_solv.prm

>  <Rbt.Receptor>
prm/pocket_docking_8.prm

>  <SCORE>
-48.8666

>  <SCORE.INTER>
-46.0546

>  <SCORE.INTER.CONST>
1

>  <SCORE.INTER.POLAR>
-5.05926

>  <SCORE.INTER.ROT>
9

>  <SCORE.INTER.SOLV>
23.7567

>  <SCORE.INTER.VDW>
-31.3577

>  <SCORE.INTER.norm>
-1.09654

>  <SCORE.INTRA>
-2.81208

>  <SCORE.INTRA.DIHEDRAL>
1.92003

>  <SCORE.INTRA.DIHEDRAL.0>
30.1357

>  <SCORE.INTRA.POLAR>
-1.90442

>  <SCORE.INTRA.POLAR.0>
-0.631696

>  <SCORE.INTRA.REPUL>
0.1096

>  <SCORE.INTRA.REPUL.0>
0

>  <SCORE.INTRA.SOLV>
1.16533

>  <SCORE.INTRA.SOLV.lig_0>
-55.904

>  <SCORE.INTRA.VDW>
1.57228

>  <SCORE.INTRA.VDW.0>
-8.21197

>  <SCORE.INTRA.norm>
-0.0669543

>  <SCORE.RESTR>
0

>  <SCORE.RESTR.CAVITY>
0

>  <SCORE.RESTR.norm>
0

>  <SCORE.SYSTEM>
0

>  <SCORE.SYSTEM.CONST>
0

>  <SCORE.SYSTEM.DIHEDRAL>
0

>  <SCORE.SYSTEM.SOLV>
0

>  <SCORE.SYSTEM.norm>
0

>  <SCORE.heavy>
42

>  <SCORE.norm>
-1.16349

>  <RMSD>
7.257

$$$$
lig.pdb
 OpenBabel11021811453D
libRbt.so/2013.1/901 2013/11/27
 42 45  0  0  0  0  0  0  0  0999 V2000
    0.4944    5.9637    1.6975 C   0  0  2  0  0  0  0  0  0  0  0  0
   -0.8962    5.9633    2.0256 O   0  0  0  0  0  0  0  0  0  0  0  0
    0.7203    6.4930    0.2732 C   0  0  2  0  0  0  0  0  0  0  0  0
    0.1096    7.8240    0.1004 N   0  0  0  0  0  0  0  0  0  0  0  0
    0.1893    5.5034   -0.7719 C   0  0  1  0  0  0  0  0  0  0  0  0
    0.5493    5.9485   -2.0657 O   0  0  0  0  0  0  0  0  0  0  0  0
    0.7815    4.1065   -0.5312 C   0  0  2  0  0  0  0  0  0  0  0  0
    0.1618    3.1787   -1.4010 O   0  0  0  0  0  0  0  0  0  0  0  0
    0.5930    3.6568    0.9319 C   0  0  2  0  0  0  0  0  0  0  0  0
    1.0474    4.6579    1.8421 O   0  0  0  0  0  0  0  0  0  0  0  0
    1.3969    2.3595    1.1415 C   0  0  0  0  0  0  0  0  0  0  0  0
    1.3091    1.8755    2.5084 O   0  0  0  0  0  0  0  0  0  0  0  0
   -0.7654    5.9810    6.3284 C   0  0  2  0  0  0  0  0  0  0  0  0
   -1.3995    5.9028    7.6596 N   0  0  0  0  0  0  0  0  0  0  0  0
   -1.3233    7.1701    5.5424 C   0  0  0  0  0  0  0  0  0  0  0  0
   -0.7793    7.1755    4.1187 C   0  0  2  0  0  0  0  0  0  0  0  0
   -1.2415    8.3719    3.4039 N   0  0  0  0  0  0  0  0  0  0  0  0
   -1.2288    5.8720    3.4186 C   0  0  2  0  0  0  0  0  0  0  0  0
   -0.5545    4.7179    4.0887 C   0  0  2  0  0  0  0  0  0  0  0  0
   -0.9463    3.5405    3.4071 O   0  0  0  0  0  0  0  0  0  0  0  0
   -0.9616    4.6669    5.5491 C   0  0  1  0  0  0  0  0  0  0  0  0
   -0.2864    3.6419    6.2536 O   0  0  0  0  0  0  0  0  0  0  0  0
   -2.0498    2.8081    3.9293 C   0  0  1  0  0  0  0  0  0  0  0  0
   -2.7196    2.0773    2.7637 C   0  0  2  0  0  0  0  0  0  0  0  0
   -4.1192    2.0487    2.9715 O   0  0  0  0  0  0  0  0  0  0  0  0
   -2.0775    0.6852    2.8335 C   0  0  2  0  0  0  0  0  0  0  0  0
   -2.8570   -0.3171    2.1804 O   0  0  0  0  0  0  0  0  0  0  0  0
   -1.9613    0.5220    4.3540 C   0  0  2  0  0  0  0  0  0  0  0  0
   -1.5795    1.8074    4.8235 O   0  0  0  0  0  0  0  0  0  0  0  0
   -0.9134   -0.5034    4.8023 C   0  0  0  0  0  0  0  0  0  0  0  0
    0.2125   -0.5027    3.9505 O   0  0  0  0  0  0  0  0  0  0  0  0
   -2.0964   -1.2944    1.4730 C   0  0  2  0  0  0  0  0  0  0  0  0
   -2.3904   -1.2648   -0.0346 C   0  0  2  0  0  0  0  0  0  0  0  0
   -2.1748    0.0831   -0.5865 N   0  0  0  0  0  0  0  0  0  0  0  0
   -3.8085   -1.7743   -0.3329 C   0  0  1  0  0  0  0  0  0  0  0  0
   -3.9912   -1.8061   -1.7352 O   0  0  0  0  0  0  0  0  0  0  0  0
   -3.9500   -3.1896    0.2527 C   0  0  2  0  0  0  0  0  0  0  0  0
   -5.2573   -3.6908    0.0423 O   0  0  0  0  0  0  0  0  0  0  0  0
   -3.6031   -3.2031    1.7557 C   0  0  1  0  0  0  0  0  0  0  0  0
   -2.3333   -2.5959    2.0051 O   0  0  0  0  0  0  0  0  0  0  0  0
   -4.7077   -2.6071    2.6408 C   0  0  0  0  0  0  0  0  0  0  0  0
   -4.2163   -2.3349    4.0013 N   0  0  0  0  0  0  0  0  0  0  0  0
  1  3  1  0  0  0  0
  1  2  1  6  0  0  0
  3  4  1  1  0  0  0
  5  6  1  6  0  0  0
  5  3  1  0  0  0  0
  7  9  1  0  0  0  0
  7  5  1  0  0  0  0
  7  8  1  6  0  0  0
  9 10  1  0  0  0  0
  9 11  1  6  0  0  0
 10  1  1  0  0  0  0
 11 12  1  0  0  0  0
 13 14  1  1  0  0  0
 13 21  1  0  0  0  0
 15 13  1  0  0  0  0
 16 15  1  0  0  0  0
 16 18  1  0  0  0  0
 16 17  1  6  0  0  0
 18  2  1  6  0  0  0
 18 19  1  0  0  0  0
 19 21  1  0  0  0  0
 19 20  1  6  0  0  0
 21 22  1  1  0  0  0
 23 20  1  6  0  0  0
 23 29  1  0  0  0  0
 23 24  1  0  0  0  0
 24 26  1  0  0  0  0
 24 25  1  1  0  0  0
 26 27  1  1  0  0  0
 28 26  1  0  0  0  0
 28 30  1  6  0  0  0
 29 28  1  0  0  0  0
 30 31  1  0  0  0  0
 32 27  1  1  0  0  0
 32 40  1  0  0  0  0
 32 33  1  0  0  0  0
 33 35  1  0  0  0  0
 33 34  1  1  0  0  0
 35 37  1  0  0  0  0
 35 36  1  6  0  0  0
 37 38  1  1  0  0  0
 39 37  1  0  0  0  0
 39 41  1  1  0  0  0
 40 39  1  0  0  0  0
 42 41  1  0  0  0  0
M  END
>  <CHROM.1>
67.66229612,-162.44065654,48.71884724,176.67121419,175.65939842,-169.98550400
178.45930631,-62.24034252,-46.73053805,-94.86121752,151.82494095,174.40240527
-58.52781818,142.04327266,-117.14142163,35.43813065,51.55938145,172.08272276
-68.53730484,-178.29432597,-166.01646425,-170.35938756,-1.42718699,2.35787097
2.31210826,-0.53005946,-1.15342104,-1.93805635

>  <Name>
lig.pdb

>  <RI>
4.11275e+07

>  <Rbt.Current_Directory>
/home/itssahil/PROJECTS/Mol_Feturizer/New_Systems/rnas/2mxs

>  <Rbt.Executable>
rbdock ($Id: //depot/dev/client3/rdock/2013.1/src/exe/rbdock.cxx#4 $)

>  <Rbt.Library>
libRbt.so (2013.1, Build901 2013/11/27)

>  <Rbt.Parameter_File>
/export/apps/rDock/src/rDock_2013.1_src/data/scripts/dock_solv.prm

>  <Rbt.Receptor>
prm/pocket_docking_8.prm

>  <SCORE>
-35.7125

>  <SCORE.INTER>
-35.8934

>  <SCORE.INTER.CONST>
1

>  <SCORE.INTER.POLAR>
-4.52373

>  <SCORE.INTER.ROT>
9

>  <SCORE.INTER.SOLV>
16.6944

>  <SCORE.INTER.VDW>
-24.0146

>  <SCORE.INTER.norm>
-0.854604

>  <SCORE.INTRA>
0.180851

>  <SCORE.INTRA.DIHEDRAL>
-2.76953

>  <SCORE.INTRA.DIHEDRAL.0>
30.1357

>  <SCORE.INTRA.POLAR>
-1.52045

>  <SCORE.INTRA.POLAR.0>
-0.631696

>  <SCORE.INTRA.REPUL>
0.512522

>  <SCORE.INTRA.REPUL.0>
0

>  <SCORE.INTRA.SOLV>
1.84465

>  <SCORE.INTRA.SOLV.lig_0>
-55.904

>  <SCORE.INTRA.VDW>
3.2502

>  <SCORE.INTRA.VDW.0>
-8.21197

>  <SCORE.INTRA.norm>
0.00430597

>  <SCORE.RESTR>
0

>  <SCORE.RESTR.CAVITY>
0

>  <SCORE.RESTR.norm>
0

>  <SCORE.SYSTEM>
0

>  <SCORE.SYSTEM.CONST>
0

>  <SCORE.SYSTEM.DIHEDRAL>
0

>  <SCORE.SYSTEM.SOLV>
0

>  <SCORE.SYSTEM.norm>
0

>  <SCORE.heavy>
42

>  <SCORE.norm>
-0.850298

>  <RMSD>
7.258

$$$$
lig.pdb
 OpenBabel11021811453D
libRbt.so/2013.1/901 2013/11/27
 42 45  0  0  0  0  0  0  0  0999 V2000
   -2.1387    4.5135    1.3898 C   0  0  2  0  0  0  0  0  0  0  0  0
   -1.8263    5.7353    0.7182 O   0  0  0  0  0  0  0  0  0  0  0  0
   -3.5217    4.5923    2.0537 C   0  0  2  0  0  0  0  0  0  0  0  0
   -4.5583    4.9672    1.0743 N   0  0  0  0  0  0  0  0  0  0  0  0
   -3.5075    5.5648    3.2402 C   0  0  1  0  0  0  0  0  0  0  0  0
   -4.7476    5.4970    3.9178 O   0  0  0  0  0  0  0  0  0  0  0  0
   -2.3755    5.2010    4.2128 C   0  0  2  0  0  0  0  0  0  0  0  0
   -2.2783    6.1976    5.2123 O   0  0  0  0  0  0  0  0  0  0  0  0
   -1.0248    5.0614    3.4818 C   0  0  2  0  0  0  0  0  0  0  0  0
   -1.1364    4.1961    2.3523 O   0  0  0  0  0  0  0  0  0  0  0  0
    0.0015    4.4879    4.4772 C   0  0  0  0  0  0  0  0  0  0  0  0
    0.2265    5.3760    5.6046 O   0  0  0  0  0  0  0  0  0  0  0  0
    1.6839    6.7545   -1.5558 C   0  0  2  0  0  0  0  0  0  0  0  0
    3.1462    6.8350   -1.7442 N   0  0  0  0  0  0  0  0  0  0  0  0
    1.2590    7.5736   -0.3345 C   0  0  0  0  0  0  0  0  0  0  0  0
   -0.2260    7.3825   -0.0500 C   0  0  2  0  0  0  0  0  0  0  0  0
   -0.6447    8.2466    1.0608 N   0  0  0  0  0  0  0  0  0  0  0  0
   -0.4775    5.8869    0.2523 C   0  0  2  0  0  0  0  0  0  0  0  0
   -0.2154    5.1017   -0.9928 C   0  0  2  0  0  0  0  0  0  0  0  0
   -0.4913    3.7429   -0.7064 O   0  0  0  0  0  0  0  0  0  0  0  0
    1.2280    5.2895   -1.4202 C   0  0  1  0  0  0  0  0  0  0  0  0
    1.5099    4.6344   -2.6427 O   0  0  0  0  0  0  0  0  0  0  0  0
    0.6108    2.8890   -0.4184 C   0  0  1  0  0  0  0  0  0  0  0  0
    0.2719    2.0990    0.8475 C   0  0  2  0  0  0  0  0  0  0  0  0
    1.4478    1.9146    1.6131 O   0  0  0  0  0  0  0  0  0  0  0  0
   -0.2822    0.7856    0.2792 C   0  0  2  0  0  0  0  0  0  0  0  0
   -0.2238   -0.2907    1.2156 O   0  0  0  0  0  0  0  0  0  0  0  0
    0.6248    0.6229   -0.9468 C   0  0  2  0  0  0  0  0  0  0  0  0
    0.7654    1.9384   -1.4646 O   0  0  0  0  0  0  0  0  0  0  0  0
    0.0523   -0.2847   -2.0417 C   0  0  0  0  0  0  0  0  0  0  0  0
   -1.1428    0.2400   -2.5799 O   0  0  0  0  0  0  0  0  0  0  0  0
   -1.0062   -0.0980    2.3923 C   0  0  2  0  0  0  0  0  0  0  0  0
   -0.6724   -1.1347    3.4758 C   0  0  2  0  0  0  0  0  0  0  0  0
    0.7675   -1.1289    3.7838 N   0  0  0  0  0  0  0  0  0  0  0  0
   -1.1550   -2.5354    3.0703 C   0  0  1  0  0  0  0  0  0  0  0  0
   -0.8994   -3.4277    4.1377 O   0  0  0  0  0  0  0  0  0  0  0  0
   -2.6652   -2.4663    2.7867 C   0  0  2  0  0  0  0  0  0  0  0  0
   -3.1545   -3.7263    2.3657 O   0  0  0  0  0  0  0  0  0  0  0  0
   -2.9807   -1.3858    1.7319 C   0  0  1  0  0  0  0  0  0  0  0  0
   -2.3972   -0.1282    2.0803 O   0  0  0  0  0  0  0  0  0  0  0  0
   -2.6194   -1.8088    0.3003 C   0  0  0  0  0  0  0  0  0  0  0  0
   -3.3879   -2.9919   -0.1192 N   0  0  0  0  0  0  0  0  0  0  0  0
  1  3  1  0  0  0  0
  1  2  1  1  0  0  0
  3  4  1  6  0  0  0
  5  6  1  1  0  0  0
  5  3  1  0  0  0  0
  7  9  1  0  0  0  0
  7  5  1  0  0  0  0
  7  8  1  1  0  0  0
  9 10  1  0  0  0  0
  9 11  1  1  0  0  0
 10  1  1  0  0  0  0
 11 12  1  0  0  0  0
 13 14  1  1  0  0  0
 13 21  1  0  0  0  0
 15 13  1  0  0  0  0
 16 15  1  0  0  0  0
 16 18  1  0  0  0  0
 16 17  1  1  0  0  0
 18  2  1  6  0  0  0
 18 19  1  0  0  0  0
 19 21  1  0  0  0  0
 19 20  1  1  0  0  0
 21 22  1  6  0  0  0
 23 20  1  6  0  0  0
 23 29  1  0  0  0  0
 23 24  1  0  0  0  0
 24 26  1  0  0  0  0
 24 25  1  1  0  0  0
 26 27  1  1  0  0  0
 28 26  1  0  0  0  0
 28 30  1  6  0  0  0
 29 28  1  0  0  0  0
 30 31  1  0  0  0  0
 32 27  1  6  0  0  0
 32 40  1  0  0  0  0
 32 33  1  0  0  0  0
 33 35  1  0  0  0  0
 33 34  1  6  0  0  0
 35 37  1  0  0  0  0
 35 36  1  1  0  0  0
 37 38  1  6  0  0  0
 39 37  1  0  0  0  0
 39 41  1  6  0  0  0
 40 39  1  0  0  0  0
 42 41  1  0  0  0  0
M  END
>  <CHROM.1>
-163.32578331,169.56961138,-96.00353462,-174.60413197,68.98204421,-177.27054115
-62.62029214,-42.66241283,32.41373372,-99.67849627,131.99285919,173.85510483
63.42180630,62.67467836,-167.92009926,62.77067819,-66.30832067,-153.10589426
-81.18464470,73.94034788,61.67247553,90.86983132,-0.91526102,2.64627658,1.26247892
1.23933145,1.02668754,0.14966965

>  <Name>
lig.pdb

>  <RI>
3.99633e+07

>  <Rbt.Current_Directory>
/home/itssahil/PROJECTS/Mol_Feturizer/New_Systems/rnas/2mxs

>  <Rbt.Executable>
rbdock ($Id: //depot/dev/client3/rdock/2013.1/src/exe/rbdock.cxx#4 $)

>  <Rbt.Library>
libRbt.so (2013.1, Build901 2013/11/27)

>  <Rbt.Parameter_File>
/export/apps/rDock/src/rDock_2013.1_src/data/scripts/dock_solv.prm

>  <Rbt.Receptor>
prm/pocket_docking_5.prm

>  <SCORE>
-26.4084

>  <SCORE.INTER>
-26.8657

>  <SCORE.INTER.CONST>
1

>  <SCORE.INTER.POLAR>
-2.93566

>  <SCORE.INTER.ROT>
9

>  <SCORE.INTER.SOLV>
25.1511

>  <SCORE.INTER.VDW>
-26.1087

>  <SCORE.INTER.norm>
-0.63966

>  <SCORE.INTRA>
0.457346

>  <SCORE.INTRA.DIHEDRAL>
-3.0459

>  <SCORE.INTRA.DIHEDRAL.0>
30.1357

>  <SCORE.INTRA.POLAR>
-1.22671

>  <SCORE.INTRA.POLAR.0>
-0.631696

>  <SCORE.INTRA.REPUL>
0

>  <SCORE.INTRA.REPUL.0>
0

>  <SCORE.INTRA.SOLV>
0.709734

>  <SCORE.INTRA.SOLV.lig_0>
-55.904

>  <SCORE.INTRA.VDW>
5.79624

>  <SCORE.INTRA.VDW.0>
-8.21197

>  <SCORE.INTRA.norm>
0.0108892

>  <SCORE.RESTR>
0

>  <SCORE.RESTR.CAVITY>
0

>  <SCORE.RESTR.norm>
0

>  <SCORE.SYSTEM>
0

>  <SCORE.SYSTEM.CONST>
0

>  <SCORE.SYSTEM.DIHEDRAL>
0

>  <SCORE.SYSTEM.SOLV>
0

>  <SCORE.SYSTEM.norm>
0

>  <SCORE.heavy>
42

>  <SCORE.norm>
-0.628771

>  <RMSD>
7.261

$$$$
lig.pdb
 OpenBabel11021811453D
libRbt.so/2013.1/901 2013/11/27
 42 45  0  0  0  0  0  0  0  0999 V2000
   -2.0907    4.7659    1.4153 C   0  0  2  0  0  0  0  0  0  0  0  0
   -1.9806    6.0293    0.7571 O   0  0  0  0  0  0  0  0  0  0  0  0
   -3.4680    4.6123    2.0778 C   0  0  2  0  0  0  0  0  0  0  0  0
   -4.5518    4.8245    1.1006 N   0  0  0  0  0  0  0  0  0  0  0  0
   -3.6116    5.5615    3.2744 C   0  0  1  0  0  0  0  0  0  0  0  0
   -4.8242    5.2864    3.9493 O   0  0  0  0  0  0  0  0  0  0  0  0
   -2.4355    5.3759    4.2450 C   0  0  2  0  0  0  0  0  0  0  0  0
   -2.5012    6.3643    5.2551 O   0  0  0  0  0  0  0  0  0  0  0  0
   -1.0801    5.4650    3.5147 C   0  0  2  0  0  0  0  0  0  0  0  0
   -1.0500    4.6050    2.3760 O   0  0  0  0  0  0  0  0  0  0  0  0
    0.0257    5.0550    4.5058 C   0  0  0  0  0  0  0  0  0  0  0  0
    0.1290    5.9771    5.6235 O   0  0  0  0  0  0  0  0  0  0  0  0
    1.2102    7.7685   -1.5505 C   0  0  2  0  0  0  0  0  0  0  0  0
    2.6356    7.9405   -1.8955 N   0  0  0  0  0  0  0  0  0  0  0  0
    0.9616    8.1790   -0.0969 C   0  0  0  0  0  0  0  0  0  0  0  0
   -0.4751    7.8724    0.3092 C   0  0  2  0  0  0  0  0  0  0  0  0
   -0.7317    8.3586    1.6707 N   0  0  0  0  0  0  0  0  0  0  0  0
   -0.7035    6.3480    0.1853 C   0  0  2  0  0  0  0  0  0  0  0  0
   -0.6189    5.9725   -1.2595 C   0  0  2  0  0  0  0  0  0  0  0  0
   -0.8719    4.5828   -1.3547 O   0  0  0  0  0  0  0  0  0  0  0  0
    0.7574    6.3170   -1.7964 C   0  0  1  0  0  0  0  0  0  0  0  0
    0.8664    6.0596   -3.1838 O   0  0  0  0  0  0  0  0  0  0  0  0
    0.2490    3.7088   -1.4357 C   0  0  1  0  0  0  0  0  0  0  0  0
    0.8505    3.5889   -0.0339 C   0  0  2  0  0  0  0  0  0  0  0  0
    2.2585    3.4888   -0.1357 O   0  0  0  0  0  0  0  0  0  0  0  0
    0.1980    2.3054    0.4973 C   0  0  2  0  0  0  0  0  0  0  0  0
    0.9324    1.7142    1.5696 O   0  0  0  0  0  0  0  0  0  0  0  0
    0.1579    1.4747   -0.7913 C   0  0  2  0  0  0  0  0  0  0  0  0
   -0.1857    2.4067   -1.8070 O   0  0  0  0  0  0  0  0  0  0  0  0
   -0.8766    0.3433   -0.7831 C   0  0  0  0  0  0  0  0  0  0  0  0
   -0.5311   -0.6838   -1.6880 O   0  0  0  0  0  0  0  0  0  0  0  0
    0.6742    0.3263    1.7726 C   0  0  2  0  0  0  0  0  0  0  0  0
    1.4793   -0.2371    2.9535 C   0  0  2  0  0  0  0  0  0  0  0  0
    1.2282    0.5387    4.1795 N   0  0  0  0  0  0  0  0  0  0  0  0
    2.9783   -0.2980    2.6237 C   0  0  1  0  0  0  0  0  0  0  0  0
    3.6552   -0.9022    3.7088 O   0  0  0  0  0  0  0  0  0  0  0  0
    3.1620   -1.1393    1.3492 C   0  0  2  0  0  0  0  0  0  0  0  0
    4.5266   -1.1917    0.9755 O   0  0  0  0  0  0  0  0  0  0  0  0
    2.3072   -0.5831    0.1917 C   0  0  1  0  0  0  0  0  0  0  0  0
    0.9431   -0.4132    0.5835 O   0  0  0  0  0  0  0  0  0  0  0  0
    2.8875    0.6934   -0.4347 C   0  0  0  0  0  0  0  0  0  0  0  0
    4.2413    0.4632   -0.9643 N   0  0  0  0  0  0  0  0  0  0  0  0
  1  3  1  0  0  0  0
  1  2  1  1  0  0  0
  3  4  1  6  0  0  0
  5  6  1  1  0  0  0
  5  3  1  0  0  0  0
  7  9  1  0  0  0  0
  7  5  1  0  0  0  0
  7  8  1  1  0  0  0
  9 10  1  0  0  0  0
  9 11  1  1  0  0  0
 10  1  1  0  0  0  0
 11 12  1  0  0  0  0
 13 14  1  1  0  0  0
 13 21  1  0  0  0  0
 15 13  1  0  0  0  0
 16 15  1  0  0  0  0
 16 18  1  0  0  0  0
 16 17  1  1  0  0  0
 18  2  1  6  0  0  0
 18 19  1  0  0  0  0
 19 21  1  0  0  0  0
 19 20  1  1  0  0  0
 21 22  1  6  0  0  0
 23 20  1  1  0  0  0
 23 29  1  0  0  0  0
 23 24  1  0  0  0  0
 24 26  1  0  0  0  0
 24 25  1  6  0  0  0
 26 27  1  1  0  0  0
 28 26  1  0  0  0  0
 28 30  1  1  0  0  0
 29 28  1  0  0  0  0
 30 31  1  0  0  0  0
 32 27  1  6  0  0  0
 32 40  1  0  0  0  0
 32 33  1  0  0  0  0
 33 35  1  0  0  0  0
 33 34  1  1  0  0  0
 35 37  1  0  0  0  0
 35 36  1  1  0  0  0
 37 38  1  6  0  0  0
 39 37  1  0  0  0  0
 39 41  1  1  0  0  0
 40 39  1  0  0  0  0
 42 41  1  0  0  0  0
M  END
>  <CHROM.1>
-146.10357967,175.19935632,65.05438735,70.33597770,49.05230077,66.96032106
-64.25207762,89.48500554,-161.71274291,-97.71923559,76.46255487,-147.22592998
-24.03355635,-158.29521949,-179.07828978,-156.09680239,176.53963239,79.16408839
-64.26673347,-172.33433530,58.98704493,-64.80915628,0.17351295,3.53544076
1.00590967,2.56762498,0.91721367,-0.75840132

>  <Name>
lig.pdb

>  <RI>
0

>  <Rbt.Current_Directory>
/home/itssahil/PROJECTS/Mol_Feturizer/New_Systems/rnas/2mxs

>  <Rbt.Executable>
rbdock ($Id: //depot/dev/client3/rdock/2013.1/src/exe/rbdock.cxx#4 $)

>  <Rbt.Library>
libRbt.so (2013.1, Build901 2013/11/27)

>  <Rbt.Parameter_File>
/export/apps/rDock/src/rDock_2013.1_src/data/scripts/dock_solv.prm

>  <Rbt.Receptor>
prm/blind_docking_20.prm

>  <SCORE>
30.8735

>  <SCORE.INTER>
0.984576

>  <SCORE.INTER.CONST>
1

>  <SCORE.INTER.POLAR>
-3.62572

>  <SCORE.INTER.ROT>
9

>  <SCORE.INTER.SOLV>
33.0384

>  <SCORE.INTER.VDW>
-7.87065

>  <SCORE.INTER.norm>
0.0234423

>  <SCORE.INTRA>
18.7707

>  <SCORE.INTRA.DIHEDRAL>
-1.0978

>  <SCORE.INTRA.DIHEDRAL.0>
30.1357

>  <SCORE.INTRA.POLAR>
0.135159

>  <SCORE.INTRA.POLAR.0>
-0.631696

>  <SCORE.INTRA.REPUL>
0

>  <SCORE.INTRA.REPUL.0>
0

>  <SCORE.INTRA.SOLV>
1.73274

>  <SCORE.INTRA.SOLV.lig_0>
-55.904

>  <SCORE.INTRA.VDW>
17.9937

>  <SCORE.INTRA.VDW.0>
-8.21197

>  <SCORE.INTRA.norm>
0.446922

>  <SCORE.RESTR>
11.1182

>  <SCORE.RESTR.CAVITY>
11.1182

>  <SCORE.RESTR.norm>
0.264719

>  <SCORE.SYSTEM>
0

>  <SCORE.SYSTEM.CONST>
0

>  <SCORE.SYSTEM.DIHEDRAL>
0

>  <SCORE.SYSTEM.SOLV>
0

>  <SCORE.SYSTEM.norm>
0

>  <SCORE.heavy>
42

>  <SCORE.norm>
0.735083

>  <RMSD>
7.264

$$$$
lig.pdb
 OpenBabel11021811453D
libRbt.so/2013.1/901 2013/11/27
 42 45  0  0  0  0  0  0  0  0999 V2000
   -1.9562    6.5760    2.1038 C   0  0  2  0  0  0  0  0  0  0  0  0
   -1.8337    6.2175    0.7261 O   0  0  0  0  0  0  0  0  0  0  0  0
   -1.1605    5.6091    2.9936 C   0  0  2  0  0  0  0  0  0  0  0  0
    0.2480    5.5321    2.5639 N   0  0  0  0  0  0  0  0  0  0  0  0
   -1.8081    4.2184    3.0107 C   0  0  1  0  0  0  0  0  0  0  0  0
   -1.1416    3.4017    3.9542 O   0  0  0  0  0  0  0  0  0  0  0  0
   -3.2925    4.3273    3.3904 C   0  0  2  0  0  0  0  0  0  0  0  0
   -3.9069    3.0610    3.2469 O   0  0  0  0  0  0  0  0  0  0  0  0
   -4.0253    5.3652    2.5162 C   0  0  2  0  0  0  0  0  0  0  0  0
   -3.3259    6.6092    2.4968 O   0  0  0  0  0  0  0  0  0  0  0  0
   -5.4366    5.5708    3.0985 C   0  0  0  0  0  0  0  0  0  0  0  0
   -5.4032    5.8973    4.5136 O   0  0  0  0  0  0  0  0  0  0  0  0
    1.3301    7.7896   -1.7335 C   0  0  2  0  0  0  0  0  0  0  0  0
    2.7474    7.9049   -2.1311 N   0  0  0  0  0  0  0  0  0  0  0  0
    1.1455    8.2450   -0.2838 C   0  0  0  0  0  0  0  0  0  0  0  0
   -0.2854    7.9972    0.1787 C   0  0  2  0  0  0  0  0  0  0  0  0
   -0.4787    8.5262    1.5347 N   0  0  0  0  0  0  0  0  0  0  0  0
   -0.5676    6.4786    0.1032 C   0  0  2  0  0  0  0  0  0  0  0  0
   -0.5454    6.0638   -1.3332 C   0  0  2  0  0  0  0  0  0  0  0  0
   -0.8468    4.6814   -1.3828 O   0  0  0  0  0  0  0  0  0  0  0  0
    0.8219    6.3483   -1.9254 C   0  0  1  0  0  0  0  0  0  0  0  0
    0.8742    6.0521   -3.3083 O   0  0  0  0  0  0  0  0  0  0  0  0
    0.2406    3.7636   -1.3352 C   0  0  1  0  0  0  0  0  0  0  0  0
    0.7410    3.7062    0.1097 C   0  0  2  0  0  0  0  0  0  0  0  0
    2.1474    3.5487    0.1120 O   0  0  0  0  0  0  0  0  0  0  0  0
    0.0026    2.4817    0.6669 C   0  0  2  0  0  0  0  0  0  0  0  0
    0.6385    1.9294    1.8199 O   0  0  0  0  0  0  0  0  0  0  0  0
    0.0156    1.5772   -0.5715 C   0  0  2  0  0  0  0  0  0  0  0  0
   -0.2207    2.4584   -1.6605 O   0  0  0  0  0  0  0  0  0  0  0  0
   -1.0622    0.4869   -0.5704 C   0  0  0  0  0  0  0  0  0  0  0  0
   -1.1619   -0.1471   -1.8278 O   0  0  0  0  0  0  0  0  0  0  0  0
    0.2940    0.5733    2.0964 C   0  0  2  0  0  0  0  0  0  0  0  0
    0.9425    0.0735    3.3962 C   0  0  2  0  0  0  0  0  0  0  0  0
    0.6016    0.9532    4.5266 N   0  0  0  0  0  0  0  0  0  0  0  0
    2.4633   -0.0729    3.2363 C   0  0  1  0  0  0  0  0  0  0  0  0
    2.9926   -0.6158    4.4304 O   0  0  0  0  0  0  0  0  0  0  0  0
    2.7393   -1.0190    2.0554 C   0  0  2  0  0  0  0  0  0  0  0  0
    4.1314   -1.1550    1.8368 O   0  0  0  0  0  0  0  0  0  0  0  0
    2.0385   -0.5225    0.7740 C   0  0  1  0  0  0  0  0  0  0  0  0
    0.6505   -0.2680    1.0018 O   0  0  0  0  0  0  0  0  0  0  0  0
    2.7420    0.6764    0.1209 C   0  0  0  0  0  0  0  0  0  0  0  0
    3.9605    0.2600   -0.5919 N   0  0  0  0  0  0  0  0  0  0  0  0
  1  3  1  0  0  0  0
  1  2  1  6  0  0  0
  3  4  1  6  0  0  0
  5  6  1  1  0  0  0
  5  3  1  0  0  0  0
  7  9  1  0  0  0  0
  7  5  1  0  0  0  0
  7  8  1  6  0  0  0
  9 10  1  0  0  0  0
  9 11  1  1  0  0  0
 10  1  1  0  0  0  0
 11 12  1  0  0  0  0
 13 14  1  1  0  0  0
 13 21  1  0  0  0  0
 15 13  1  0  0  0  0
 16 15  1  0  0  0  0
 16 18  1  0  0  0  0
 16 17  1  1  0  0  0
 18  2  1  6  0  0  0
 18 19  1  0  0  0  0
 19 21  1  0  0  0  0
 19 20  1  1  0  0  0
 21 22  1  6  0  0  0
 23 20  1  1  0  0  0
 23 29  1  0  0  0  0
 23 24  1  0  0  0  0
 24 26  1  0  0  0  0
 24 25  1  6  0  0  0
 26 27  1  1  0  0  0
 28 26  1  0  0  0  0
 28 30  1  1  0  0  0
 29 28  1  0  0  0  0
 30 31  1  0  0  0  0
 32 27  1  6  0  0  0
 32 40  1  0  0  0  0
 32 33  1  0  0  0  0
 33 35  1  0  0  0  0
 33 34  1  1  0  0  0
 35 37  1  0  0  0  0
 35 36  1  1  0  0  0
 37 38  1  6  0  0  0
 39 37  1  0  0  0  0
 39 41  1  1  0  0  0
 40 39  1  0  0  0  0
 42 41  1  0  0  0  0
M  END
>  <CHROM.1>
-60.22489139,-72.52980038,157.21016832,63.75768207,65.10446514,-49.06055489
53.05573063,-178.98385758,-177.23461203,-91.20038580,75.68625493,62.22935469
-167.24025878,-159.27416786,-176.37985913,169.08055191,-168.15778669,25.55794463
-51.79271420,-35.03737704,75.83343267,59.25489187,-0.06847058,3.57837138
1.06873552,2.25683893,0.71926705,-0.56463095

>  <Name>
lig.pdb

>  <RI>
0

>  <Rbt.Current_Directory>
/home/itssahil/PROJECTS/Mol_Feturizer/New_Systems/rnas/2mxs

>  <Rbt.Executable>
rbdock ($Id: //depot/dev/client3/rdock/2013.1/src/exe/rbdock.cxx#4 $)

>  <Rbt.Library>
libRbt.so (2013.1, Build901 2013/11/27)

>  <Rbt.Parameter_File>
/export/apps/rDock/src/rDock_2013.1_src/data/scripts/dock_solv.prm

>  <Rbt.Receptor>
prm/blind_docking_20.prm

>  <SCORE>
57.5485

>  <SCORE.INTER>
19.51

>  <SCORE.INTER.CONST>
1

>  <SCORE.INTER.POLAR>
-3.85628

>  <SCORE.INTER.ROT>
9

>  <SCORE.INTER.SOLV>
32.0597

>  <SCORE.INTER.VDW>
5.57436

>  <SCORE.INTER.norm>
0.464524

>  <SCORE.INTRA>
24.6471

>  <SCORE.INTRA.DIHEDRAL>
-11.7516

>  <SCORE.INTRA.DIHEDRAL.0>
30.1357

>  <SCORE.INTRA.POLAR>
-0.315605

>  <SCORE.INTRA.POLAR.0>
-0.631696

>  <SCORE.INTRA.REPUL>
0.19142

>  <SCORE.INTRA.REPUL.0>
0

>  <SCORE.INTRA.SOLV>
3.32166

>  <SCORE.INTRA.SOLV.lig_0>
-55.904

>  <SCORE.INTRA.VDW>
28.978

>  <SCORE.INTRA.VDW.0>
-8.21197

>  <SCORE.INTRA.norm>
0.586835

>  <SCORE.RESTR>
13.3915

>  <SCORE.RESTR.CAVITY>
13.3915

>  <SCORE.RESTR.norm>
0.318844

>  <SCORE.SYSTEM>
0

>  <SCORE.SYSTEM.CONST>
0

>  <SCORE.SYSTEM.DIHEDRAL>
0

>  <SCORE.SYSTEM.SOLV>
0

>  <SCORE.SYSTEM.norm>
0

>  <SCORE.heavy>
42

>  <SCORE.norm>
1.3702

>  <RMSD>
7.276

$$$$
lig.pdb
 OpenBabel11021811453D
libRbt.so/2013.1/901 2013/11/27
 42 45  0  0  0  0  0  0  0  0999 V2000
   -2.4397    4.7755    1.0160 C   0  0  2  0  0  0  0  0  0  0  0  0
   -2.1533    5.9874    0.3155 O   0  0  0  0  0  0  0  0  0  0  0  0
   -3.7520    4.8968    1.8052 C   0  0  2  0  0  0  0  0  0  0  0  0
   -4.8629    5.3042    0.9253 N   0  0  0  0  0  0  0  0  0  0  0  0
   -3.5976    5.8676    2.9830 C   0  0  1  0  0  0  0  0  0  0  0  0
   -4.7709    5.8379    3.7730 O   0  0  0  0  0  0  0  0  0  0  0  0
   -2.3920    5.4683    3.8472 C   0  0  2  0  0  0  0  0  0  0  0  0
   -2.1717    6.4607    4.8311 O   0  0  0  0  0  0  0  0  0  0  0  0
   -1.1200    5.2873    2.9943 C   0  0  2  0  0  0  0  0  0  0  0  0
   -1.3627    4.4265    1.8820 O   0  0  0  0  0  0  0  0  0  0  0  0
   -0.0239    4.6816    3.8916 C   0  0  0  0  0  0  0  0  0  0  0  0
    0.4709    3.4175    3.3743 O   0  0  0  0  0  0  0  0  0  0  0  0
    1.4718    7.4426   -1.4934 C   0  0  2  0  0  0  0  0  0  0  0  0
    2.9422    7.5322   -1.5944 N   0  0  0  0  0  0  0  0  0  0  0  0
    1.0003    7.9530   -0.1294 C   0  0  0  0  0  0  0  0  0  0  0  0
   -0.4987    7.7336    0.0370 C   0  0  2  0  0  0  0  0  0  0  0  0
   -0.9583    8.3140    1.3050 N   0  0  0  0  0  0  0  0  0  0  0  0
   -0.7824    6.2154   -0.0422 C   0  0  2  0  0  0  0  0  0  0  0  0
   -0.4720    5.7475   -1.4279 C   0  0  2  0  0  0  0  0  0  0  0  0
   -0.7776    4.3665   -1.4904 O   0  0  0  0  0  0  0  0  0  0  0  0
    0.9921    5.9991   -1.7354 C   0  0  1  0  0  0  0  0  0  0  0  0
    1.3229    5.6515   -3.0669 O   0  0  0  0  0  0  0  0  0  0  0  0
    0.0586    3.5379   -2.2910 C   0  0  1  0  0  0  0  0  0  0  0  0
    1.1610    2.9768   -1.3904 C   0  0  2  0  0  0  0  0  0  0  0  0
    2.3657    2.8844   -2.1273 O   0  0  0  0  0  0  0  0  0  0  0  0
    0.5977    1.6056   -0.9933 C   0  0  2  0  0  0  0  0  0  0  0  0
    1.6097    0.6961   -0.5603 O   0  0  0  0  0  0  0  0  0  0  0  0
   -0.1014    1.2165   -2.3017 C   0  0  2  0  0  0  0  0  0  0  0  0
   -0.6867    2.4244   -2.7673 O   0  0  0  0  0  0  0  0  0  0  0  0
   -1.2005    0.1597   -2.1420 C   0  0  0  0  0  0  0  0  0  0  0  0
   -0.6613   -1.1418   -2.0505 O   0  0  0  0  0  0  0  0  0  0  0  0
    2.6081    1.2732    0.2788 C   0  0  2  0  0  0  0  0  0  0  0  0
    3.6246    0.2263    0.7592 C   0  0  2  0  0  0  0  0  0  0  0  0
    4.2286   -0.4828   -0.3811 N   0  0  0  0  0  0  0  0  0  0  0  0
    2.9838   -0.7527    1.7545 C   0  0  1  0  0  0  0  0  0  0  0  0
    3.9830   -1.6356    2.2263 O   0  0  0  0  0  0  0  0  0  0  0  0
    2.3964    0.0569    2.9231 C   0  0  2  0  0  0  0  0  0  0  0  0
    1.7537   -0.7972    3.8515 O   0  0  0  0  0  0  0  0  0  0  0  0
    1.4162    1.1329    2.4125 C   0  0  1  0  0  0  0  0  0  0  0  0
    2.0080    1.9365    1.3891 O   0  0  0  0  0  0  0  0  0  0  0  0
    0.0573    0.5626    1.9801 C   0  0  0  0  0  0  0  0  0  0  0  0
    0.2210   -0.6415    1.1496 N   0  0  0  0  0  0  0  0  0  0  0  0
  1  3  1  0  0  0  0
  1  2  1  1  0  0  0
  3  4  1  6  0  0  0
  5  6  1  1  0  0  0
  5  3  1  0  0  0  0
  7  9  1  0  0  0  0
  7  5  1  0  0  0  0
  7  8  1  1  0  0  0
  9 10  1  0  0  0  0
  9 11  1  1  0  0  0
 10  1  1  0  0  0  0
 11 12  1  0  0  0  0
 13 14  1  1  0  0  0
 13 21  1  0  0  0  0
 15 13  1  0  0  0  0
 16 15  1  0  0  0  0
 16 18  1  0  0  0  0
 16 17  1  1  0  0  0
 18  2  1  6  0  0  0
 18 19  1  0  0  0  0
 19 21  1  0  0  0  0
 19 20  1  1  0  0  0
 21 22  1  6  0  0  0
 23 20  1  1  0  0  0
 23 29  1  0  0  0  0
 23 24  1  0  0  0  0
 24 26  1  0  0  0  0
 24 25  1  6  0  0  0
 26 27  1  6  0  0  0
 28 26  1  0  0  0  0
 28 30  1  1  0  0  0
 29 28  1  0  0  0  0
 30 31  1  0  0  0  0
 32 27  1  1  0  0  0
 32 40  1  0  0  0  0
 32 33  1  0  0  0  0
 33 35  1  0  0  0  0
 33 34  1  6  0  0  0
 35 37  1  0  0  0  0
 35 36  1  1  0  0  0
 37 38  1  1  0  0  0
 39 37  1  0  0  0  0
 39 41  1  6  0  0  0
 40 39  1  0  0  0  0
 42 41  1  0  0  0  0
M  END
>  <CHROM.1>
-145.89284773,157.54909261,-3.72539636,-62.28885154,42.60863466,58.38985794
121.71858197,-47.67274763,116.50700162,-144.27087435,92.30005523,-32.54257007
62.45206417,41.48369066,177.32017993,-79.96390411,61.26079961,7.82662026
-81.60810207,-28.34620968,-45.52891743,-168.19229868,0.11193463,3.41256373
0.57050976,2.56335250,0.90216931,-0.74419795

>  <Name>
lig.pdb

>  <RI>
0

>  <Rbt.Current_Directory>
/home/itssahil/PROJECTS/Mol_Feturizer/New_Systems/rnas/2mxs

>  <Rbt.Executable>
rbdock ($Id: //depot/dev/client3/rdock/2013.1/src/exe/rbdock.cxx#4 $)

>  <Rbt.Library>
libRbt.so (2013.1, Build901 2013/11/27)

>  <Rbt.Parameter_File>
/export/apps/rDock/src/rDock_2013.1_src/data/scripts/dock_solv.prm

>  <Rbt.Receptor>
prm/blind_docking_60.prm

>  <SCORE>
106.284

>  <SCORE.INTER>
69.8942

>  <SCORE.INTER.CONST>
1

>  <SCORE.INTER.POLAR>
-3.4624

>  <SCORE.INTER.ROT>
9

>  <SCORE.INTER.SOLV>
34.6862

>  <SCORE.INTER.VDW>
36.9754

>  <SCORE.INTER.norm>
1.66415

>  <SCORE.INTRA>
17.4394

>  <SCORE.INTRA.DIHEDRAL>
16.2411

>  <SCORE.INTRA.DIHEDRAL.0>
30.1357

>  <SCORE.INTRA.POLAR>
-1.24548

>  <SCORE.INTRA.POLAR.0>
-0.631696

>  <SCORE.INTRA.REPUL>
0.0688732

>  <SCORE.INTRA.REPUL.0>
0

>  <SCORE.INTRA.SOLV>
3.08903

>  <SCORE.INTRA.SOLV.lig_0>
-55.904

>  <SCORE.INTRA.VDW>
11.6646

>  <SCORE.INTRA.VDW.0>
-8.21197

>  <SCORE.INTRA.norm>
0.415223

>  <SCORE.RESTR>
18.9501

>  <SCORE.RESTR.CAVITY>
18.9501

>  <SCORE.RESTR.norm>
0.451193

>  <SCORE.SYSTEM>
0

>  <SCORE.SYSTEM.CONST>
0

>  <SCORE.SYSTEM.DIHEDRAL>
0

>  <SCORE.SYSTEM.SOLV>
0

>  <SCORE.SYSTEM.norm>
0

>  <SCORE.heavy>
42

>  <SCORE.norm>
2.53056

>  <RMSD>
7.286

$$$$
lig.pdb
 OpenBabel11021811453D
libRbt.so/2013.1/901 2013/11/27
 42 45  0  0  0  0  0  0  0  0999 V2000
   -1.2331    2.8884    5.2868 C   0  0  2  0  0  0  0  0  0  0  0  0
   -0.7704    2.3265    4.0573 O   0  0  0  0  0  0  0  0  0  0  0  0
   -2.6705    3.4108    5.1430 C   0  0  2  0  0  0  0  0  0  0  0  0
   -3.5698    2.3545    4.6430 N   0  0  0  0  0  0  0  0  0  0  0  0
   -2.7178    4.6485    4.2377 C   0  0  1  0  0  0  0  0  0  0  0  0
   -4.0246    5.1904    4.2510 O   0  0  0  0  0  0  0  0  0  0  0  0
   -1.7223    5.7084    4.7331 C   0  0  2  0  0  0  0  0  0  0  0  0
   -1.6658    6.7704    3.8001 O   0  0  0  0  0  0  0  0  0  0  0  0
   -0.3138    5.1124    4.9316 C   0  0  2  0  0  0  0  0  0  0  0  0
   -0.3621    3.9277    5.7261 O   0  0  0  0  0  0  0  0  0  0  0  0
    0.5604    6.1716    5.6295 C   0  0  0  0  0  0  0  0  0  0  0  0
    0.1552    6.3956    7.0064 O   0  0  0  0  0  0  0  0  0  0  0  0
   -0.5531   -1.7905    2.8187 C   0  0  2  0  0  0  0  0  0  0  0  0
   -1.0131   -3.1933    2.8447 N   0  0  0  0  0  0  0  0  0  0  0  0
   -0.1022   -1.3525    4.2144 C   0  0  0  0  0  0  0  0  0  0  0  0
    0.2405    0.1325    4.2265 C   0  0  2  0  0  0  0  0  0  0  0  0
    0.7647    0.5211    5.5418 N   0  0  0  0  0  0  0  0  0  0  0  0
   -1.0295    0.9304    3.8498 C   0  0  2  0  0  0  0  0  0  0  0  0
   -1.3777    0.6228    2.4286 C   0  0  2  0  0  0  0  0  0  0  0  0
   -2.5163    1.3939    2.0918 O   0  0  0  0  0  0  0  0  0  0  0  0
   -1.6575   -0.8609    2.2815 C   0  0  1  0  0  0  0  0  0  0  0  0
   -1.9111   -1.2231    0.9370 O   0  0  0  0  0  0  0  0  0  0  0  0
   -2.4578    2.1798    0.9061 C   0  0  1  0  0  0  0  0  0  0  0  0
   -1.4376    3.2969    1.1355 C   0  0  2  0  0  0  0  0  0  0  0  0
   -1.8760    4.4728    0.4814 O   0  0  0  0  0  0  0  0  0  0  0  0
   -0.1611    2.7109    0.5172 C   0  0  2  0  0  0  0  0  0  0  0  0
    0.7962    3.7122    0.1712 O   0  0  0  0  0  0  0  0  0  0  0  0
   -0.7646    1.9574   -0.6745 C   0  0  2  0  0  0  0  0  0  0  0  0
   -1.9641    1.3891   -0.1678 O   0  0  0  0  0  0  0  0  0  0  0  0
    0.1219    0.8363   -1.2292 C   0  0  0  0  0  0  0  0  0  0  0  0
   -0.3055    0.4204   -2.5088 O   0  0  0  0  0  0  0  0  0  0  0  0
    0.8606    4.0173   -1.2205 C   0  0  2  0  0  0  0  0  0  0  0  0
    2.2765    4.4321   -1.6488 C   0  0  2  0  0  0  0  0  0  0  0  0
    3.2609    3.4007   -1.2811 N   0  0  0  0  0  0  0  0  0  0  0  0
    2.6530    5.8023   -1.0655 C   0  0  1  0  0  0  0  0  0  0  0  0
    3.9258    6.1698   -1.5612 O   0  0  0  0  0  0  0  0  0  0  0  0
    1.5950    6.8270   -1.5087 C   0  0  2  0  0  0  0  0  0  0  0  0
    1.8721    8.1027   -0.9608 O   0  0  0  0  0  0  0  0  0  0  0  0
    0.1778    6.3656   -1.1106 C   0  0  1  0  0  0  0  0  0  0  0  0
   -0.0828    5.0325   -1.5557 O   0  0  0  0  0  0  0  0  0  0  0  0
   -0.1210    6.5395    0.3858 C   0  0  0  0  0  0  0  0  0  0  0  0
   -0.3851    7.9485    0.7196 N   0  0  0  0  0  0  0  0  0  0  0  0
  1  3  1  0  0  0  0
  1  2  1  6  0  0  0
  3  4  1  6  0  0  0
  5  6  1  1  0  0  0
  5  3  1  0  0  0  0
  7  9  1  0  0  0  0
  7  5  1  0  0  0  0
  7  8  1  6  0  0  0
  9 10  1  0  0  0  0
  9 11  1  1  0  0  0
 10  1  1  0  0  0  0
 11 12  1  0  0  0  0
 13 14  1  1  0  0  0
 13 21  1  0  0  0  0
 15 13  1  0  0  0  0
 16 15  1  0  0  0  0
 16 18  1  0  0  0  0
 16 17  1  1  0  0  0
 18  2  1  6  0  0  0
 18 19  1  0  0  0  0
 19 21  1  0  0  0  0
 19 20  1  1  0  0  0
 21 22  1  6  0  0  0
 23 20  1  1  0  0  0
 23 29  1  0  0  0  0
 23 24  1  0  0  0  0
 24 26  1  0  0  0  0
 24 25  1  6  0  0  0
 26 27  1  6  0  0  0
 28 26  1  0  0  0  0
 28 30  1  1  0  0  0
 29 28  1  0  0  0  0
 30 31  1  0  0  0  0
 32 27  1  1  0  0  0
 32 40  1  0  0  0  0
 32 33  1  0  0  0  0
 33 35  1  0  0  0  0
 33 34  1  1  0  0  0
 35 37  1  0  0  0  0
 35 36  1  6  0  0  0
 37 38  1  1  0  0  0
 39 37  1  0  0  0  0
 39 41  1  1  0  0  0
 40 39  1  0  0  0  0
 42 41  1  0  0  0  0
M  END
>  <CHROM.1>
-97.89499026,-89.22163636,178.22759729,62.38097679,-60.14561542,59.30686994
69.41042783,-169.81430534,57.02924138,128.74903427,-67.93110290,67.43254112
-55.12543366,-102.93013978,-148.55063652,-164.53409270,-175.00210462,166.52784518
-70.16568056,69.46476930,75.96851540,-167.83634722,-0.46024508,3.24953690
1.86584620,2.73252831,-1.17084269,-2.72039870

>  <Name>
lig.pdb

>  <RI>
0

>  <Rbt.Current_Directory>
/home/itssahil/PROJECTS/Mol_Feturizer/New_Systems/rnas/2mxs

>  <Rbt.Executable>
rbdock ($Id: //depot/dev/client3/rdock/2013.1/src/exe/rbdock.cxx#4 $)

>  <Rbt.Library>
libRbt.so (2013.1, Build901 2013/11/27)

>  <Rbt.Parameter_File>
/export/apps/rDock/src/rDock_2013.1_src/data/scripts/dock_solv.prm

>  <Rbt.Receptor>
prm/pocket_docking_3.prm

>  <SCORE>
-36.6114

>  <SCORE.INTER>
-38.3824

>  <SCORE.INTER.CONST>
1

>  <SCORE.INTER.POLAR>
-4.20539

>  <SCORE.INTER.ROT>
9

>  <SCORE.INTER.SOLV>
17.6731

>  <SCORE.INTER.VDW>
-27.0614

>  <SCORE.INTER.norm>
-0.913868

>  <SCORE.INTRA>
0.338039

>  <SCORE.INTRA.DIHEDRAL>
0.235811

>  <SCORE.INTRA.DIHEDRAL.0>
30.1357

>  <SCORE.INTRA.POLAR>
-1.03536

>  <SCORE.INTRA.POLAR.0>
-0.631696

>  <SCORE.INTRA.REPUL>
0.127344

>  <SCORE.INTRA.REPUL.0>
0

>  <SCORE.INTRA.SOLV>
2.11301

>  <SCORE.INTRA.SOLV.lig_0>
-55.904

>  <SCORE.INTRA.VDW>
2.04713

>  <SCORE.INTRA.VDW.0>
-8.21197

>  <SCORE.INTRA.norm>
0.00804856

>  <SCORE.RESTR>
1.43299

>  <SCORE.RESTR.CAVITY>
1.43299

>  <SCORE.RESTR.norm>
0.0341188

>  <SCORE.SYSTEM>
0

>  <SCORE.SYSTEM.CONST>
0

>  <SCORE.SYSTEM.DIHEDRAL>
0

>  <SCORE.SYSTEM.SOLV>
0

>  <SCORE.SYSTEM.norm>
0

>  <SCORE.heavy>
42

>  <SCORE.norm>
-0.8717

>  <RMSD>
7.295

$$$$
lig.pdb
 OpenBabel11021811453D
libRbt.so/2013.1/901 2013/11/27
 42 45  0  0  0  0  0  0  0  0999 V2000
   -1.7765    4.8003    1.4999 C   0  0  2  0  0  0  0  0  0  0  0  0
   -1.7375    5.9093    0.5999 O   0  0  0  0  0  0  0  0  0  0  0  0
   -3.1169    4.7500    2.2486 C   0  0  2  0  0  0  0  0  0  0  0  0
   -4.2499    4.7382    1.3048 N   0  0  0  0  0  0  0  0  0  0  0  0
   -3.2374    5.9151    3.2393 C   0  0  1  0  0  0  0  0  0  0  0  0
   -4.4087    5.7520    4.0158 O   0  0  0  0  0  0  0  0  0  0  0  0
   -2.0133    5.9538    4.1667 C   0  0  2  0  0  0  0  0  0  0  0  0
   -2.0657    7.1218    4.9631 O   0  0  0  0  0  0  0  0  0  0  0  0
   -0.6959    5.9268    3.3655 C   0  0  2  0  0  0  0  0  0  0  0  0
   -0.6890    4.8581    2.4195 O   0  0  0  0  0  0  0  0  0  0  0  0
    0.4663    5.7481    4.3609 C   0  0  0  0  0  0  0  0  0  0  0  0
    0.3346    4.5318    5.1442 O   0  0  0  0  0  0  0  0  0  0  0  0
    1.4819    7.6303   -1.6814 C   0  0  2  0  0  0  0  0  0  0  0  0
    2.9101    7.9164   -1.9238 N   0  0  0  0  0  0  0  0  0  0  0  0
    1.0373    8.2352   -0.3474 C   0  0  0  0  0  0  0  0  0  0  0  0
   -0.3945    7.8258   -0.0229 C   0  0  2  0  0  0  0  0  0  0  0  0
   -0.8451    8.4891    1.2070 N   0  0  0  0  0  0  0  0  0  0  0  0
   -0.4471    6.2849    0.0968 C   0  0  2  0  0  0  0  0  0  0  0  0
   -0.1693    5.6957   -1.2490 C   0  0  2  0  0  0  0  0  0  0  0  0
   -0.2634    4.2884   -1.1264 O   0  0  0  0  0  0  0  0  0  0  0  0
    1.2129    6.1141   -1.7137 C   0  0  1  0  0  0  0  0  0  0  0  0
    1.4963    5.6528   -3.0213 O   0  0  0  0  0  0  0  0  0  0  0  0
    0.6289    3.4942   -1.9011 C   0  0  1  0  0  0  0  0  0  0  0  0
    1.5743    2.7765   -0.9355 C   0  0  2  0  0  0  0  0  0  0  0  0
    2.8594    2.6836   -1.5210 O   0  0  0  0  0  0  0  0  0  0  0  0
    0.8968    1.4103   -0.7635 C   0  0  2  0  0  0  0  0  0  0  0  0
    1.7969    0.3997   -0.3083 O   0  0  0  0  0  0  0  0  0  0  0  0
    0.3574    1.2005   -2.1837 C   0  0  2  0  0  0  0  0  0  0  0  0
   -0.1014    2.4838   -2.5852 O   0  0  0  0  0  0  0  0  0  0  0  0
   -0.8041    0.2043   -2.2790 C   0  0  0  0  0  0  0  0  0  0  0  0
   -0.4089   -0.9966   -2.9073 O   0  0  0  0  0  0  0  0  0  0  0  0
    1.2094   -0.5774    0.5486 C   0  0  2  0  0  0  0  0  0  0  0  0
    0.7267    0.0392    1.8704 C   0  0  2  0  0  0  0  0  0  0  0  0
   -0.1974    1.1584    1.6226 N   0  0  0  0  0  0  0  0  0  0  0  0
    1.9124    0.4722    2.7457 C   0  0  1  0  0  0  0  0  0  0  0  0
    1.4120    0.9503    3.9794 O   0  0  0  0  0  0  0  0  0  0  0  0
    2.8172   -0.7498    2.9780 C   0  0  2  0  0  0  0  0  0  0  0  0
    3.9521   -0.3944    3.7463 O   0  0  0  0  0  0  0  0  0  0  0  0
    3.2494   -1.3802    1.6381 C   0  0  1  0  0  0  0  0  0  0  0  0
    2.1243   -1.6426    0.7963 O   0  0  0  0  0  0  0  0  0  0  0  0
    4.3360   -0.5759    0.9092 C   0  0  0  0  0  0  0  0  0  0  0  0
    3.9260   -0.2430   -0.4646 N   0  0  0  0  0  0  0  0  0  0  0  0
  1  3  1  0  0  0  0
  1  2  1  6  0  0  0
  3  4  1  6  0  0  0
  5  6  1  1  0  0  0
  5  3  1  0  0  0  0
  7  9  1  0  0  0  0
  7  5  1  0  0  0  0
  7  8  1  6  0  0  0
  9 10  1  0  0  0  0
  9 11  1  1  0  0  0
 10  1  1  0  0  0  0
 11 12  1  0  0  0  0
 13 14  1  1  0  0  0
 13 21  1  0  0  0  0
 15 13  1  0  0  0  0
 16 15  1  0  0  0  0
 16 18  1  0  0  0  0
 16 17  1  1  0  0  0
 18  2  1  6  0  0  0
 18 19  1  0  0  0  0
 19 21  1  0  0  0  0
 19 20  1  1  0  0  0
 21 22  1  6  0  0  0
 23 20  1  1  0  0  0
 23 29  1  0  0  0  0
 23 24  1  0  0  0  0
 24 26  1  0  0  0  0
 24 25  1  6  0  0  0
 26 27  1  6  0  0  0
 28 26  1  0  0  0  0
 28 30  1  1  0  0  0
 29 28  1  0  0  0  0
 30 31  1  0  0  0  0
 32 27  1  6  0  0  0
 32 40  1  0  0  0  0
 32 33  1  0  0  0  0
 33 35  1  0  0  0  0
 33 34  1  6  0  0  0
 35 37  1  0  0  0  0
 35 36  1  1  0  0  0
 37 38  1  6  0  0  0
 39 37  1  0  0  0  0
 39 41  1  6  0  0  0
 40 39  1  0  0  0  0
 42 41  1  0  0  0  0
M  END
>  <CHROM.1>
-143.41077478,164.38403422,-174.14543355,76.81590923,-44.47285120,-171.90017714
58.48427655,81.00368364,-91.01820386,-144.35115299,113.61174238,57.01986031
-61.21016589,146.34774322,-64.55264788,-109.16444200,-57.79302711,-78.47823052
170.42376603,-27.72962712,-125.45109604,-41.09505178,0.36327603,3.44791521
0.78678969,2.71299833,1.05350072,-0.88344712

>  <Name>
lig.pdb

>  <RI>
0

>  <Rbt.Current_Directory>
/home/itssahil/PROJECTS/Mol_Feturizer/New_Systems/rnas/2mxs

>  <Rbt.Executable>
rbdock ($Id: //depot/dev/client3/rdock/2013.1/src/exe/rbdock.cxx#4 $)

>  <Rbt.Library>
libRbt.so (2013.1, Build901 2013/11/27)

>  <Rbt.Parameter_File>
/export/apps/rDock/src/rDock_2013.1_src/data/scripts/dock_solv.prm

>  <Rbt.Receptor>
prm/blind_docking_60.prm

>  <SCORE>
72.2338

>  <SCORE.INTER>
33.8153

>  <SCORE.INTER.CONST>
1

>  <SCORE.INTER.POLAR>
-2.9781

>  <SCORE.INTER.ROT>
9

>  <SCORE.INTER.SOLV>
34.0348

>  <SCORE.INTER.VDW>
11.5256

>  <SCORE.INTER.norm>
0.805125

>  <SCORE.INTRA>
21.1324

>  <SCORE.INTRA.DIHEDRAL>
14.0054

>  <SCORE.INTRA.DIHEDRAL.0>
30.1357

>  <SCORE.INTRA.POLAR>
0.315796

>  <SCORE.INTRA.POLAR.0>
-0.631696

>  <SCORE.INTRA.REPUL>
0.0204506

>  <SCORE.INTRA.REPUL.0>
0

>  <SCORE.INTRA.SOLV>
1.06508

>  <SCORE.INTRA.SOLV.lig_0>
-55.904

>  <SCORE.INTRA.VDW>
12.4212

>  <SCORE.INTRA.VDW.0>
-8.21197

>  <SCORE.INTRA.norm>
0.503151

>  <SCORE.RESTR>
17.2862

>  <SCORE.RESTR.CAVITY>
17.2862

>  <SCORE.RESTR.norm>
0.411576

>  <SCORE.SYSTEM>
0

>  <SCORE.SYSTEM.CONST>
0

>  <SCORE.SYSTEM.DIHEDRAL>
0

>  <SCORE.SYSTEM.SOLV>
0

>  <SCORE.SYSTEM.norm>
0

>  <SCORE.heavy>
42

>  <SCORE.norm>
1.71985

>  <RMSD>
7.298

$$$$
lig.pdb
 OpenBabel11021811453D
libRbt.so/2013.1/901 2013/11/27
 42 45  0  0  0  0  0  0  0  0999 V2000
   -1.9943    4.6454    1.3224 C   0  0  2  0  0  0  0  0  0  0  0  0
   -1.9568    5.8966    0.6335 O   0  0  0  0  0  0  0  0  0  0  0  0
   -3.3637    4.4249    1.9824 C   0  0  2  0  0  0  0  0  0  0  0  0
   -4.4525    4.5471    0.9955 N   0  0  0  0  0  0  0  0  0  0  0  0
   -3.5714    5.3927    3.1545 C   0  0  1  0  0  0  0  0  0  0  0  0
   -4.7692    5.0613    3.8306 O   0  0  0  0  0  0  0  0  0  0  0  0
   -2.3920    5.3025    4.1345 C   0  0  2  0  0  0  0  0  0  0  0  0
   -2.5232    6.3095    5.1195 O   0  0  0  0  0  0  0  0  0  0  0  0
   -1.0402    5.4555    3.4082 C   0  0  2  0  0  0  0  0  0  0  0  0
   -0.9515    4.5714    2.2914 O   0  0  0  0  0  0  0  0  0  0  0  0
    0.0825    5.1376    4.4140 C   0  0  0  0  0  0  0  0  0  0  0  0
   -0.0436    3.8021    4.9717 O   0  0  0  0  0  0  0  0  0  0  0  0
    1.1789    7.8648   -1.5630 C   0  0  2  0  0  0  0  0  0  0  0  0
    2.5992    8.1198   -1.8761 N   0  0  0  0  0  0  0  0  0  0  0  0
    0.8841    8.2188   -0.1032 C   0  0  0  0  0  0  0  0  0  0  0  0
   -0.5415    7.8270    0.2669 C   0  0  2  0  0  0  0  0  0  0  0  0
   -0.8465    8.2590    1.6367 N   0  0  0  0  0  0  0  0  0  0  0  0
   -0.6883    6.2972    0.0952 C   0  0  2  0  0  0  0  0  0  0  0  0
   -0.5594    5.9694   -1.3579 C   0  0  2  0  0  0  0  0  0  0  0  0
   -0.7382    4.5719   -1.4975 O   0  0  0  0  0  0  0  0  0  0  0  0
    0.8063    6.3998   -1.8588 C   0  0  1  0  0  0  0  0  0  0  0  0
    0.9525    6.1894   -3.2507 O   0  0  0  0  0  0  0  0  0  0  0  0
    0.4274    3.7562   -1.5503 C   0  0  1  0  0  0  0  0  0  0  0  0
    0.9447    3.5869   -0.1203 C   0  0  2  0  0  0  0  0  0  0  0  0
    2.3596    3.5575   -0.1347 O   0  0  0  0  0  0  0  0  0  0  0  0
    0.3244    2.2474    0.2993 C   0  0  2  0  0  0  0  0  0  0  0  0
    1.0182    1.6322    1.3851 O   0  0  0  0  0  0  0  0  0  0  0  0
    0.4067    1.4882   -1.0307 C   0  0  2  0  0  0  0  0  0  0  0  0
    0.0820    2.4581   -2.0168 O   0  0  0  0  0  0  0  0  0  0  0  0
   -0.5690    0.3116   -1.1494 C   0  0  0  0  0  0  0  0  0  0  0  0
   -0.3584   -0.4208   -2.3378 O   0  0  0  0  0  0  0  0  0  0  0  0
    0.7609    0.2381    1.5412 C   0  0  2  0  0  0  0  0  0  0  0  0
    1.5081   -0.3483    2.7487 C   0  0  2  0  0  0  0  0  0  0  0  0
    1.1874    0.3959    3.9781 N   0  0  0  0  0  0  0  0  0  0  0  0
    3.0227   -0.3909    2.4961 C   0  0  1  0  0  0  0  0  0  0  0  0
    3.6472   -1.0166    3.6004 O   0  0  0  0  0  0  0  0  0  0  0  0
    3.2792   -1.1998    1.2132 C   0  0  2  0  0  0  0  0  0  0  0  0
    4.6617   -1.2337    0.9100 O   0  0  0  0  0  0  0  0  0  0  0  0
    2.4812   -0.6215    0.0264 C   0  0  1  0  0  0  0  0  0  0  0  0
    1.0972   -0.4705    0.3505 O   0  0  0  0  0  0  0  0  0  0  0  0
    3.0829    0.6738   -0.5383 C   0  0  0  0  0  0  0  0  0  0  0  0
    4.4511    0.4571   -1.0357 N   0  0  0  0  0  0  0  0  0  0  0  0
  1  3  1  0  0  0  0
  1  2  1  1  0  0  0
  3  4  1  6  0  0  0
  5  6  1  1  0  0  0
  5  3  1  0  0  0  0
  7  9  1  0  0  0  0
  7  5  1  0  0  0  0
  7  8  1  1  0  0  0
  9 10  1  0  0  0  0
  9 11  1  1  0  0  0
 10  1  1  0  0  0  0
 11 12  1  0  0  0  0
 13 14  1  1  0  0  0
 13 21  1  0  0  0  0
 15 13  1  0  0  0  0
 16 15  1  0  0  0  0
 16 18  1  0  0  0  0
 16 17  1  1  0  0  0
 18  2  1  6  0  0  0
 18 19  1  0  0  0  0
 19 21  1  0  0  0  0
 19 20  1  1  0  0  0
 21 22  1  6  0  0  0
 23 20  1  1  0  0  0
 23 29  1  0  0  0  0
 23 24  1  0  0  0  0
 24 26  1  0  0  0  0
 24 25  1  6  0  0  0
 26 27  1  1  0  0  0
 28 26  1  0  0  0  0
 28 30  1  1  0  0  0
 29 28  1  0  0  0  0
 30 31  1  0  0  0  0
 32 27  1  6  0  0  0
 32 40  1  0  0  0  0
 32 33  1  0  0  0  0
 33 35  1  0  0  0  0
 33 34  1  1  0  0  0
 35 37  1  0  0  0  0
 35 36  1  1  0  0  0
 37 38  1  6  0  0  0
 39 37  1  0  0  0  0
 39 41  1  1  0  0  0
 40 39  1  0  0  0  0
 42 41  1  0  0  0  0
M  END
>  <CHROM.1>
-142.52763197,173.34040618,-55.50380363,-47.93171215,71.90314750,66.20419743
58.08634436,-50.42343866,-156.45570649,-96.25575398,78.50346669,55.01911698
-37.87170180,-161.46476875,-178.42823309,-174.43480256,70.22892968,161.27613099
-61.32756533,-16.89176400,60.54452434,-175.15174755,0.25307840,3.44615105
0.85791526,2.52526025,0.87613954,-0.72893722

>  <Name>
lig.pdb

>  <RI>
3.17932e+07

>  <Rbt.Current_Directory>
/home/itssahil/PROJECTS/Mol_Feturizer/New_Systems/rnas/2mxs

>  <Rbt.Executable>
rbdock ($Id: //depot/dev/client3/rdock/2013.1/src/exe/rbdock.cxx#4 $)

>  <Rbt.Library>
libRbt.so (2013.1, Build901 2013/11/27)

>  <Rbt.Parameter_File>
/export/apps/rDock/src/rDock_2013.1_src/data/scripts/dock_solv.prm

>  <Rbt.Receptor>
prm/blind_docking_100.prm

>  <SCORE>
68.8475

>  <SCORE.INTER>
27.9404

>  <SCORE.INTER.CONST>
1

>  <SCORE.INTER.POLAR>
-3.36388

>  <SCORE.INTER.ROT>
9

>  <SCORE.INTER.SOLV>
34.5672

>  <SCORE.INTER.VDW>
8.71743

>  <SCORE.INTER.norm>
0.665247

>  <SCORE.INTRA>
17.639

>  <SCORE.INTRA.DIHEDRAL>
-3.74794

>  <SCORE.INTRA.DIHEDRAL.0>
30.1357

>  <SCORE.INTRA.POLAR>
0.278187

>  <SCORE.INTRA.POLAR.0>
-0.631696

>  <SCORE.INTRA.REPUL>
0

>  <SCORE.INTRA.REPUL.0>
0

>  <SCORE.INTRA.SOLV>
1.61814

>  <SCORE.INTRA.SOLV.lig_0>
-55.904

>  <SCORE.INTRA.VDW>
17.7581

>  <SCORE.INTRA.VDW.0>
-8.21197

>  <SCORE.INTRA.norm>
0.419977

>  <SCORE.RESTR>
23.2681

>  <SCORE.RESTR.CAVITY>
23.2681

>  <SCORE.RESTR.norm>
0.554002

>  <SCORE.SYSTEM>
0

>  <SCORE.SYSTEM.CONST>
0

>  <SCORE.SYSTEM.DIHEDRAL>
0

>  <SCORE.SYSTEM.SOLV>
0

>  <SCORE.SYSTEM.norm>
0

>  <SCORE.heavy>
42

>  <SCORE.norm>
1.63923

>  <RMSD>
7.322

$$$$
lig.pdb
 OpenBabel11021811453D
libRbt.so/2013.1/901 2013/11/27
 42 45  0  0  0  0  0  0  0  0999 V2000
   -0.1623    3.2137    0.1573 C   0  0  2  0  0  0  0  0  0  0  0  0
   -0.1891    2.9746    1.5657 O   0  0  0  0  0  0  0  0  0  0  0  0
   -0.9743    2.1481   -0.5942 C   0  0  2  0  0  0  0  0  0  0  0  0
   -2.3509    2.0661   -0.0719 N   0  0  0  0  0  0  0  0  0  0  0  0
   -0.2793    0.7819   -0.5320 C   0  0  1  0  0  0  0  0  0  0  0  0
   -0.9711   -0.1350   -1.3579 O   0  0  0  0  0  0  0  0  0  0  0  0
    1.1749    0.9024   -1.0122 C   0  0  2  0  0  0  0  0  0  0  0  0
    1.8420   -0.3268   -0.7988 O   0  0  0  0  0  0  0  0  0  0  0  0
    1.9207    2.0354   -0.2784 C   0  0  2  0  0  0  0  0  0  0  0  0
    1.1794    3.2542   -0.3223 O   0  0  0  0  0  0  0  0  0  0  0  0
    3.2864    2.2320   -0.9636 C   0  0  0  0  0  0  0  0  0  0  0  0
    4.1878    1.1196   -0.7180 O   0  0  0  0  0  0  0  0  0  0  0  0
   -0.8023    5.9938    4.5722 C   0  0  2  0  0  0  0  0  0  0  0  0
   -1.5653    7.1017    5.1810 N   0  0  0  0  0  0  0  0  0  0  0  0
   -0.3760    6.3607    3.1485 C   0  0  0  0  0  0  0  0  0  0  0  0
    0.2884    5.1722    2.4639 C   0  0  2  0  0  0  0  0  0  0  0  0
    0.7812    5.5620    1.1369 N   0  0  0  0  0  0  0  0  0  0  0  0
   -0.7370    4.0173    2.3853 C   0  0  2  0  0  0  0  0  0  0  0  0
   -1.0323    3.5509    3.7748 C   0  0  2  0  0  0  0  0  0  0  0  0
   -1.9393    2.4681    3.6778 O   0  0  0  0  0  0  0  0  0  0  0  0
   -1.6248    4.6915    4.5807 C   0  0  1  0  0  0  0  0  0  0  0  0
   -1.8464    4.3293    5.9308 O   0  0  0  0  0  0  0  0  0  0  0  0
   -3.3018    2.7679    3.3944 C   0  0  1  0  0  0  0  0  0  0  0  0
   -3.8960    1.5755    2.6417 C   0  0  2  0  0  0  0  0  0  0  0  0
   -4.8211    2.0438    1.6785 O   0  0  0  0  0  0  0  0  0  0  0  0
   -4.5617    0.7724    3.7673 C   0  0  2  0  0  0  0  0  0  0  0  0
   -5.5767   -0.1116    3.2907 O   0  0  0  0  0  0  0  0  0  0  0  0
   -5.0690    1.9204    4.6487 C   0  0  2  0  0  0  0  0  0  0  0  0
   -4.0284    2.8869    4.6110 O   0  0  0  0  0  0  0  0  0  0  0  0
   -5.3327    1.5294    6.1075 C   0  0  0  0  0  0  0  0  0  0  0  0
   -5.6716    2.6520    6.8936 O   0  0  0  0  0  0  0  0  0  0  0  0
   -5.1536   -1.0019    2.2600 C   0  0  2  0  0  0  0  0  0  0  0  0
   -6.1957   -1.1105    1.1364 C   0  0  2  0  0  0  0  0  0  0  0  0
   -6.5250    0.2182    0.5939 N   0  0  0  0  0  0  0  0  0  0  0  0
   -7.4538   -1.8494    1.6167 C   0  0  1  0  0  0  0  0  0  0  0  0
   -8.3375   -1.9949    0.5219 O   0  0  0  0  0  0  0  0  0  0  0  0
   -7.0338   -3.2309    2.1467 C   0  0  2  0  0  0  0  0  0  0  0  0
   -8.1545   -3.9393    2.6433 O   0  0  0  0  0  0  0  0  0  0  0  0
   -5.9525   -3.0986    3.2389 C   0  0  1  0  0  0  0  0  0  0  0  0
   -4.8599   -2.2891    2.7982 O   0  0  0  0  0  0  0  0  0  0  0  0
   -6.5075   -2.6264    4.5909 C   0  0  0  0  0  0  0  0  0  0  0  0
   -5.5384   -2.8499    5.6759 N   0  0  0  0  0  0  0  0  0  0  0  0
  1  3  1  0  0  0  0
  1  2  1  1  0  0  0
  3  4  1  1  0  0  0
  5  6  1  6  0  0  0
  5  3  1  0  0  0  0
  7  9  1  0  0  0  0
  7  5  1  0  0  0  0
  7  8  1  1  0  0  0
  9 10  1  0  0  0  0
  9 11  1  6  0  0  0
 10  1  1  0  0  0  0
 11 12  1  0  0  0  0
 13 14  1  6  0  0  0
 13 21  1  0  0  0  0
 15 13  1  0  0  0  0
 16 15  1  0  0  0  0
 16 18  1  0  0  0  0
 16 17  1  6  0  0  0
 18  2  1  6  0  0  0
 18 19  1  0  0  0  0
 19 21  1  0  0  0  0
 19 20  1  6  0  0  0
 21 22  1  1  0  0  0
 23 20  1  1  0  0  0
 23 29  1  0  0  0  0
 23 24  1  0  0  0  0
 24 26  1  0  0  0  0
 24 25  1  6  0  0  0
 26 27  1  6  0  0  0
 28 26  1  0  0  0  0
 28 30  1  1  0  0  0
 29 28  1  0  0  0  0
 30 31  1  0  0  0  0
 32 27  1  1  0  0  0
 32 40  1  0  0  0  0
 32 33  1  0  0  0  0
 33 35  1  0  0  0  0
 33 34  1  1  0  0  0
 35 37  1  0  0  0  0
 35 36  1  6  0  0  0
 37 38  1  1  0  0  0
 39 37  1  0  0  0  0
 39 41  1  1  0  0  0
 40 39  1  0  0  0  0
 42 41  1  0  0  0  0
M  END
>  <CHROM.1>
-74.23651631,-120.33991290,-165.25211872,-64.86688307,59.97116777,-176.71579347
-70.12277674,66.71714581,170.76178418,-76.14508467,150.88675291,-58.63904662
57.36486626,53.90771578,-136.80173069,174.29198219,-61.68977912,-86.66408270
53.47682189,-56.82811082,165.04650239,-148.72863476,-2.73243851,1.45786166
2.28861712,-0.27420982,-0.58147775,-2.41262740

>  <Name>
lig.pdb

>  <RI>
4.11275e+07

>  <Rbt.Current_Directory>
/home/itssahil/PROJECTS/Mol_Feturizer/New_Systems/rnas/2mxs

>  <Rbt.Executable>
rbdock ($Id: //depot/dev/client3/rdock/2013.1/src/exe/rbdock.cxx#4 $)

>  <Rbt.Library>
libRbt.so (2013.1, Build901 2013/11/27)

>  <Rbt.Parameter_File>
/export/apps/rDock/src/rDock_2013.1_src/data/scripts/dock_solv.prm

>  <Rbt.Receptor>
prm/pocket_docking_8.prm

>  <SCORE>
-32.1428

>  <SCORE.INTER>
-32.8973

>  <SCORE.INTER.CONST>
1

>  <SCORE.INTER.POLAR>
-5.42646

>  <SCORE.INTER.ROT>
9

>  <SCORE.INTER.SOLV>
17.9766

>  <SCORE.INTER.VDW>
-19.4355

>  <SCORE.INTER.norm>
-0.783269

>  <SCORE.INTRA>
0.754503

>  <SCORE.INTRA.DIHEDRAL>
-4.64411

>  <SCORE.INTRA.DIHEDRAL.0>
30.1357

>  <SCORE.INTRA.POLAR>
-1.03766

>  <SCORE.INTRA.POLAR.0>
-0.631696

>  <SCORE.INTRA.REPUL>
0

>  <SCORE.INTRA.REPUL.0>
0

>  <SCORE.INTRA.SOLV>
0.723573

>  <SCORE.INTRA.SOLV.lig_0>
-55.904

>  <SCORE.INTRA.VDW>
6.24282

>  <SCORE.INTRA.VDW.0>
-8.21197

>  <SCORE.INTRA.norm>
0.0179644

>  <SCORE.RESTR>
0

>  <SCORE.RESTR.CAVITY>
0

>  <SCORE.RESTR.norm>
0

>  <SCORE.SYSTEM>
0

>  <SCORE.SYSTEM.CONST>
0

>  <SCORE.SYSTEM.DIHEDRAL>
0

>  <SCORE.SYSTEM.SOLV>
0

>  <SCORE.SYSTEM.norm>
0

>  <SCORE.heavy>
42

>  <SCORE.norm>
-0.765305

>  <RMSD>
7.325

$$$$
lig.pdb
 OpenBabel11021811453D
libRbt.so/2013.1/901 2013/11/27
 42 45  0  0  0  0  0  0  0  0999 V2000
   -1.2736    4.7583    1.6705 C   0  0  2  0  0  0  0  0  0  0  0  0
   -1.4822    5.7075    0.6232 O   0  0  0  0  0  0  0  0  0  0  0  0
   -2.4530    3.7784    1.7637 C   0  0  2  0  0  0  0  0  0  0  0  0
   -2.7022    3.1254    0.4653 N   0  0  0  0  0  0  0  0  0  0  0  0
   -3.7149    4.4840    2.2767 C   0  0  1  0  0  0  0  0  0  0  0  0
   -4.7329    3.5260    2.4947 O   0  0  0  0  0  0  0  0  0  0  0  0
   -3.4165    5.2179    3.5928 C   0  0  2  0  0  0  0  0  0  0  0  0
   -4.5428    5.9887    3.9652 O   0  0  0  0  0  0  0  0  0  0  0  0
   -2.1794    6.1297    3.4639 C   0  0  2  0  0  0  0  0  0  0  0  0
   -1.0692    5.4188    2.9170 O   0  0  0  0  0  0  0  0  0  0  0  0
   -1.8216    6.6528    4.8680 C   0  0  0  0  0  0  0  0  0  0  0  0
   -0.9162    7.7876    4.8156 O   0  0  0  0  0  0  0  0  0  0  0  0
    1.2523    7.9425   -1.8382 C   0  0  2  0  0  0  0  0  0  0  0  0
    2.6098    8.3282   -2.2726 N   0  0  0  0  0  0  0  0  0  0  0  0
    1.0506    8.2817   -0.3592 C   0  0  0  0  0  0  0  0  0  0  0  0
   -0.2942    7.7600    0.1328 C   0  0  2  0  0  0  0  0  0  0  0  0
   -0.5212    8.1748    1.5228 N   0  0  0  0  0  0  0  0  0  0  0  0
   -0.3084    6.2214   -0.0228 C   0  0  2  0  0  0  0  0  0  0  0  0
   -0.2731    5.8927   -1.4810 C   0  0  2  0  0  0  0  0  0  0  0  0
   -0.3289    4.4832   -1.6021 O   0  0  0  0  0  0  0  0  0  0  0  0
    0.9975    6.4459   -2.0981 C   0  0  1  0  0  0  0  0  0  0  0  0
    1.0439    6.2363   -3.4970 O   0  0  0  0  0  0  0  0  0  0  0  0
    0.8820    3.7545   -1.4301 C   0  0  1  0  0  0  0  0  0  0  0  0
    1.1772    3.6856    0.0697 C   0  0  2  0  0  0  0  0  0  0  0  0
    2.5754    3.7603    0.2755 O   0  0  0  0  0  0  0  0  0  0  0  0
    0.5886    2.3232    0.4603 C   0  0  2  0  0  0  0  0  0  0  0  0
    1.1416    1.8083    1.6718 O   0  0  0  0  0  0  0  0  0  0  0  0
    0.9300    1.5156   -0.7980 C   0  0  2  0  0  0  0  0  0  0  0  0
    0.7014    2.4155   -1.8734 O   0  0  0  0  0  0  0  0  0  0  0  0
    0.0655    0.2660   -1.0021 C   0  0  0  0  0  0  0  0  0  0  0  0
   -1.2897    0.6001   -1.2141 O   0  0  0  0  0  0  0  0  0  0  0  0
    0.7637    0.4669    1.9748 C   0  0  2  0  0  0  0  0  0  0  0  0
    1.5897   -0.1108    3.1341 C   0  0  2  0  0  0  0  0  0  0  0  0
    1.5012    0.7517    4.3242 N   0  0  0  0  0  0  0  0  0  0  0  0
    3.0492   -0.3412    2.7140 C   0  0  1  0  0  0  0  0  0  0  0  0
    3.7374   -0.9515    3.7886 O   0  0  0  0  0  0  0  0  0  0  0  0
    3.0611   -1.2645    1.4838 C   0  0  2  0  0  0  0  0  0  0  0  0
    4.3848   -1.4753    1.0281 O   0  0  0  0  0  0  0  0  0  0  0  0
    2.1866   -0.6878    0.3515 C   0  0  1  0  0  0  0  0  0  0  0  0
    0.8760   -0.3593    0.8181 O   0  0  0  0  0  0  0  0  0  0  0  0
    2.8440    0.4875   -0.3870 C   0  0  0  0  0  0  0  0  0  0  0  0
    4.2452    0.1912   -0.7263 N   0  0  0  0  0  0  0  0  0  0  0  0
  1  3  1  0  0  0  0
  1  2  1  6  0  0  0
  3  4  1  6  0  0  0
  5  6  1  1  0  0  0
  5  3  1  0  0  0  0
  7  9  1  0  0  0  0
  7  5  1  0  0  0  0
  7  8  1  6  0  0  0
  9 10  1  0  0  0  0
  9 11  1  1  0  0  0
 10  1  1  0  0  0  0
 11 12  1  0  0  0  0
 13 14  1  1  0  0  0
 13 21  1  0  0  0  0
 15 13  1  0  0  0  0
 16 15  1  0  0  0  0
 16 18  1  0  0  0  0
 16 17  1  1  0  0  0
 18  2  1  6  0  0  0
 18 19  1  0  0  0  0
 19 21  1  0  0  0  0
 19 20  1  1  0  0  0
 21 22  1  6  0  0  0
 23 20  1  1  0  0  0
 23 29  1  0  0  0  0
 23 24  1  0  0  0  0
 24 26  1  0  0  0  0
 24 25  1  6  0  0  0
 26 27  1  1  0  0  0
 28 26  1  0  0  0  0
 28 30  1  6  0  0  0
 29 28  1  0  0  0  0
 30 31  1  0  0  0  0
 32 27  1  6  0  0  0
 32 40  1  0  0  0  0
 32 33  1  0  0  0  0
 33 35  1  0  0  0  0
 33 34  1  1  0  0  0
 35 37  1  0  0  0  0
 35 36  1  1  0  0  0
 37 38  1  6  0  0  0
 39 37  1  0  0  0  0
 39 41  1  1  0  0  0
 40 39  1  0  0  0  0
 42 41  1  0  0  0  0
M  END
>  <CHROM.1>
-121.53016182,-150.10052399,-49.37699030,-171.87813790,-54.21515282,-55.83513778
-164.33391764,68.15062992,60.45083555,-81.44225958,77.04497041,72.95171247
-53.19044091,-171.68877233,169.31955793,64.30210232,-76.53192052,121.64379957
-61.98317270,-179.87806674,46.35567942,-44.07240941,0.24953398,3.54648682
0.86905765,2.35488053,0.80448161,-0.57954485

>  <Name>
lig.pdb

>  <RI>
0

>  <Rbt.Current_Directory>
/home/itssahil/PROJECTS/Mol_Feturizer/New_Systems/rnas/2mxs

>  <Rbt.Executable>
rbdock ($Id: //depot/dev/client3/rdock/2013.1/src/exe/rbdock.cxx#4 $)

>  <Rbt.Library>
libRbt.so (2013.1, Build901 2013/11/27)

>  <Rbt.Parameter_File>
/export/apps/rDock/src/rDock_2013.1_src/data/scripts/dock_solv.prm

>  <Rbt.Receptor>
prm/blind_docking_60.prm

>  <SCORE>
55.1586

>  <SCORE.INTER>
-6.33816

>  <SCORE.INTER.CONST>
1

>  <SCORE.INTER.POLAR>
-4.33163

>  <SCORE.INTER.ROT>
9

>  <SCORE.INTER.SOLV>
33.4573

>  <SCORE.INTER.VDW>
-10.5391

>  <SCORE.INTER.norm>
-0.150909

>  <SCORE.INTRA>
43.9927

>  <SCORE.INTRA.DIHEDRAL>
-5.35955

>  <SCORE.INTRA.DIHEDRAL.0>
30.1357

>  <SCORE.INTRA.POLAR>
0.239102

>  <SCORE.INTRA.POLAR.0>
-0.631696

>  <SCORE.INTRA.REPUL>
0.160378

>  <SCORE.INTRA.REPUL.0>
0

>  <SCORE.INTRA.SOLV>
2.891

>  <SCORE.INTRA.SOLV.lig_0>
-55.904

>  <SCORE.INTRA.VDW>
43.6122

>  <SCORE.INTRA.VDW.0>
-8.21197

>  <SCORE.INTRA.norm>
1.04745

>  <SCORE.RESTR>
17.504

>  <SCORE.RESTR.CAVITY>
17.504

>  <SCORE.RESTR.norm>
0.416763

>  <SCORE.SYSTEM>
0

>  <SCORE.SYSTEM.CONST>
0

>  <SCORE.SYSTEM.DIHEDRAL>
0

>  <SCORE.SYSTEM.SOLV>
0

>  <SCORE.SYSTEM.norm>
0

>  <SCORE.heavy>
42

>  <SCORE.norm>
1.3133

>  <RMSD>
7.335

$$$$
lig.pdb
 OpenBabel11021811453D
libRbt.so/2013.1/901 2013/11/27
 42 45  0  0  0  0  0  0  0  0999 V2000
   -1.0679    4.6498    1.7828 C   0  0  2  0  0  0  0  0  0  0  0  0
   -1.1883    5.6924    0.8132 O   0  0  0  0  0  0  0  0  0  0  0  0
   -2.4281    4.3416    2.4266 C   0  0  2  0  0  0  0  0  0  0  0  0
   -3.4406    4.0304    1.4007 N   0  0  0  0  0  0  0  0  0  0  0  0
   -2.8882    5.4999    3.3211 C   0  0  1  0  0  0  0  0  0  0  0  0
   -4.0622    5.1208    4.0136 O   0  0  0  0  0  0  0  0  0  0  0  0
   -1.7915    5.8567    4.3358 C   0  0  2  0  0  0  0  0  0  0  0  0
   -2.1683    7.0231    5.0422 O   0  0  0  0  0  0  0  0  0  0  0  0
   -0.4320    6.0819    3.6434 C   0  0  2  0  0  0  0  0  0  0  0  0
   -0.1073    4.9945    2.7779 O   0  0  0  0  0  0  0  0  0  0  0  0
    0.6455    6.2167    4.7362 C   0  0  0  0  0  0  0  0  0  0  0  0
    0.5639    7.4894    5.4318 O   0  0  0  0  0  0  0  0  0  0  0  0
    1.7937    7.5936   -1.6412 C   0  0  2  0  0  0  0  0  0  0  0  0
    3.1469    8.1354   -1.8766 N   0  0  0  0  0  0  0  0  0  0  0  0
    1.1152    8.3389   -0.4891 C   0  0  0  0  0  0  0  0  0  0  0  0
   -0.2231    7.6949   -0.1473 C   0  0  2  0  0  0  0  0  0  0  0  0
   -0.9102    8.4739    0.8904 N   0  0  0  0  0  0  0  0  0  0  0  0
    0.0355    6.2368    0.2982 C   0  0  2  0  0  0  0  0  0  0  0  0
    0.5493    5.4670   -0.8761 C   0  0  2  0  0  0  0  0  0  0  0  0
    0.7394    4.1277   -0.4583 O   0  0  0  0  0  0  0  0  0  0  0  0
    1.8501    6.0805   -1.3588 C   0  0  1  0  0  0  0  0  0  0  0  0
    2.3392    5.4415   -2.5231 O   0  0  0  0  0  0  0  0  0  0  0  0
    1.4291    3.2493   -1.3412 C   0  0  1  0  0  0  0  0  0  0  0  0
    1.7014    1.9465   -0.5862 C   0  0  2  0  0  0  0  0  0  0  0  0
    2.9559    1.4274   -0.9858 O   0  0  0  0  0  0  0  0  0  0  0  0
    0.5244    1.0616   -1.0185 C   0  0  2  0  0  0  0  0  0  0  0  0
    0.7871   -0.3313   -0.8467 O   0  0  0  0  0  0  0  0  0  0  0  0
    0.3732    1.5139   -2.4761 C   0  0  2  0  0  0  0  0  0  0  0  0
    0.5884    2.9177   -2.4391 O   0  0  0  0  0  0  0  0  0  0  0  0
   -1.0065    1.2374   -3.0847 C   0  0  0  0  0  0  0  0  0  0  0  0
   -2.0464    1.5921   -2.1983 O   0  0  0  0  0  0  0  0  0  0  0  0
    0.1362   -0.9251    0.2748 C   0  0  2  0  0  0  0  0  0  0  0  0
   -0.1119    0.0949    1.3965 C   0  0  2  0  0  0  0  0  0  0  0  0
   -0.8645    1.2566    0.8945 N   0  0  0  0  0  0  0  0  0  0  0  0
    1.2066    0.5225    2.0586 C   0  0  1  0  0  0  0  0  0  0  0  0
    0.9105    1.3912    3.1349 O   0  0  0  0  0  0  0  0  0  0  0  0
    1.9223   -0.7373    2.5751 C   0  0  2  0  0  0  0  0  0  0  0  0
    3.1681   -0.4024    3.1584 O   0  0  0  0  0  0  0  0  0  0  0  0
    2.1168   -1.7661    1.4423 C   0  0  1  0  0  0  0  0  0  0  0  0
    0.8884   -2.0340    0.7622 O   0  0  0  0  0  0  0  0  0  0  0  0
    3.2428   -1.3922    0.4670 C   0  0  0  0  0  0  0  0  0  0  0  0
    3.7899   -0.0588    0.7655 N   0  0  0  0  0  0  0  0  0  0  0  0
  1  3  1  0  0  0  0
  1  2  1  6  0  0  0
  3  4  1  6  0  0  0
  5  6  1  1  0  0  0
  5  3  1  0  0  0  0
  7  9  1  0  0  0  0
  7  5  1  0  0  0  0
  7  8  1  6  0  0  0
  9 10  1  0  0  0  0
  9 11  1  1  0  0  0
 10  1  1  0  0  0  0
 11 12  1  0  0  0  0
 13 14  1  1  0  0  0
 13 21  1  0  0  0  0
 15 13  1  0  0  0  0
 16 15  1  0  0  0  0
 16 18  1  0  0  0  0
 16 17  1  1  0  0  0
 18  2  1  6  0  0  0
 18 19  1  0  0  0  0
 19 21  1  0  0  0  0
 19 20  1  1  0  0  0
 21 22  1  6  0  0  0
 23 20  1  1  0  0  0
 23 29  1  0  0  0  0
 23 24  1  0  0  0  0
 24 26  1  0  0  0  0
 24 25  1  6  0  0  0
 26 27  1  6  0  0  0
 28 26  1  0  0  0  0
 28 30  1  1  0  0  0
 29 28  1  0  0  0  0
 30 31  1  0  0  0  0
 32 27  1  6  0  0  0
 32 40  1  0  0  0  0
 32 33  1  0  0  0  0
 33 35  1  0  0  0  0
 33 34  1  6  0  0  0
 35 37  1  0  0  0  0
 35 36  1  1  0  0  0
 37 38  1  6  0  0  0
 39 37  1  0  0  0  0
 39 41  1  6  0  0  0
 40 39  1  0  0  0  0
 42 41  1  0  0  0  0
M  END
>  <CHROM.1>
-152.97791146,169.78621772,-62.80869343,76.81727790,-48.81234490,-61.28246502
-73.24476447,-49.68691437,111.33870879,-169.95615399,171.16698131,-49.96071520
-45.92939876,104.30864847,-28.11543908,44.67155870,-163.19863907,137.82696754
175.18977882,67.84598118,-5.76729495,46.70335785,0.32414309,3.47626242,0.81610441
2.26174044,1.10407344,-0.37049465

>  <Name>
lig.pdb

>  <RI>
0

>  <Rbt.Current_Directory>
/home/itssahil/PROJECTS/Mol_Feturizer/New_Systems/rnas/2mxs

>  <Rbt.Executable>
rbdock ($Id: //depot/dev/client3/rdock/2013.1/src/exe/rbdock.cxx#4 $)

>  <Rbt.Library>
libRbt.so (2013.1, Build901 2013/11/27)

>  <Rbt.Parameter_File>
/export/apps/rDock/src/rDock_2013.1_src/data/scripts/dock_solv.prm

>  <Rbt.Receptor>
prm/blind_docking_60.prm

>  <SCORE>
60.2871

>  <SCORE.INTER>
17.0362

>  <SCORE.INTER.CONST>
1

>  <SCORE.INTER.POLAR>
-1.70975

>  <SCORE.INTER.ROT>
9

>  <SCORE.INTER.SOLV>
28.1165

>  <SCORE.INTER.VDW>
-1.91549

>  <SCORE.INTER.norm>
0.405625

>  <SCORE.INTRA>
22.0333

>  <SCORE.INTRA.DIHEDRAL>
3.12614

>  <SCORE.INTRA.DIHEDRAL.0>
30.1357

>  <SCORE.INTRA.POLAR>
-1.0115

>  <SCORE.INTRA.POLAR.0>
-0.631696

>  <SCORE.INTRA.REPUL>
0.102627

>  <SCORE.INTRA.REPUL.0>
0

>  <SCORE.INTRA.SOLV>
4.52867

>  <SCORE.INTRA.SOLV.lig_0>
-55.904

>  <SCORE.INTRA.VDW>
21.1318

>  <SCORE.INTRA.VDW.0>
-8.21197

>  <SCORE.INTRA.norm>
0.524602

>  <SCORE.RESTR>
21.2176

>  <SCORE.RESTR.CAVITY>
21.2176

>  <SCORE.RESTR.norm>
0.505181

>  <SCORE.SYSTEM>
0

>  <SCORE.SYSTEM.CONST>
0

>  <SCORE.SYSTEM.DIHEDRAL>
0

>  <SCORE.SYSTEM.SOLV>
0

>  <SCORE.SYSTEM.norm>
0

>  <SCORE.heavy>
42

>  <SCORE.norm>
1.43541

>  <RMSD>
7.335

$$$$
lig.pdb
 OpenBabel11021811453D
libRbt.so/2013.1/901 2013/11/27
 42 45  0  0  0  0  0  0  0  0999 V2000
   -1.6724    0.2837    3.3276 C   0  0  2  0  0  0  0  0  0  0  0  0
   -1.4610   -0.9553    2.6480 O   0  0  0  0  0  0  0  0  0  0  0  0
   -0.3364    0.9023    3.7658 C   0  0  2  0  0  0  0  0  0  0  0  0
    0.5803    1.0479    2.6200 N   0  0  0  0  0  0  0  0  0  0  0  0
    0.3097    0.0782    4.8869 C   0  0  1  0  0  0  0  0  0  0  0  0
    1.4542    0.7563    5.3685 O   0  0  0  0  0  0  0  0  0  0  0  0
   -0.6850   -0.1236    6.0400 C   0  0  2  0  0  0  0  0  0  0  0  0
   -0.1288   -1.0141    6.9882 O   0  0  0  0  0  0  0  0  0  0  0  0
   -2.0333   -0.6752    5.5338 C   0  0  2  0  0  0  0  0  0  0  0  0
   -2.5347    0.1039    4.4482 O   0  0  0  0  0  0  0  0  0  0  0  0
   -3.0343   -0.6417    6.7044 C   0  0  0  0  0  0  0  0  0  0  0  0
   -3.3168    0.7135    7.1448 O   0  0  0  0  0  0  0  0  0  0  0  0
   -4.4162   -3.5613    0.9141 C   0  0  2  0  0  0  0  0  0  0  0  0
   -5.6414   -4.3826    0.9820 N   0  0  0  0  0  0  0  0  0  0  0  0
   -3.3683   -4.0869    1.8984 C   0  0  0  0  0  0  0  0  0  0  0  0
   -2.1567   -3.1630    1.9367 C   0  0  2  0  0  0  0  0  0  0  0  0
   -1.1174   -3.7259    2.8078 N   0  0  0  0  0  0  0  0  0  0  0  0
   -2.6208   -1.7676    2.4149 C   0  0  2  0  0  0  0  0  0  0  0  0
   -3.5214   -1.1854    1.3731 C   0  0  2  0  0  0  0  0  0  0  0  0
   -3.9007    0.1066    1.8105 O   0  0  0  0  0  0  0  0  0  0  0  0
   -4.7332   -2.0793    1.1889 C   0  0  1  0  0  0  0  0  0  0  0  0
   -5.5804   -1.6193    0.1526 O   0  0  0  0  0  0  0  0  0  0  0  0
   -4.1689    1.0907    0.8173 C   0  0  1  0  0  0  0  0  0  0  0  0
   -3.6969    2.4419    1.3585 C   0  0  2  0  0  0  0  0  0  0  0  0
   -4.5788    3.4569    0.9169 O   0  0  0  0  0  0  0  0  0  0  0  0
   -2.2920    2.5676    0.7540 C   0  0  2  0  0  0  0  0  0  0  0  0
   -1.8295    3.9176    0.7050 O   0  0  0  0  0  0  0  0  0  0  0  0
   -2.5325    1.9189   -0.6147 C   0  0  2  0  0  0  0  0  0  0  0  0
   -3.3936    0.8218   -0.3440 O   0  0  0  0  0  0  0  0  0  0  0  0
   -1.2637    1.3986   -1.3003 C   0  0  0  0  0  0  0  0  0  0  0  0
   -1.5569    0.7752   -2.5326 O   0  0  0  0  0  0  0  0  0  0  0  0
   -1.2299    4.3847    1.9118 C   0  0  2  0  0  0  0  0  0  0  0  0
   -2.0800    5.4710    2.5881 C   0  0  2  0  0  0  0  0  0  0  0  0
   -3.4533    4.9945    2.8226 N   0  0  0  0  0  0  0  0  0  0  0  0
   -2.0680    6.7724    1.7721 C   0  0  1  0  0  0  0  0  0  0  0  0
   -2.7921    7.7578    2.4831 O   0  0  0  0  0  0  0  0  0  0  0  0
   -0.6072    7.2174    1.5879 C   0  0  2  0  0  0  0  0  0  0  0  0
   -0.5366    8.3935    0.8030 O   0  0  0  0  0  0  0  0  0  0  0  0
    0.2369    6.0936    0.9521 C   0  0  1  0  0  0  0  0  0  0  0  0
    0.0904    4.8626    1.6637 O   0  0  0  0  0  0  0  0  0  0  0  0
   -0.0156    5.9198   -0.5529 C   0  0  0  0  0  0  0  0  0  0  0  0
    0.4037    4.5873   -1.0165 N   0  0  0  0  0  0  0  0  0  0  0  0
  1  3  1  0  0  0  0
  1  2  1  1  0  0  0
  3  4  1  6  0  0  0
  5  6  1  1  0  0  0
  5  3  1  0  0  0  0
  7  9  1  0  0  0  0
  7  5  1  0  0  0  0
  7  8  1  1  0  0  0
  9 10  1  0  0  0  0
  9 11  1  1  0  0  0
 10  1  1  0  0  0  0
 11 12  1  0  0  0  0
 13 14  1  1  0  0  0
 13 21  1  0  0  0  0
 15 13  1  0  0  0  0
 16 15  1  0  0  0  0
 16 18  1  0  0  0  0
 16 17  1  1  0  0  0
 18  2  1  6  0  0  0
 18 19  1  0  0  0  0
 19 21  1  0  0  0  0
 19 20  1  1  0  0  0
 21 22  1  6  0  0  0
 23 20  1  1  0  0  0
 23 29  1  0  0  0  0
 23 24  1  0  0  0  0
 24 26  1  0  0  0  0
 24 25  1  6  0  0  0
 26 27  1  6  0  0  0
 28 26  1  0  0  0  0
 28 30  1  1  0  0  0
 29 28  1  0  0  0  0
 30 31  1  0  0  0  0
 32 27  1  6  0  0  0
 32 40  1  0  0  0  0
 32 33  1  0  0  0  0
 33 35  1  0  0  0  0
 33 34  1  6  0  0  0
 35 37  1  0  0  0  0
 35 36  1  1  0  0  0
 37 38  1  6  0  0  0
 39 37  1  0  0  0  0
 39 41  1  6  0  0  0
 40 39  1  0  0  0  0
 42 41  1  0  0  0  0
M  END
>  <CHROM.1>
-168.80750238,168.18361882,71.42979139,177.50669479,-53.35664608,66.37847189
64.39449214,69.92680341,-71.32333738,149.68416945,-144.99417586,73.46355092
64.93359037,84.30904912,-112.23593313,178.05648425,-56.89418565,-62.78653005
-73.40279772,-46.71936467,-159.49630450,-62.86100888,-2.08115426,1.43500843
2.13446329,-2.03296676,-1.08055425,-0.62938670

>  <Name>
lig.pdb

>  <RI>
0

>  <Rbt.Current_Directory>
/home/itssahil/PROJECTS/Mol_Feturizer/New_Systems/rnas/2mxs

>  <Rbt.Executable>
rbdock ($Id: //depot/dev/client3/rdock/2013.1/src/exe/rbdock.cxx#4 $)

>  <Rbt.Library>
libRbt.so (2013.1, Build901 2013/11/27)

>  <Rbt.Parameter_File>
/export/apps/rDock/src/rDock_2013.1_src/data/scripts/dock_solv.prm

>  <Rbt.Receptor>
prm/pocket_docking_7.prm

>  <SCORE>
-38.7475

>  <SCORE.INTER>
-36.1211

>  <SCORE.INTER.CONST>
1

>  <SCORE.INTER.POLAR>
-5.14625

>  <SCORE.INTER.ROT>
9

>  <SCORE.INTER.SOLV>
22.4915

>  <SCORE.INTER.VDW>
-24.0237

>  <SCORE.INTER.norm>
-0.860025

>  <SCORE.INTRA>
-2.67707

>  <SCORE.INTRA.DIHEDRAL>
-5.22838

>  <SCORE.INTRA.DIHEDRAL.0>
30.1357

>  <SCORE.INTRA.POLAR>
-0.476936

>  <SCORE.INTRA.POLAR.0>
-0.631696

>  <SCORE.INTRA.REPUL>
0.0212506

>  <SCORE.INTRA.REPUL.0>
0

>  <SCORE.INTRA.SOLV>
0.240021

>  <SCORE.INTRA.SOLV.lig_0>
-55.904

>  <SCORE.INTRA.VDW>
1.33244

>  <SCORE.INTRA.VDW.0>
-8.21197

>  <SCORE.INTRA.norm>
-0.0637398

>  <SCORE.RESTR>
0.0506107

>  <SCORE.RESTR.CAVITY>
0.0506107

>  <SCORE.RESTR.norm>
0.00120502

>  <SCORE.SYSTEM>
0

>  <SCORE.SYSTEM.CONST>
0

>  <SCORE.SYSTEM.DIHEDRAL>
0

>  <SCORE.SYSTEM.SOLV>
0

>  <SCORE.SYSTEM.norm>
0

>  <SCORE.heavy>
42

>  <SCORE.norm>
-0.92256

>  <RMSD>
7.344

$$$$
lig.pdb
 OpenBabel11021811453D
libRbt.so/2013.1/901 2013/11/27
 42 45  0  0  0  0  0  0  0  0999 V2000
   -2.0250    4.4700    1.3231 C   0  0  2  0  0  0  0  0  0  0  0  0
   -1.9263    5.6402    0.5093 O   0  0  0  0  0  0  0  0  0  0  0  0
   -3.4005    4.3903    2.0023 C   0  0  2  0  0  0  0  0  0  0  0  0
   -4.4868    4.4673    1.0081 N   0  0  0  0  0  0  0  0  0  0  0  0
   -3.5513    5.4828    3.0687 C   0  0  1  0  0  0  0  0  0  0  0  0
   -4.7610    5.2855    3.7753 O   0  0  0  0  0  0  0  0  0  0  0  0
   -2.3729    5.4321    4.0528 C   0  0  2  0  0  0  0  0  0  0  0  0
   -2.4463    6.5403    4.9291 O   0  0  0  0  0  0  0  0  0  0  0  0
   -1.0189    5.4389    3.3146 C   0  0  2  0  0  0  0  0  0  0  0  0
   -0.9823    4.4414    2.2945 O   0  0  0  0  0  0  0  0  0  0  0  0
    0.0912    5.1677    4.3477 C   0  0  0  0  0  0  0  0  0  0  0  0
   -0.0786    3.8862    5.0105 O   0  0  0  0  0  0  0  0  0  0  0  0
    1.4034    7.4126   -1.5649 C   0  0  2  0  0  0  0  0  0  0  0  0
    2.8463    7.6603   -1.7578 N   0  0  0  0  0  0  0  0  0  0  0  0
    0.9547    7.9233   -0.1934 C   0  0  0  0  0  0  0  0  0  0  0  0
   -0.4981    7.5461    0.0709 C   0  0  2  0  0  0  0  0  0  0  0  0
   -0.9484    8.1237    1.3435 N   0  0  0  0  0  0  0  0  0  0  0  0
   -0.6123    6.0039    0.0616 C   0  0  2  0  0  0  0  0  0  0  0  0
   -0.3294    5.5166   -1.3233 C   0  0  2  0  0  0  0  0  0  0  0  0
   -0.4799    4.1088   -1.3194 O   0  0  0  0  0  0  0  0  0  0  0  0
    1.0772    5.9161   -1.7274 C   0  0  1  0  0  0  0  0  0  0  0  0
    1.3697    5.5527   -3.0636 O   0  0  0  0  0  0  0  0  0  0  0  0
    0.3283    3.3530   -2.2151 C   0  0  1  0  0  0  0  0  0  0  0  0
    1.5176    2.8056   -1.4232 C   0  0  2  0  0  0  0  0  0  0  0  0
    2.6667    2.7986   -2.2493 O   0  0  0  0  0  0  0  0  0  0  0  0
    1.0439    1.3949   -1.0480 C   0  0  2  0  0  0  0  0  0  0  0  0
    2.1228    0.5150   -0.7311 O   0  0  0  0  0  0  0  0  0  0  0  0
    0.2660    1.0292   -2.3182 C   0  0  2  0  0  0  0  0  0  0  0  0
   -0.4029    2.2276   -2.6853 O   0  0  0  0  0  0  0  0  0  0  0  0
   -0.7726   -0.0821   -2.1264 C   0  0  0  0  0  0  0  0  0  0  0  0
   -2.0308    0.4403   -1.7562 O   0  0  0  0  0  0  0  0  0  0  0  0
    1.7446   -0.6501   -0.0006 C   0  0  2  0  0  0  0  0  0  0  0  0
    1.1060   -0.2941    1.3505 C   0  0  2  0  0  0  0  0  0  0  0  0
   -0.0359    0.6176    1.1689 N   0  0  0  0  0  0  0  0  0  0  0  0
    2.1454    0.2923    2.3177 C   0  0  1  0  0  0  0  0  0  0  0  0
    1.5221    0.5192    3.5670 O   0  0  0  0  0  0  0  0  0  0  0  0
    3.2915   -0.7217    2.4730 C   0  0  2  0  0  0  0  0  0  0  0  0
    4.3011   -0.2106    3.3239 O   0  0  0  0  0  0  0  0  0  0  0  0
    3.8844   -1.1003    1.1002 C   0  0  1  0  0  0  0  0  0  0  0  0
    2.8657   -1.5113    0.1856 O   0  0  0  0  0  0  0  0  0  0  0  0
    4.7843   -0.0080    0.5036 C   0  0  0  0  0  0  0  0  0  0  0  0
    4.4183    0.2854   -0.8915 N   0  0  0  0  0  0  0  0  0  0  0  0
  1  3  1  0  0  0  0
  1  2  1  1  0  0  0
  3  4  1  6  0  0  0
  5  6  1  1  0  0  0
  5  3  1  0  0  0  0
  7  9  1  0  0  0  0
  7  5  1  0  0  0  0
  7  8  1  1  0  0  0
  9 10  1  0  0  0  0
  9 11  1  1  0  0  0
 10  1  1  0  0  0  0
 11 12  1  0  0  0  0
 13 14  1  1  0  0  0
 13 21  1  0  0  0  0
 15 13  1  0  0  0  0
 16 15  1  0  0  0  0
 16 18  1  0  0  0  0
 16 17  1  1  0  0  0
 18  2  1  6  0  0  0
 18 19  1  0  0  0  0
 19 21  1  0  0  0  0
 19 20  1  1  0  0  0
 21 22  1  6  0  0  0
 23 20  1  1  0  0  0
 23 29  1  0  0  0  0
 23 24  1  0  0  0  0
 24 26  1  0  0  0  0
 24 25  1  6  0  0  0
 26 27  1  6  0  0  0
 28 26  1  0  0  0  0
 28 30  1  1  0  0  0
 29 28  1  0  0  0  0
 30 31  1  0  0  0  0
 32 27  1  1  0  0  0
 32 40  1  0  0  0  0
 32 33  1  0  0  0  0
 33 35  1  0  0  0  0
 33 34  1  6  0  0  0
 35 37  1  0  0  0  0
 35 36  1  1  0  0  0
 37 38  1  1  0  0  0
 39 37  1  0  0  0  0
 39 41  1  6  0  0  0
 40 39  1  0  0  0  0
 42 41  1  0  0  0  0
M  END
>  <CHROM.1>
-142.88563491,166.25710813,64.23294417,-42.98957631,170.23696210,-175.47101645
59.84893730,-50.68303820,-149.63319943,-148.95168544,99.02671210,-66.96913968
58.96461892,161.88718999,-60.42579832,89.63464969,59.69282302,40.50646242
58.67327124,-39.24831939,-130.44983914,90.28260632,0.29069631,3.29287182
0.60393475,2.77582466,0.91032829,-0.84684387

>  <Name>
lig.pdb

>  <RI>
3.17932e+07

>  <Rbt.Current_Directory>
/home/itssahil/PROJECTS/Mol_Feturizer/New_Systems/rnas/2mxs

>  <Rbt.Executable>
rbdock ($Id: //depot/dev/client3/rdock/2013.1/src/exe/rbdock.cxx#4 $)

>  <Rbt.Library>
libRbt.so (2013.1, Build901 2013/11/27)

>  <Rbt.Parameter_File>
/export/apps/rDock/src/rDock_2013.1_src/data/scripts/dock_solv.prm

>  <Rbt.Receptor>
prm/blind_docking_100.prm

>  <SCORE>
93.8873

>  <SCORE.INTER>
58.5855

>  <SCORE.INTER.CONST>
1

>  <SCORE.INTER.POLAR>
-4.38459

>  <SCORE.INTER.ROT>
9

>  <SCORE.INTER.SOLV>
32.8832

>  <SCORE.INTER.VDW>
33.1113

>  <SCORE.INTER.norm>
1.39489

>  <SCORE.INTRA>
15.0751

>  <SCORE.INTRA.DIHEDRAL>
2.90871

>  <SCORE.INTRA.DIHEDRAL.0>
30.1357

>  <SCORE.INTRA.POLAR>
-0.0193154

>  <SCORE.INTRA.POLAR.0>
-0.631696

>  <SCORE.INTRA.REPUL>
0

>  <SCORE.INTRA.REPUL.0>
0

>  <SCORE.INTRA.SOLV>
1.86174

>  <SCORE.INTRA.SOLV.lig_0>
-55.904

>  <SCORE.INTRA.VDW>
12.7555

>  <SCORE.INTRA.VDW.0>
-8.21197

>  <SCORE.INTRA.norm>
0.358931

>  <SCORE.RESTR>
20.2266

>  <SCORE.RESTR.CAVITY>
20.2266

>  <SCORE.RESTR.norm>
0.481587

>  <SCORE.SYSTEM>
0

>  <SCORE.SYSTEM.CONST>
0

>  <SCORE.SYSTEM.DIHEDRAL>
0

>  <SCORE.SYSTEM.SOLV>
0

>  <SCORE.SYSTEM.norm>
0

>  <SCORE.heavy>
42

>  <SCORE.norm>
2.23541

>  <RMSD>
7.374

$$$$
lig.pdb
 OpenBabel11021811453D
libRbt.so/2013.1/901 2013/11/27
 42 45  0  0  0  0  0  0  0  0999 V2000
   -0.3988    4.3993    2.2003 C   0  0  2  0  0  0  0  0  0  0  0  0
   -0.1429    4.3193    0.7969 O   0  0  0  0  0  0  0  0  0  0  0  0
   -1.5749    3.4932    2.5945 C   0  0  2  0  0  0  0  0  0  0  0  0
   -1.3456    2.1057    2.1511 N   0  0  0  0  0  0  0  0  0  0  0  0
   -2.8979    4.0371    2.0402 C   0  0  1  0  0  0  0  0  0  0  0  0
   -3.9714    3.2677    2.5477 O   0  0  0  0  0  0  0  0  0  0  0  0
   -3.0843    5.5050    2.4527 C   0  0  2  0  0  0  0  0  0  0  0  0
   -4.2252    6.0328    1.8037 O   0  0  0  0  0  0  0  0  0  0  0  0
   -1.8449    6.3529    2.1014 C   0  0  2  0  0  0  0  0  0  0  0  0
   -0.6493    5.7469    2.5916 O   0  0  0  0  0  0  0  0  0  0  0  0
   -2.0211    7.7450    2.7371 C   0  0  0  0  0  0  0  0  0  0  0  0
   -0.9734    8.6674    2.3349 O   0  0  0  0  0  0  0  0  0  0  0  0
    3.5106    4.1496   -1.4735 C   0  0  2  0  0  0  0  0  0  0  0  0
    4.9755    4.2738   -1.6112 N   0  0  0  0  0  0  0  0  0  0  0  0
    2.9017    5.4856   -1.0407 C   0  0  0  0  0  0  0  0  0  0  0  0
    1.4117    5.3309   -0.7601 C   0  0  2  0  0  0  0  0  0  0  0  0
    0.8177    6.6353   -0.4416 N   0  0  0  0  0  0  0  0  0  0  0  0
    1.2341    4.3158    0.3929 C   0  0  2  0  0  0  0  0  0  0  0  0
    1.6817    2.9721   -0.0862 C   0  0  2  0  0  0  0  0  0  0  0  0
    1.4720    2.0514    0.9688 O   0  0  0  0  0  0  0  0  0  0  0  0
    3.1459    3.0318   -0.4785 C   0  0  1  0  0  0  0  0  0  0  0  0
    3.6016    1.8060   -1.0195 O   0  0  0  0  0  0  0  0  0  0  0  0
    1.7323    0.6758    0.7099 C   0  0  1  0  0  0  0  0  0  0  0  0
    0.7194   -0.1496    1.5062 C   0  0  2  0  0  0  0  0  0  0  0  0
    1.3400   -1.3356    1.9656 O   0  0  0  0  0  0  0  0  0  0  0  0
   -0.3797   -0.4147    0.4686 C   0  0  2  0  0  0  0  0  0  0  0  0
   -1.1921   -1.5416    0.7987 O   0  0  0  0  0  0  0  0  0  0  0  0
    0.4791   -0.5863   -0.7904 C   0  0  2  0  0  0  0  0  0  0  0  0
    1.4984    0.3953   -0.6644 O   0  0  0  0  0  0  0  0  0  0  0  0
   -0.2736   -0.3565   -2.1062 C   0  0  0  0  0  0  0  0  0  0  0  0
   -0.3643    1.0169   -2.4204 O   0  0  0  0  0  0  0  0  0  0  0  0
   -2.0623   -1.3417    1.9108 C   0  0  2  0  0  0  0  0  0  0  0  0
   -2.8482   -2.6156    2.2567 C   0  0  2  0  0  0  0  0  0  0  0  0
   -1.9376   -3.7494    2.4872 N   0  0  0  0  0  0  0  0  0  0  0  0
   -3.8854   -2.9391    1.1708 C   0  0  1  0  0  0  0  0  0  0  0  0
   -4.6338   -4.0665    1.5829 O   0  0  0  0  0  0  0  0  0  0  0  0
   -4.8098   -1.7212    1.0030 C   0  0  2  0  0  0  0  0  0  0  0  0
   -5.7612   -1.9512   -0.0200 O   0  0  0  0  0  0  0  0  0  0  0  0
   -3.9950   -0.4459    0.7043 C   0  0  1  0  0  0  0  0  0  0  0  0
   -2.9517   -0.2551    1.6627 O   0  0  0  0  0  0  0  0  0  0  0  0
   -3.4684   -0.3835   -0.7370 C   0  0  0  0  0  0  0  0  0  0  0  0
   -3.0588    0.9829   -1.0996 N   0  0  0  0  0  0  0  0  0  0  0  0
  1  3  1  0  0  0  0
  1  2  1  6  0  0  0
  3  4  1  6  0  0  0
  5  6  1  1  0  0  0
  5  3  1  0  0  0  0
  7  9  1  0  0  0  0
  7  5  1  0  0  0  0
  7  8  1  6  0  0  0
  9 10  1  0  0  0  0
  9 11  1  1  0  0  0
 10  1  1  0  0  0  0
 11 12  1  0  0  0  0
 13 14  1  1  0  0  0
 13 21  1  0  0  0  0
 15 13  1  0  0  0  0
 16 15  1  0  0  0  0
 16 18  1  0  0  0  0
 16 17  1  1  0  0  0
 18  2  1  6  0  0  0
 18 19  1  0  0  0  0
 19 21  1  0  0  0  0
 19 20  1  1  0  0  0
 21 22  1  6  0  0  0
 23 20  1  6  0  0  0
 23 29  1  0  0  0  0
 23 24  1  0  0  0  0
 24 26  1  0  0  0  0
 24 25  1  6  0  0  0
 26 27  1  1  0  0  0
 28 26  1  0  0  0  0
 28 30  1  6  0  0  0
 29 28  1  0  0  0  0
 30 31  1  0  0  0  0
 32 27  1  6  0  0  0
 32 40  1  0  0  0  0
 32 33  1  0  0  0  0
 33 35  1  0  0  0  0
 33 34  1  6  0  0  0
 35 37  1  0  0  0  0
 35 36  1  1  0  0  0
 37 38  1  6  0  0  0
 39 37  1  0  0  0  0
 39 41  1  6  0  0  0
 40 39  1  0  0  0  0
 42 41  1  0  0  0  0
M  END
>  <CHROM.1>
-132.59065381,-140.63825013,-25.11403265,-175.67268576,167.99593903,-176.47286592
-173.44831200,-65.98448591,-64.34035247,175.33010419,-145.48491673,159.83497744
-179.43421940,70.77954818,-176.88391893,82.25000592,159.67973053,69.45393611
70.42932366,59.61612952,163.03782036,94.96355334,-0.83382810,1.92326481,0.73727111
1.05417380,0.39177118,0.15290358

>  <Name>
lig.pdb

>  <RI>
0

>  <Rbt.Current_Directory>
/home/itssahil/PROJECTS/Mol_Feturizer/New_Systems/rnas/2mxs

>  <Rbt.Executable>
rbdock ($Id: //depot/dev/client3/rdock/2013.1/src/exe/rbdock.cxx#4 $)

>  <Rbt.Library>
libRbt.so (2013.1, Build901 2013/11/27)

>  <Rbt.Parameter_File>
/export/apps/rDock/src/rDock_2013.1_src/data/scripts/dock_solv.prm

>  <Rbt.Receptor>
prm/pocket_docking_6.prm

>  <SCORE>
-53.667

>  <SCORE.INTER>
-53.1075

>  <SCORE.INTER.CONST>
1

>  <SCORE.INTER.POLAR>
-6.2208

>  <SCORE.INTER.ROT>
9

>  <SCORE.INTER.SOLV>
24.46

>  <SCORE.INTER.VDW>
-32.4224

>  <SCORE.INTER.norm>
-1.26447

>  <SCORE.INTRA>
-0.641244

>  <SCORE.INTRA.DIHEDRAL>
-0.0239056

>  <SCORE.INTRA.DIHEDRAL.0>
30.1357

>  <SCORE.INTRA.POLAR>
-0.997959

>  <SCORE.INTRA.POLAR.0>
-0.631696

>  <SCORE.INTRA.REPUL>
0.00281889

>  <SCORE.INTRA.REPUL.0>
0

>  <SCORE.INTRA.SOLV>
2.00036

>  <SCORE.INTRA.SOLV.lig_0>
-55.904

>  <SCORE.INTRA.VDW>
1.74949

>  <SCORE.INTRA.VDW.0>
-8.21197

>  <SCORE.INTRA.norm>
-0.0152677

>  <SCORE.RESTR>
0.0817368

>  <SCORE.RESTR.CAVITY>
0.0817368

>  <SCORE.RESTR.norm>
0.00194611

>  <SCORE.SYSTEM>
0

>  <SCORE.SYSTEM.CONST>
0

>  <SCORE.SYSTEM.DIHEDRAL>
0

>  <SCORE.SYSTEM.SOLV>
0

>  <SCORE.SYSTEM.norm>
0

>  <SCORE.heavy>
42

>  <SCORE.norm>
-1.27779

>  <RMSD>
7.401

$$$$
lig.pdb
 OpenBabel11021811453D
libRbt.so/2013.1/901 2013/11/27
 42 45  0  0  0  0  0  0  0  0999 V2000
   -1.4890   -1.2888    2.4425 C   0  0  2  0  0  0  0  0  0  0  0  0
   -0.9068   -0.0588    2.8778 O   0  0  0  0  0  0  0  0  0  0  0  0
   -0.8422   -1.7675    1.1340 C   0  0  2  0  0  0  0  0  0  0  0  0
    0.6225   -1.8661    1.2731 N   0  0  0  0  0  0  0  0  0  0  0  0
   -1.2239   -0.8510   -0.0356 C   0  0  1  0  0  0  0  0  0  0  0  0
   -0.7395   -1.4050   -1.2439 O   0  0  0  0  0  0  0  0  0  0  0  0
   -2.7507   -0.7034   -0.1195 C   0  0  2  0  0  0  0  0  0  0  0  0
   -3.0746    0.2652   -1.0985 O   0  0  0  0  0  0  0  0  0  0  0  0
   -3.3549   -0.2947    1.2392 C   0  0  2  0  0  0  0  0  0  0  0  0
   -2.8991   -1.1519    2.2854 O   0  0  0  0  0  0  0  0  0  0  0  0
   -4.8889   -0.3812    1.1267 C   0  0  0  0  0  0  0  0  0  0  0  0
   -5.3897    0.2888   -0.0609 O   0  0  0  0  0  0  0  0  0  0  0  0
   -1.8544   -0.1382    7.0762 C   0  0  2  0  0  0  0  0  0  0  0  0
   -1.7994    0.4171    8.4433 N   0  0  0  0  0  0  0  0  0  0  0  0
   -0.4432   -0.4486    6.5710 C   0  0  0  0  0  0  0  0  0  0  0  0
   -0.4799   -0.8888    5.1123 C   0  0  2  0  0  0  0  0  0  0  0  0
    0.8638   -1.2781    4.6663 N   0  0  0  0  0  0  0  0  0  0  0  0
   -1.0587    0.2692    4.2666 C   0  0  2  0  0  0  0  0  0  0  0  0
   -2.4904    0.4658    4.6500 C   0  0  2  0  0  0  0  0  0  0  0  0
   -3.0119    1.5004    3.8362 O   0  0  0  0  0  0  0  0  0  0  0  0
   -2.5798    0.8276    6.1205 C   0  0  1  0  0  0  0  0  0  0  0  0
   -3.9205    0.9435    6.5589 O   0  0  0  0  0  0  0  0  0  0  0  0
   -2.4082    2.7863    3.9305 C   0  0  1  0  0  0  0  0  0  0  0  0
   -1.0252    2.7022    3.2812 C   0  0  2  0  0  0  0  0  0  0  0  0
   -0.1230    3.5282    3.9928 O   0  0  0  0  0  0  0  0  0  0  0  0
   -1.2976    3.2046    1.8569 C   0  0  2  0  0  0  0  0  0  0  0  0
   -0.1194    3.6741    1.2010 O   0  0  0  0  0  0  0  0  0  0  0  0
   -2.3448    4.2855    2.1521 C   0  0  2  0  0  0  0  0  0  0  0  0
   -3.1602    3.7245    3.1713 O   0  0  0  0  0  0  0  0  0  0  0  0
   -3.2281    4.6548    0.9546 C   0  0  0  0  0  0  0  0  0  0  0  0
   -4.4047    5.3203    1.3620 O   0  0  0  0  0  0  0  0  0  0  0  0
   -0.0794    3.4212   -0.2020 C   0  0  2  0  0  0  0  0  0  0  0  0
    1.3561    3.4595   -0.7481 C   0  0  2  0  0  0  0  0  0  0  0  0
    2.2245    2.5262   -0.0112 N   0  0  0  0  0  0  0  0  0  0  0  0
    1.9196    4.8884   -0.7261 C   0  0  1  0  0  0  0  0  0  0  0  0
    3.2046    4.8760   -1.3173 O   0  0  0  0  0  0  0  0  0  0  0  0
    0.9742    5.7964   -1.5307 C   0  0  2  0  0  0  0  0  0  0  0  0
    1.4262    7.1379   -1.5062 O   0  0  0  0  0  0  0  0  0  0  0  0
   -0.4695    5.7043   -0.9949 C   0  0  1  0  0  0  0  0  0  0  0  0
   -0.9076    4.3468   -0.9024 O   0  0  0  0  0  0  0  0  0  0  0  0
   -0.6799    6.4660    0.3220 C   0  0  0  0  0  0  0  0  0  0  0  0
   -0.3237    7.8872    0.1821 N   0  0  0  0  0  0  0  0  0  0  0  0
  1  3  1  0  0  0  0
  1  2  1  6  0  0  0
  3  4  1  1  0  0  0
  5  6  1  6  0  0  0
  5  3  1  0  0  0  0
  7  9  1  0  0  0  0
  7  5  1  0  0  0  0
  7  8  1  6  0  0  0
  9 10  1  0  0  0  0
  9 11  1  6  0  0  0
 10  1  1  0  0  0  0
 11 12  1  0  0  0  0
 13 14  1  1  0  0  0
 13 21  1  0  0  0  0
 15 13  1  0  0  0  0
 16 15  1  0  0  0  0
 16 18  1  0  0  0  0
 16 17  1  6  0  0  0
 18  2  1  6  0  0  0
 18 19  1  0  0  0  0
 19 21  1  0  0  0  0
 19 20  1  6  0  0  0
 21 22  1  1  0  0  0
 23 20  1  6  0  0  0
 23 29  1  0  0  0  0
 23 24  1  0  0  0  0
 24 26  1  0  0  0  0
 24 25  1  1  0  0  0
 26 27  1  1  0  0  0
 28 26  1  0  0  0  0
 28 30  1  6  0  0  0
 29 28  1  0  0  0  0
 30 31  1  0  0  0  0
 32 27  1  1  0  0  0
 32 40  1  0  0  0  0
 32 33  1  0  0  0  0
 33 35  1  0  0  0  0
 33 34  1  1  0  0  0
 35 37  1  0  0  0  0
 35 36  1  6  0  0  0
 37 38  1  1  0  0  0
 39 37  1  0  0  0  0
 39 41  1  1  0  0  0
 40 39  1  0  0  0  0
 42 41  1  0  0  0  0
M  END
>  <CHROM.1>
56.44205093,-159.13426722,-69.43979351,-171.74010992,-55.67005303,156.90388971
-48.76573681,-60.77043521,-113.44098966,-60.87789451,71.21153485,175.16625111
63.40566474,145.24212018,-158.94699593,161.87889807,-69.01151725,-62.92185542
-73.61959756,168.17292439,57.32887461,-154.08788095,-1.25433495,1.99881203
1.92456514,-2.96711028,1.26687675,0.63580104

>  <Name>
lig.pdb

>  <RI>
0

>  <Rbt.Current_Directory>
/home/itssahil/PROJECTS/Mol_Feturizer/New_Systems/rnas/2mxs

>  <Rbt.Executable>
rbdock ($Id: //depot/dev/client3/rdock/2013.1/src/exe/rbdock.cxx#4 $)

>  <Rbt.Library>
libRbt.so (2013.1, Build901 2013/11/27)

>  <Rbt.Parameter_File>
/export/apps/rDock/src/rDock_2013.1_src/data/scripts/dock_solv.prm

>  <Rbt.Receptor>
prm/pocket_docking_6.prm

>  <SCORE>
-44.1532

>  <SCORE.INTER>
-48.5677

>  <SCORE.INTER.CONST>
1

>  <SCORE.INTER.POLAR>
-6.42111

>  <SCORE.INTER.ROT>
9

>  <SCORE.INTER.SOLV>
22.0088

>  <SCORE.INTER.VDW>
-27.911

>  <SCORE.INTER.norm>
-1.15637

>  <SCORE.INTRA>
4.41451

>  <SCORE.INTRA.DIHEDRAL>
-8.79252

>  <SCORE.INTRA.DIHEDRAL.0>
30.1357

>  <SCORE.INTRA.POLAR>
0.152413

>  <SCORE.INTRA.POLAR.0>
-0.631696

>  <SCORE.INTRA.REPUL>
0

>  <SCORE.INTRA.REPUL.0>
0

>  <SCORE.INTRA.SOLV>
0.394398

>  <SCORE.INTRA.SOLV.lig_0>
-55.904

>  <SCORE.INTRA.VDW>
8.09536

>  <SCORE.INTRA.VDW.0>
-8.21197

>  <SCORE.INTRA.norm>
0.105107

>  <SCORE.RESTR>
0

>  <SCORE.RESTR.CAVITY>
0

>  <SCORE.RESTR.norm>
0

>  <SCORE.SYSTEM>
0

>  <SCORE.SYSTEM.CONST>
0

>  <SCORE.SYSTEM.DIHEDRAL>
0

>  <SCORE.SYSTEM.SOLV>
0

>  <SCORE.SYSTEM.norm>
0

>  <SCORE.heavy>
42

>  <SCORE.norm>
-1.05127

>  <RMSD>
7.419

$$$$
lig.pdb
 OpenBabel11021811453D
libRbt.so/2013.1/901 2013/11/27
 42 45  0  0  0  0  0  0  0  0999 V2000
   -1.9142    4.7778    1.3620 C   0  0  2  0  0  0  0  0  0  0  0  0
   -1.8194    5.9321    0.5252 O   0  0  0  0  0  0  0  0  0  0  0  0
   -3.2689    4.7358    2.0849 C   0  0  2  0  0  0  0  0  0  0  0  0
   -4.3843    4.8168    1.1237 N   0  0  0  0  0  0  0  0  0  0  0  0
   -3.3659    5.8488    3.1363 C   0  0  1  0  0  0  0  0  0  0  0  0
   -4.5562    5.6865    3.8835 O   0  0  0  0  0  0  0  0  0  0  0  0
   -2.1583    5.7921    4.0841 C   0  0  2  0  0  0  0  0  0  0  0  0
   -2.1835    6.9161    4.9428 O   0  0  0  0  0  0  0  0  0  0  0  0
   -0.8282    5.7607    3.3041 C   0  0  2  0  0  0  0  0  0  0  0  0
   -0.8422    4.7456    2.3009 O   0  0  0  0  0  0  0  0  0  0  0  0
    0.3085    5.4857    4.3068 C   0  0  0  0  0  0  0  0  0  0  0  0
    0.3374    4.0978    4.7350 O   0  0  0  0  0  0  0  0  0  0  0  0
    1.4704    7.5827   -1.7072 C   0  0  2  0  0  0  0  0  0  0  0  0
    2.9101    7.7990   -1.9537 N   0  0  0  0  0  0  0  0  0  0  0  0
    1.0752    8.1418   -0.3382 C   0  0  0  0  0  0  0  0  0  0  0  0
   -0.3744    7.7985   -0.0161 C   0  0  2  0  0  0  0  0  0  0  0  0
   -0.7733    8.4216    1.2521 N   0  0  0  0  0  0  0  0  0  0  0  0
   -0.5147    6.2589    0.0249 C   0  0  2  0  0  0  0  0  0  0  0  0
   -0.2852    5.7257   -1.3529 C   0  0  2  0  0  0  0  0  0  0  0  0
   -0.4592    4.3216   -1.3015 O   0  0  0  0  0  0  0  0  0  0  0  0
    1.1139    6.0881   -1.8138 C   0  0  1  0  0  0  0  0  0  0  0  0
    1.3567    5.6800   -3.1471 O   0  0  0  0  0  0  0  0  0  0  0  0
    0.2397    3.5314   -2.2576 C   0  0  1  0  0  0  0  0  0  0  0  0
    1.5472    3.0659   -1.6133 C   0  0  2  0  0  0  0  0  0  0  0  0
    2.5674    3.0360   -2.5937 O   0  0  0  0  0  0  0  0  0  0  0  0
    1.1801    1.6703   -1.0914 C   0  0  2  0  0  0  0  0  0  0  0  0
    2.3225    0.8400   -0.8809 O   0  0  0  0  0  0  0  0  0  0  0  0
    0.2434    1.2050   -2.2131 C   0  0  2  0  0  0  0  0  0  0  0  0
   -0.5115    2.3602   -2.5508 O   0  0  0  0  0  0  0  0  0  0  0  0
   -0.7189    0.0819   -1.8092 C   0  0  0  0  0  0  0  0  0  0  0  0
   -1.5479    0.4690   -0.7340 O   0  0  0  0  0  0  0  0  0  0  0  0
    2.0642   -0.3492   -0.1373 C   0  0  2  0  0  0  0  0  0  0  0  0
    1.5809   -0.0377    1.2873 C   0  0  2  0  0  0  0  0  0  0  0  0
    0.4020    0.8442    1.2621 N   0  0  0  0  0  0  0  0  0  0  0  0
    2.7118    0.5595    2.1382 C   0  0  1  0  0  0  0  0  0  0  0  0
    2.2351    0.7444    3.4571 O   0  0  0  0  0  0  0  0  0  0  0  0
    3.8944   -0.4240    2.1346 C   0  0  2  0  0  0  0  0  0  0  0  0
    4.9839    0.0994    2.8719 O   0  0  0  0  0  0  0  0  0  0  0  0
    4.3303   -0.7589    0.6933 C   0  0  1  0  0  0  0  0  0  0  0  0
    3.2215   -1.1813   -0.1039 O   0  0  0  0  0  0  0  0  0  0  0  0
    5.1243    0.3700    0.0195 C   0  0  0  0  0  0  0  0  0  0  0  0
    6.5592    0.2778    0.3337 N   0  0  0  0  0  0  0  0  0  0  0  0
  1  3  1  0  0  0  0
  1  2  1  1  0  0  0
  3  4  1  6  0  0  0
  5  6  1  1  0  0  0
  5  3  1  0  0  0  0
  7  9  1  0  0  0  0
  7  5  1  0  0  0  0
  7  8  1  1  0  0  0
  9 10  1  0  0  0  0
  9 11  1  1  0  0  0
 10  1  1  0  0  0  0
 11 12  1  0  0  0  0
 13 14  1  1  0  0  0
 13 21  1  0  0  0  0
 15 13  1  0  0  0  0
 16 15  1  0  0  0  0
 16 18  1  0  0  0  0
 16 17  1  1  0  0  0
 18  2  1  6  0  0  0
 18 19  1  0  0  0  0
 19 21  1  0  0  0  0
 19 20  1  1  0  0  0
 21 22  1  6  0  0  0
 23 20  1  1  0  0  0
 23 29  1  0  0  0  0
 23 24  1  0  0  0  0
 24 26  1  0  0  0  0
 24 25  1  6  0  0  0
 26 27  1  6  0  0  0
 28 26  1  0  0  0  0
 28 30  1  1  0  0  0
 29 28  1  0  0  0  0
 30 31  1  0  0  0  0
 32 27  1  1  0  0  0
 32 40  1  0  0  0  0
 32 33  1  0  0  0  0
 33 35  1  0  0  0  0
 33 34  1  6  0  0  0
 35 37  1  0  0  0  0
 35 36  1  1  0  0  0
 37 38  1  1  0  0  0
 39 37  1  0  0  0  0
 39 41  1  6  0  0  0
 40 39  1  0  0  0  0
 42 41  1  0  0  0  0
M  END
>  <CHROM.1>
-143.72113425,166.57812402,73.26033558,-53.52632905,90.61652866,-48.22465940
74.87507802,85.31299445,-86.59597796,-152.99697361,94.74599710,70.05879709
-49.22321185,167.30632237,-62.65272276,59.19324182,179.63881780,33.14349027
-62.29903478,64.99286525,86.32856711,-165.17117096,0.55304094,3.54096615
0.59064658,2.82440370,0.85242449,-0.90122963

>  <Name>
lig.pdb

>  <RI>
0

>  <Rbt.Current_Directory>
/home/itssahil/PROJECTS/Mol_Feturizer/New_Systems/rnas/2mxs

>  <Rbt.Executable>
rbdock ($Id: //depot/dev/client3/rdock/2013.1/src/exe/rbdock.cxx#4 $)

>  <Rbt.Library>
libRbt.so (2013.1, Build901 2013/11/27)

>  <Rbt.Parameter_File>
/export/apps/rDock/src/rDock_2013.1_src/data/scripts/dock_solv.prm

>  <Rbt.Receptor>
prm/blind_docking_60.prm

>  <SCORE>
144.901

>  <SCORE.INTER>
118.712

>  <SCORE.INTER.CONST>
1

>  <SCORE.INTER.POLAR>
-1.58514

>  <SCORE.INTER.ROT>
9

>  <SCORE.INTER.SOLV>
36.4495

>  <SCORE.INTER.VDW>
62.6756

>  <SCORE.INTER.norm>
2.82649

>  <SCORE.INTRA>
8.86532

>  <SCORE.INTRA.DIHEDRAL>
-1.70092

>  <SCORE.INTRA.DIHEDRAL.0>
30.1357

>  <SCORE.INTRA.POLAR>
-0.418513

>  <SCORE.INTRA.POLAR.0>
-0.631696

>  <SCORE.INTRA.REPUL>
0.0647367

>  <SCORE.INTRA.REPUL.0>
0

>  <SCORE.INTRA.SOLV>
1.82037

>  <SCORE.INTRA.SOLV.lig_0>
-55.904

>  <SCORE.INTRA.VDW>
9.90486

>  <SCORE.INTRA.VDW.0>
-8.21197

>  <SCORE.INTRA.norm>
0.211079

>  <SCORE.RESTR>
17.3231

>  <SCORE.RESTR.CAVITY>
17.3231

>  <SCORE.RESTR.norm>
0.412454

>  <SCORE.SYSTEM>
0

>  <SCORE.SYSTEM.CONST>
0

>  <SCORE.SYSTEM.DIHEDRAL>
0

>  <SCORE.SYSTEM.SOLV>
0

>  <SCORE.SYSTEM.norm>
0

>  <SCORE.heavy>
42

>  <SCORE.norm>
3.45002

>  <RMSD>
7.427

$$$$
lig.pdb
 OpenBabel11021811453D
libRbt.so/2013.1/901 2013/11/27
 42 45  0  0  0  0  0  0  0  0999 V2000
   -2.8794    5.3235    3.8780 C   0  0  2  0  0  0  0  0  0  0  0  0
   -2.0837    4.3644    3.1792 O   0  0  0  0  0  0  0  0  0  0  0  0
   -3.3314    6.4498    2.9362 C   0  0  2  0  0  0  0  0  0  0  0  0
   -4.0285    5.9052    1.7564 N   0  0  0  0  0  0  0  0  0  0  0  0
   -2.1440    7.3268    2.5182 C   0  0  1  0  0  0  0  0  0  0  0  0
   -2.6171    8.4370    1.7799 O   0  0  0  0  0  0  0  0  0  0  0  0
   -1.3881    7.8255    3.7590 C   0  0  2  0  0  0  0  0  0  0  0  0
   -0.2113    8.4971    3.3521 O   0  0  0  0  0  0  0  0  0  0  0  0
   -1.0251    6.6631    4.7053 C   0  0  2  0  0  0  0  0  0  0  0  0
   -2.1664    5.8554    4.9918 O   0  0  0  0  0  0  0  0  0  0  0  0
   -0.4718    7.2639    6.0115 C   0  0  0  0  0  0  0  0  0  0  0  0
    0.8023    7.9322    5.8104 O   0  0  0  0  0  0  0  0  0  0  0  0
   -3.3401    1.4750    0.2460 C   0  0  2  0  0  0  0  0  0  0  0  0
   -4.1629    1.0454   -0.9024 N   0  0  0  0  0  0  0  0  0  0  0  0
   -4.2344    1.8498    1.4304 C   0  0  0  0  0  0  0  0  0  0  0  0
   -3.4025    2.4270    2.5696 C   0  0  2  0  0  0  0  0  0  0  0  0
   -4.2544    2.6916    3.7359 N   0  0  0  0  0  0  0  0  0  0  0  0
   -2.7004    3.7079    2.0620 C   0  0  2  0  0  0  0  0  0  0  0  0
   -1.7080    3.3198    1.0132 C   0  0  2  0  0  0  0  0  0  0  0  0
   -1.0482    4.4998    0.5926 O   0  0  0  0  0  0  0  0  0  0  0  0
   -2.4243    2.6503   -0.1443 C   0  0  1  0  0  0  0  0  0  0  0  0
   -1.5220    2.1859   -1.1308 O   0  0  0  0  0  0  0  0  0  0  0  0
    0.2860    4.7099    1.0430 C   0  0  1  0  0  0  0  0  0  0  0  0
    1.1916    3.7285    0.2959 C   0  0  2  0  0  0  0  0  0  0  0  0
    2.2230    3.2920    1.1610 O   0  0  0  0  0  0  0  0  0  0  0  0
    1.7113    4.5803   -0.8701 C   0  0  2  0  0  0  0  0  0  0  0  0
    2.9207    4.0699   -1.4320 O   0  0  0  0  0  0  0  0  0  0  0  0
    1.8494    5.9366   -0.1676 C   0  0  2  0  0  0  0  0  0  0  0  0
    0.7126    6.0172    0.6808 O   0  0  0  0  0  0  0  0  0  0  0  0
    1.8506    7.1425   -1.1143 C   0  0  0  0  0  0  0  0  0  0  0  0
    0.6409    7.8662   -1.0363 O   0  0  0  0  0  0  0  0  0  0  0  0
    2.7489    2.9422   -2.2880 C   0  0  2  0  0  0  0  0  0  0  0  0
    2.3553    1.6830   -1.5008 C   0  0  2  0  0  0  0  0  0  0  0  0
    1.1521    1.9255   -0.6874 N   0  0  0  0  0  0  0  0  0  0  0  0
    3.5238    1.1795   -0.6402 C   0  0  1  0  0  0  0  0  0  0  0  0
    3.1333   -0.0244   -0.0085 O   0  0  0  0  0  0  0  0  0  0  0  0
    4.7317    0.9289   -1.5589 C   0  0  2  0  0  0  0  0  0  0  0  0
    5.8533    0.5028   -0.8073 O   0  0  0  0  0  0  0  0  0  0  0  0
    5.0776    2.1920   -2.3741 C   0  0  1  0  0  0  0  0  0  0  0  0
    3.9297    2.7078   -3.0521 O   0  0  0  0  0  0  0  0  0  0  0  0
    5.7901    3.2734   -1.5483 C   0  0  0  0  0  0  0  0  0  0  0  0
    7.2503    3.2026   -1.7184 N   0  0  0  0  0  0  0  0  0  0  0  0
  1  3  1  0  0  0  0
  1  2  1  6  0  0  0
  3  4  1  6  0  0  0
  5  6  1  1  0  0  0
  5  3  1  0  0  0  0
  7  9  1  0  0  0  0
  7  5  1  0  0  0  0
  7  8  1  6  0  0  0
  9 10  1  0  0  0  0
  9 11  1  1  0  0  0
 10  1  1  0  0  0  0
 11 12  1  0  0  0  0
 13 14  1  6  0  0  0
 13 21  1  0  0  0  0
 15 13  1  0  0  0  0
 16 15  1  0  0  0  0
 16 18  1  0  0  0  0
 16 17  1  1  0  0  0
 18  2  1  1  0  0  0
 18 19  1  0  0  0  0
 19 21  1  0  0  0  0
 19 20  1  6  0  0  0
 21 22  1  6  0  0  0
 23 20  1  6  0  0  0
 23 29  1  0  0  0  0
 23 24  1  0  0  0  0
 24 26  1  0  0  0  0
 24 25  1  1  0  0  0
 26 27  1  1  0  0  0
 28 26  1  0  0  0  0
 28 30  1  6  0  0  0
 29 28  1  0  0  0  0
 30 31  1  0  0  0  0
 32 27  1  1  0  0  0
 32 40  1  0  0  0  0
 32 33  1  0  0  0  0
 33 35  1  0  0  0  0
 33 34  1  1  0  0  0
 35 37  1  0  0  0  0
 35 36  1  6  0  0  0
 37 38  1  1  0  0  0
 39 37  1  0  0  0  0
 39 41  1  1  0  0  0
 40 39  1  0  0  0  0
 42 41  1  0  0  0  0
M  END
>  <CHROM.1>
-89.98651222,-59.16570129,29.06852588,168.08126288,-177.84142467,-60.87555417
-67.09996458,-80.07783561,-51.28365686,105.21466291,72.31507807,-40.39123068
73.03251910,77.23458972,-70.58728779,107.13261404,-92.36961433,-64.98939599
72.36017178,-68.74964785,96.70114408,97.45134098,0.22323303,4.18736737,0.87061871
2.47816527,0.32140826,0.53942717

>  <Name>
lig.pdb

>  <RI>
3.17932e+07

>  <Rbt.Current_Directory>
/home/itssahil/PROJECTS/Mol_Feturizer/New_Systems/rnas/2mxs

>  <Rbt.Executable>
rbdock ($Id: //depot/dev/client3/rdock/2013.1/src/exe/rbdock.cxx#4 $)

>  <Rbt.Library>
libRbt.so (2013.1, Build901 2013/11/27)

>  <Rbt.Parameter_File>
/export/apps/rDock/src/rDock_2013.1_src/data/scripts/dock_solv.prm

>  <Rbt.Receptor>
prm/blind_docking_100.prm

>  <SCORE>
120.877

>  <SCORE.INTER>
63.1027

>  <SCORE.INTER.CONST>
1

>  <SCORE.INTER.POLAR>
-3.05519

>  <SCORE.INTER.ROT>
9

>  <SCORE.INTER.SOLV>
36.993

>  <SCORE.INTER.VDW>
30.3214

>  <SCORE.INTER.norm>
1.50244

>  <SCORE.INTRA>
38.2795

>  <SCORE.INTRA.DIHEDRAL>
5.0177

>  <SCORE.INTRA.DIHEDRAL.0>
30.1357

>  <SCORE.INTRA.POLAR>
-0.426719

>  <SCORE.INTRA.POLAR.0>
-0.631696

>  <SCORE.INTRA.REPUL>
0.045664

>  <SCORE.INTRA.REPUL.0>
0

>  <SCORE.INTRA.SOLV>
3.16451

>  <SCORE.INTRA.SOLV.lig_0>
-55.904

>  <SCORE.INTRA.VDW>
35.4109

>  <SCORE.INTRA.VDW.0>
-8.21197

>  <SCORE.INTRA.norm>
0.911417

>  <SCORE.RESTR>
19.4946

>  <SCORE.RESTR.CAVITY>
19.4946

>  <SCORE.RESTR.norm>
0.464157

>  <SCORE.SYSTEM>
0

>  <SCORE.SYSTEM.CONST>
0

>  <SCORE.SYSTEM.DIHEDRAL>
0

>  <SCORE.SYSTEM.SOLV>
0

>  <SCORE.SYSTEM.norm>
0

>  <SCORE.heavy>
42

>  <SCORE.norm>
2.87802

>  <RMSD>
7.438

$$$$
lig.pdb
 OpenBabel11021811453D
libRbt.so/2013.1/901 2013/11/27
 42 45  0  0  0  0  0  0  0  0999 V2000
   -0.7734    5.3039    3.1072 C   0  0  2  0  0  0  0  0  0  0  0  0
   -2.0714    4.8297    3.4701 O   0  0  0  0  0  0  0  0  0  0  0  0
    0.0322    5.7012    4.3533 C   0  0  2  0  0  0  0  0  0  0  0  0
    0.0984    4.5877    5.3178 N   0  0  0  0  0  0  0  0  0  0  0  0
   -0.5505    6.9613    5.0061 C   0  0  1  0  0  0  0  0  0  0  0  0
    0.3009    7.3841    6.0539 O   0  0  0  0  0  0  0  0  0  0  0  0
   -0.6787    8.0872    3.9688 C   0  0  2  0  0  0  0  0  0  0  0  0
   -1.3610    9.1826    4.5484 O   0  0  0  0  0  0  0  0  0  0  0  0
   -1.4296    7.6121    2.7084 C   0  0  2  0  0  0  0  0  0  0  0  0
   -0.8716    6.4001    2.2015 O   0  0  0  0  0  0  0  0  0  0  0  0
   -1.3242    8.7192    1.6423 C   0  0  0  0  0  0  0  0  0  0  0  0
   -0.4002    8.3684    0.5777 O   0  0  0  0  0  0  0  0  0  0  0  0
   -4.8982    2.5521    1.1565 C   0  0  2  0  0  0  0  0  0  0  0  0
   -5.6540    2.2682   -0.0798 N   0  0  0  0  0  0  0  0  0  0  0  0
   -5.2372    3.9508    1.6779 C   0  0  0  0  0  0  0  0  0  0  0  0
   -4.3588    4.3063    2.8716 C   0  0  2  0  0  0  0  0  0  0  0  0
   -4.7574    5.6066    3.4250 N   0  0  0  0  0  0  0  0  0  0  0  0
   -2.8825    4.3001    2.4113 C   0  0  2  0  0  0  0  0  0  0  0  0
   -2.5041    2.8986    2.0532 C   0  0  2  0  0  0  0  0  0  0  0  0
   -1.1397    2.9083    1.6753 O   0  0  0  0  0  0  0  0  0  0  0  0
   -3.3833    2.4067    0.9191 C   0  0  1  0  0  0  0  0  0  0  0  0
   -3.1248    1.0536    0.5947 O   0  0  0  0  0  0  0  0  0  0  0  0
   -0.7679    3.7029    0.5540 C   0  0  1  0  0  0  0  0  0  0  0  0
    0.7466    3.5785    0.3744 C   0  0  2  0  0  0  0  0  0  0  0  0
    1.2689    4.8173   -0.0674 O   0  0  0  0  0  0  0  0  0  0  0  0
    0.8645    2.4707   -0.6811 C   0  0  2  0  0  0  0  0  0  0  0  0
    2.1158    2.4923   -1.3685 O   0  0  0  0  0  0  0  0  0  0  0  0
   -0.3544    2.8018   -1.5511 C   0  0  2  0  0  0  0  0  0  0  0  0
   -1.3642    3.1757   -0.6244 O   0  0  0  0  0  0  0  0  0  0  0  0
   -0.8647    1.6300   -2.3978 C   0  0  0  0  0  0  0  0  0  0  0  0
    0.1396    1.1324   -3.2562 O   0  0  0  0  0  0  0  0  0  0  0  0
    3.2554    2.6409   -0.5240 C   0  0  2  0  0  0  0  0  0  0  0  0
    4.5191    2.0423   -1.1602 C   0  0  2  0  0  0  0  0  0  0  0  0
    4.7617    2.6200   -2.4926 N   0  0  0  0  0  0  0  0  0  0  0  0
    4.4377    0.5094   -1.2182 C   0  0  1  0  0  0  0  0  0  0  0  0
    5.6583    0.0116   -1.7310 O   0  0  0  0  0  0  0  0  0  0  0  0
    4.2060   -0.0196    0.2074 C   0  0  2  0  0  0  0  0  0  0  0  0
    4.0801   -1.4297    0.2045 O   0  0  0  0  0  0  0  0  0  0  0  0
    2.9603    0.6315    0.8429 C   0  0  1  0  0  0  0  0  0  0  0  0
    3.0122    2.0573    0.7540 O   0  0  0  0  0  0  0  0  0  0  0  0
    1.6371    0.0708    0.3013 C   0  0  0  0  0  0  0  0  0  0  0  0
    1.6342   -1.4010    0.3117 N   0  0  0  0  0  0  0  0  0  0  0  0
  1  3  1  0  0  0  0
  1  2  1  1  0  0  0
  3  4  1  1  0  0  0
  5  6  1  1  0  0  0
  5  3  1  0  0  0  0
  7  9  1  0  0  0  0
  7  5  1  0  0  0  0
  7  8  1  1  0  0  0
  9 10  1  0  0  0  0
  9 11  1  6  0  0  0
 10  1  1  0  0  0  0
 11 12  1  0  0  0  0
 13 14  1  6  0  0  0
 13 21  1  0  0  0  0
 15 13  1  0  0  0  0
 16 15  1  0  0  0  0
 16 18  1  0  0  0  0
 16 17  1  6  0  0  0
 18  2  1  1  0  0  0
 18 19  1  0  0  0  0
 19 21  1  0  0  0  0
 19 20  1  6  0  0  0
 21 22  1  1  0  0  0
 23 20  1  1  0  0  0
 23 29  1  0  0  0  0
 23 24  1  0  0  0  0
 24 26  1  0  0  0  0
 24 25  1  6  0  0  0
 26 27  1  6  0  0  0
 28 26  1  0  0  0  0
 28 30  1  1  0  0  0
 29 28  1  0  0  0  0
 30 31  1  0  0  0  0
 32 27  1  6  0  0  0
 32 40  1  0  0  0  0
 32 33  1  0  0  0  0
 33 35  1  0  0  0  0
 33 34  1  6  0  0  0
 35 37  1  0  0  0  0
 35 36  1  1  0  0  0
 37 38  1  6  0  0  0
 39 37  1  0  0  0  0
 39 41  1  6  0  0  0
 40 39  1  0  0  0  0
 42 41  1  0  0  0  0
M  END
>  <CHROM.1>
-160.51900598,-174.02986364,-143.08702504,-65.58832122,52.26062032,-64.41667053
106.25887221,133.34015967,79.42748830,-61.02573611,178.42765933,78.69487760
165.56979332,45.95241926,154.15431169,-58.00500171,-50.40558433,-63.53968323
-49.36812962,70.38727018,48.90578351,-13.87442994,-0.09457642,3.53571087
1.08340333,-2.23078088,-0.05054392,-2.52337671

>  <Name>
lig.pdb

>  <RI>
3.17932e+07

>  <Rbt.Current_Directory>
/home/itssahil/PROJECTS/Mol_Feturizer/New_Systems/rnas/2mxs

>  <Rbt.Executable>
rbdock ($Id: //depot/dev/client3/rdock/2013.1/src/exe/rbdock.cxx#4 $)

>  <Rbt.Library>
libRbt.so (2013.1, Build901 2013/11/27)

>  <Rbt.Parameter_File>
/export/apps/rDock/src/rDock_2013.1_src/data/scripts/dock_solv.prm

>  <Rbt.Receptor>
prm/blind_docking_100.prm

>  <SCORE>
51.4051

>  <SCORE.INTER>
23.4514

>  <SCORE.INTER.CONST>
1

>  <SCORE.INTER.POLAR>
-4.27655

>  <SCORE.INTER.ROT>
9

>  <SCORE.INTER.SOLV>
41.4026

>  <SCORE.INTER.VDW>
6.48855

>  <SCORE.INTER.norm>
0.558366

>  <SCORE.INTRA>
10.4431

>  <SCORE.INTRA.DIHEDRAL>
-4.52

>  <SCORE.INTRA.DIHEDRAL.0>
30.1357

>  <SCORE.INTRA.POLAR>
-0.190107

>  <SCORE.INTRA.POLAR.0>
-0.631696

>  <SCORE.INTRA.REPUL>
0

>  <SCORE.INTRA.REPUL.0>
0

>  <SCORE.INTRA.SOLV>
0.720541

>  <SCORE.INTRA.SOLV.lig_0>
-55.904

>  <SCORE.INTRA.VDW>
12.9892

>  <SCORE.INTRA.VDW.0>
-8.21197

>  <SCORE.INTRA.norm>
0.248646

>  <SCORE.RESTR>
17.5106

>  <SCORE.RESTR.CAVITY>
17.5106

>  <SCORE.RESTR.norm>
0.416918

>  <SCORE.SYSTEM>
0

>  <SCORE.SYSTEM.CONST>
0

>  <SCORE.SYSTEM.DIHEDRAL>
0

>  <SCORE.SYSTEM.SOLV>
0

>  <SCORE.SYSTEM.norm>
0

>  <SCORE.heavy>
42

>  <SCORE.norm>
1.22393

>  <RMSD>
7.448

$$$$
lig.pdb
 OpenBabel11021811453D
libRbt.so/2013.1/901 2013/11/27
 42 45  0  0  0  0  0  0  0  0999 V2000
   -1.9346    4.5012    1.6326 C   0  0  2  0  0  0  0  0  0  0  0  0
   -1.9047    5.6669    0.8069 O   0  0  0  0  0  0  0  0  0  0  0  0
   -3.2939    4.3628    2.3347 C   0  0  2  0  0  0  0  0  0  0  0  0
   -4.3982    4.3784    1.3576 N   0  0  0  0  0  0  0  0  0  0  0  0
   -3.4798    5.4572    3.3936 C   0  0  1  0  0  0  0  0  0  0  0  0
   -4.6673    5.2095    4.1216 O   0  0  0  0  0  0  0  0  0  0  0  0
   -2.2849    5.4722    4.3589 C   0  0  2  0  0  0  0  0  0  0  0  0
   -2.3973    6.5842    5.2263 O   0  0  0  0  0  0  0  0  0  0  0  0
   -0.9446    5.5363    3.5988 C   0  0  2  0  0  0  0  0  0  0  0  0
   -0.8765    4.5317    2.5872 O   0  0  0  0  0  0  0  0  0  0  0  0
    0.1934    5.3282    4.6161 C   0  0  0  0  0  0  0  0  0  0  0  0
    0.6625    6.5832    5.1776 O   0  0  0  0  0  0  0  0  0  0  0  0
    1.2721    7.4894   -1.4552 C   0  0  2  0  0  0  0  0  0  0  0  0
    2.6968    7.7706   -1.7225 N   0  0  0  0  0  0  0  0  0  0  0  0
    0.8775    8.0109   -0.0712 C   0  0  0  0  0  0  0  0  0  0  0  0
   -0.5503    7.6011    0.2699 C   0  0  2  0  0  0  0  0  0  0  0  0
   -0.9530    8.1880    1.5541 N   0  0  0  0  0  0  0  0  0  0  0  0
   -0.6242    6.0566    0.2897 C   0  0  2  0  0  0  0  0  0  0  0  0
   -0.3963    5.5539   -1.0999 C   0  0  2  0  0  0  0  0  0  0  0  0
   -0.5094    4.1430   -1.0671 O   0  0  0  0  0  0  0  0  0  0  0  0
    0.9778    5.9825   -1.5787 C   0  0  1  0  0  0  0  0  0  0  0  0
    1.2144    5.6047   -2.9220 O   0  0  0  0  0  0  0  0  0  0  0  0
    0.1063    3.4039   -2.1166 C   0  0  1  0  0  0  0  0  0  0  0  0
    1.3011    2.6550   -1.5225 C   0  0  2  0  0  0  0  0  0  0  0  0
    2.3477    2.6134   -2.4741 O   0  0  0  0  0  0  0  0  0  0  0  0
    0.7092    1.2706   -1.2257 C   0  0  2  0  0  0  0  0  0  0  0  0
    1.7060    0.2539   -1.1189 O   0  0  0  0  0  0  0  0  0  0  0  0
   -0.2358    1.1230   -2.4246 C   0  0  2  0  0  0  0  0  0  0  0  0
   -0.7961    2.4167   -2.5996 O   0  0  0  0  0  0  0  0  0  0  0  0
   -1.3703    0.1131   -2.2158 C   0  0  0  0  0  0  0  0  0  0  0  0
   -2.5595    0.7467   -1.7945 O   0  0  0  0  0  0  0  0  0  0  0  0
    1.3665   -0.8221   -0.2465 C   0  0  2  0  0  0  0  0  0  0  0  0
    0.9011   -0.3175    1.1278 C   0  0  2  0  0  0  0  0  0  0  0  0
   -0.2160    0.6317    0.9892 N   0  0  0  0  0  0  0  0  0  0  0  0
    2.0670    0.2975    1.9165 C   0  0  1  0  0  0  0  0  0  0  0  0
    1.6001    0.6641    3.2003 O   0  0  0  0  0  0  0  0  0  0  0  0
    3.1812   -0.7559    2.0380 C   0  0  2  0  0  0  0  0  0  0  0  0
    4.3012   -0.2245    2.7219 O   0  0  0  0  0  0  0  0  0  0  0  0
    3.5978   -1.2826    0.6493 C   0  0  1  0  0  0  0  0  0  0  0  0
    2.4655   -1.7197   -0.1058 O   0  0  0  0  0  0  0  0  0  0  0  0
    4.4674   -0.2938   -0.1411 C   0  0  0  0  0  0  0  0  0  0  0  0
    3.7448    0.9601   -0.4092 N   0  0  0  0  0  0  0  0  0  0  0  0
  1  3  1  0  0  0  0
  1  2  1  1  0  0  0
  3  4  1  6  0  0  0
  5  6  1  1  0  0  0
  5  3  1  0  0  0  0
  7  9  1  0  0  0  0
  7  5  1  0  0  0  0
  7  8  1  1  0  0  0
  9 10  1  0  0  0  0
  9 11  1  1  0  0  0
 10  1  1  0  0  0  0
 11 12  1  0  0  0  0
 13 14  1  1  0  0  0
 13 21  1  0  0  0  0
 15 13  1  0  0  0  0
 16 15  1  0  0  0  0
 16 18  1  0  0  0  0
 16 17  1  1  0  0  0
 18  2  1  6  0  0  0
 18 19  1  0  0  0  0
 19 21  1  0  0  0  0
 19 20  1  1  0  0  0
 21 22  1  6  0  0  0
 23 20  1  1  0  0  0
 23 29  1  0  0  0  0
 23 24  1  0  0  0  0
 24 26  1  0  0  0  0
 24 25  1  6  0  0  0
 26 27  1  6  0  0  0
 28 26  1  0  0  0  0
 28 30  1  1  0  0  0
 29 28  1  0  0  0  0
 30 31  1  0  0  0  0
 32 27  1  6  0  0  0
 32 40  1  0  0  0  0
 32 33  1  0  0  0  0
 33 35  1  0  0  0  0
 33 34  1  6  0  0  0
 35 37  1  0  0  0  0
 35 36  1  1  0  0  0
 37 38  1  6  0  0  0
 39 37  1  0  0  0  0
 39 41  1  6  0  0  0
 40 39  1  0  0  0  0
 42 41  1  0  0  0  0
M  END
>  <CHROM.1>
-143.42275730,168.73788394,60.75914298,52.19842867,167.39672402,65.48725986
-90.57624430,-58.29847201,-157.17938316,-158.52475399,110.28042655,77.80345332
58.89241737,150.48290007,-50.80924076,96.13342947,-48.24608108,160.43887703
-168.53813005,49.69798249,-61.81432136,-75.52793125,0.17131719,3.39475997
0.63598738,2.82343452,1.02766754,-0.80669110

>  <Name>
lig.pdb

>  <RI>
3.17932e+07

>  <Rbt.Current_Directory>
/home/itssahil/PROJECTS/Mol_Feturizer/New_Systems/rnas/2mxs

>  <Rbt.Executable>
rbdock ($Id: //depot/dev/client3/rdock/2013.1/src/exe/rbdock.cxx#4 $)

>  <Rbt.Library>
libRbt.so (2013.1, Build901 2013/11/27)

>  <Rbt.Parameter_File>
/export/apps/rDock/src/rDock_2013.1_src/data/scripts/dock_solv.prm

>  <Rbt.Receptor>
prm/blind_docking_100.prm

>  <SCORE>
61.7535

>  <SCORE.INTER>
19.7231

>  <SCORE.INTER.CONST>
1

>  <SCORE.INTER.POLAR>
-3.63559

>  <SCORE.INTER.ROT>
9

>  <SCORE.INTER.SOLV>
31.927

>  <SCORE.INTER.VDW>
5.02506

>  <SCORE.INTER.norm>
0.469598

>  <SCORE.INTRA>
20.5841

>  <SCORE.INTRA.DIHEDRAL>
1.70989

>  <SCORE.INTRA.DIHEDRAL.0>
30.1357

>  <SCORE.INTRA.POLAR>
0.110997

>  <SCORE.INTRA.POLAR.0>
-0.631696

>  <SCORE.INTRA.REPUL>
0

>  <SCORE.INTRA.REPUL.0>
0

>  <SCORE.INTRA.SOLV>
2.79718

>  <SCORE.INTRA.SOLV.lig_0>
-55.904

>  <SCORE.INTRA.VDW>
17.9531

>  <SCORE.INTRA.VDW.0>
-8.21197

>  <SCORE.INTRA.norm>
0.490097

>  <SCORE.RESTR>
21.4463

>  <SCORE.RESTR.CAVITY>
21.4463

>  <SCORE.RESTR.norm>
0.510626

>  <SCORE.SYSTEM>
0

>  <SCORE.SYSTEM.CONST>
0

>  <SCORE.SYSTEM.DIHEDRAL>
0

>  <SCORE.SYSTEM.SOLV>
0

>  <SCORE.SYSTEM.norm>
0

>  <SCORE.heavy>
42

>  <SCORE.norm>
1.47032

>  <RMSD>
7.483

$$$$
lig.pdb
 OpenBabel11021811453D
libRbt.so/2013.1/901 2013/11/27
 42 45  0  0  0  0  0  0  0  0999 V2000
   -2.0403    4.7754    1.5109 C   0  0  2  0  0  0  0  0  0  0  0  0
   -1.9249    5.8999    0.6370 O   0  0  0  0  0  0  0  0  0  0  0  0
   -3.3693    4.8145    2.2803 C   0  0  2  0  0  0  0  0  0  0  0  0
   -4.5132    4.9175    1.3555 N   0  0  0  0  0  0  0  0  0  0  0  0
   -3.3806    5.9603    3.3004 C   0  0  1  0  0  0  0  0  0  0  0  0
   -4.5498    5.8727    4.0921 O   0  0  0  0  0  0  0  0  0  0  0  0
   -2.1440    5.8771    4.2079 C   0  0  2  0  0  0  0  0  0  0  0  0
   -2.0901    7.0253    5.0327 O   0  0  0  0  0  0  0  0  0  0  0  0
   -0.8449    5.7642    3.3846 C   0  0  2  0  0  0  0  0  0  0  0  0
   -0.9383    4.7225    2.4135 O   0  0  0  0  0  0  0  0  0  0  0  0
    0.3135    5.4677    4.3560 C   0  0  0  0  0  0  0  0  0  0  0  0
    0.5627    6.5732    5.2649 O   0  0  0  0  0  0  0  0  0  0  0  0
    1.4222    7.4648   -1.5718 C   0  0  2  0  0  0  0  0  0  0  0  0
    2.8672    7.6845   -1.7815 N   0  0  0  0  0  0  0  0  0  0  0  0
    0.9749    8.0934   -0.2497 C   0  0  0  0  0  0  0  0  0  0  0  0
   -0.4813    7.7509    0.0421 C   0  0  2  0  0  0  0  0  0  0  0  0
   -0.9294    8.4379    1.2599 N   0  0  0  0  0  0  0  0  0  0  0  0
   -0.6073    6.2144    0.1634 C   0  0  2  0  0  0  0  0  0  0  0  0
   -0.3256    5.6092   -1.1745 C   0  0  2  0  0  0  0  0  0  0  0  0
   -0.4870    4.2080   -1.0515 O   0  0  0  0  0  0  0  0  0  0  0  0
    1.0847    5.9624   -1.6076 C   0  0  1  0  0  0  0  0  0  0  0  0
    1.3769    5.4847   -2.9074 O   0  0  0  0  0  0  0  0  0  0  0  0
   -0.0340    3.3915   -2.1261 C   0  0  1  0  0  0  0  0  0  0  0  0
    1.2213    2.6537   -1.6558 C   0  0  2  0  0  0  0  0  0  0  0  0
    2.1244    2.5294   -2.7382 O   0  0  0  0  0  0  0  0  0  0  0  0
    0.6571    1.3042   -1.1914 C   0  0  2  0  0  0  0  0  0  0  0  0
    1.6447    0.2735   -1.1581 O   0  0  0  0  0  0  0  0  0  0  0  0
   -0.4477    1.1043   -2.2361 C   0  0  2  0  0  0  0  0  0  0  0  0
   -1.0087    2.3972   -2.4151 O   0  0  0  0  0  0  0  0  0  0  0  0
   -1.5561    0.1355   -1.8079 C   0  0  0  0  0  0  0  0  0  0  0  0
   -2.6744    0.8221   -1.2871 O   0  0  0  0  0  0  0  0  0  0  0  0
    1.4084   -0.7450   -0.1881 C   0  0  2  0  0  0  0  0  0  0  0  0
    1.0231   -0.1548    1.1769 C   0  0  2  0  0  0  0  0  0  0  0  0
   -0.1357    0.7451    1.0529 N   0  0  0  0  0  0  0  0  0  0  0  0
    2.2182    0.5543    1.8316 C   0  0  1  0  0  0  0  0  0  0  0  0
    1.8301    1.0002    3.1166 O   0  0  0  0  0  0  0  0  0  0  0  0
    3.3768   -0.4509    1.9463 C   0  0  2  0  0  0  0  0  0  0  0  0
    4.5218    0.1656    2.5061 O   0  0  0  0  0  0  0  0  0  0  0  0
    3.7133   -1.0657    0.5721 C   0  0  1  0  0  0  0  0  0  0  0  0
    2.5474   -1.5938   -0.0644 O   0  0  0  0  0  0  0  0  0  0  0  0
    4.4871   -0.1110   -0.3490 C   0  0  0  0  0  0  0  0  0  0  0  0
    5.9286   -0.4077   -0.3395 N   0  0  0  0  0  0  0  0  0  0  0  0
  1  3  1  0  0  0  0
  1  2  1  1  0  0  0
  3  4  1  6  0  0  0
  5  6  1  1  0  0  0
  5  3  1  0  0  0  0
  7  9  1  0  0  0  0
  7  5  1  0  0  0  0
  7  8  1  6  0  0  0
  9 10  1  0  0  0  0
  9 11  1  1  0  0  0
 10  1  1  0  0  0  0
 11 12  1  0  0  0  0
 13 14  1  1  0  0  0
 13 21  1  0  0  0  0
 15 13  1  0  0  0  0
 16 15  1  0  0  0  0
 16 18  1  0  0  0  0
 16 17  1  1  0  0  0
 18  2  1  6  0  0  0
 18 19  1  0  0  0  0
 19 21  1  0  0  0  0
 19 20  1  1  0  0  0
 21 22  1  6  0  0  0
 23 20  1  1  0  0  0
 23 29  1  0  0  0  0
 23 24  1  0  0  0  0
 24 26  1  0  0  0  0
 24 25  1  6  0  0  0
 26 27  1  6  0  0  0
 28 26  1  0  0  0  0
 28 30  1  1  0  0  0
 29 28  1  0  0  0  0
 30 31  1  0  0  0  0
 32 27  1  6  0  0  0
 32 40  1  0  0  0  0
 32 33  1  0  0  0  0
 33 35  1  0  0  0  0
 33 34  1  6  0  0  0
 35 37  1  0  0  0  0
 35 36  1  1  0  0  0
 37 38  1  6  0  0  0
 39 37  1  0  0  0  0
 39 41  1  6  0  0  0
 40 39  1  0  0  0  0
 42 41  1  0  0  0  0
M  END
>  <CHROM.1>
-144.96171474,162.01162842,129.99989710,80.03003204,60.05827511,56.18687334
-65.68782354,-57.38675061,7.15917456,-168.61875483,108.55264193,-55.48377141
91.68414533,151.03998265,-46.12993872,97.04611591,-39.17792585,157.41346698
65.91135257,50.96791135,99.68729187,146.82666139,0.25880121,3.51620391,0.58936880
2.85688742,0.98263701,-0.86932033

>  <Name>
lig.pdb

>  <RI>
0

>  <Rbt.Current_Directory>
/home/itssahil/PROJECTS/Mol_Feturizer/New_Systems/rnas/2mxs

>  <Rbt.Executable>
rbdock ($Id: //depot/dev/client3/rdock/2013.1/src/exe/rbdock.cxx#4 $)

>  <Rbt.Library>
libRbt.so (2013.1, Build901 2013/11/27)

>  <Rbt.Parameter_File>
/export/apps/rDock/src/rDock_2013.1_src/data/scripts/dock_solv.prm

>  <Rbt.Receptor>
prm/blind_docking_60.prm

>  <SCORE>
74.0032

>  <SCORE.INTER>
29.2114

>  <SCORE.INTER.CONST>
1

>  <SCORE.INTER.POLAR>
-3.50086

>  <SCORE.INTER.ROT>
9

>  <SCORE.INTER.SOLV>
36.8863

>  <SCORE.INTER.VDW>
9.24832

>  <SCORE.INTER.norm>
0.695509

>  <SCORE.INTRA>
25.4539

>  <SCORE.INTRA.DIHEDRAL>
13.6239

>  <SCORE.INTRA.DIHEDRAL.0>
30.1357

>  <SCORE.INTRA.POLAR>
0.269414

>  <SCORE.INTRA.POLAR.0>
-0.631696

>  <SCORE.INTRA.REPUL>
0

>  <SCORE.INTRA.REPUL.0>
0

>  <SCORE.INTRA.SOLV>
1.16913

>  <SCORE.INTRA.SOLV.lig_0>
-55.904

>  <SCORE.INTRA.VDW>
17.1414

>  <SCORE.INTRA.VDW.0>
-8.21197

>  <SCORE.INTRA.norm>
0.606045

>  <SCORE.RESTR>
19.338

>  <SCORE.RESTR.CAVITY>
19.338

>  <SCORE.RESTR.norm>
0.460428

>  <SCORE.SYSTEM>
0

>  <SCORE.SYSTEM.CONST>
0

>  <SCORE.SYSTEM.DIHEDRAL>
0

>  <SCORE.SYSTEM.SOLV>
0

>  <SCORE.SYSTEM.norm>
0

>  <SCORE.heavy>
42

>  <SCORE.norm>
1.76198

>  <RMSD>
7.483

$$$$
lig.pdb
 OpenBabel11021811453D
libRbt.so/2013.1/901 2013/11/27
 42 45  0  0  0  0  0  0  0  0999 V2000
   -1.1582    4.5721    1.4213 C   0  0  2  0  0  0  0  0  0  0  0  0
   -1.2346    5.6519    0.4887 O   0  0  0  0  0  0  0  0  0  0  0  0
   -2.5403    4.2650    2.0172 C   0  0  2  0  0  0  0  0  0  0  0  0
   -3.5301    4.0104    0.9542 N   0  0  0  0  0  0  0  0  0  0  0  0
   -3.0044    5.3976    2.9421 C   0  0  1  0  0  0  0  0  0  0  0  0
   -4.2029    5.0144    3.5889 O   0  0  0  0  0  0  0  0  0  0  0  0
   -1.9294    5.6966    3.9980 C   0  0  2  0  0  0  0  0  0  0  0  0
   -2.3050    6.8427    4.7374 O   0  0  0  0  0  0  0  0  0  0  0  0
   -0.5481    5.9226    3.3504 C   0  0  2  0  0  0  0  0  0  0  0  0
   -0.2189    4.8623    2.4535 O   0  0  0  0  0  0  0  0  0  0  0  0
    0.5017    5.9973    4.4754 C   0  0  0  0  0  0  0  0  0  0  0  0
    0.2267    5.0534    5.5448 O   0  0  0  0  0  0  0  0  0  0  0  0
    1.8189    7.5294   -1.8951 C   0  0  2  0  0  0  0  0  0  0  0  0
    3.1962    8.0129   -2.1174 N   0  0  0  0  0  0  0  0  0  0  0  0
    1.1913    8.2440   -0.6956 C   0  0  0  0  0  0  0  0  0  0  0  0
   -0.1755    7.6520   -0.3729 C   0  0  2  0  0  0  0  0  0  0  0  0
   -0.8110    8.4069    0.7143 N   0  0  0  0  0  0  0  0  0  0  0  0
    0.0110    6.1601   -0.0110 C   0  0  2  0  0  0  0  0  0  0  0  0
    0.4726    5.4309   -1.2319 C   0  0  2  0  0  0  0  0  0  0  0  0
    0.5966    4.0625   -0.8903 O   0  0  0  0  0  0  0  0  0  0  0  0
    1.7989    6.0021   -1.6965 C   0  0  1  0  0  0  0  0  0  0  0  0
    2.2429    5.4041   -2.8999 O   0  0  0  0  0  0  0  0  0  0  0  0
    1.6556    3.6912   -0.0142 C   0  0  1  0  0  0  0  0  0  0  0  0
    1.4873    2.2076    0.3202 C   0  0  2  0  0  0  0  0  0  0  0  0
    1.8797    1.9825    1.6611 O   0  0  0  0  0  0  0  0  0  0  0  0
    2.4186    1.5321   -0.6954 C   0  0  2  0  0  0  0  0  0  0  0  0
    2.8119    0.2185   -0.2972 O   0  0  0  0  0  0  0  0  0  0  0  0
    3.5559    2.5601   -0.7379 C   0  0  2  0  0  0  0  0  0  0  0  0
    2.9012    3.8199   -0.6881 O   0  0  0  0  0  0  0  0  0  0  0  0
    4.4191    2.4972   -2.0034 C   0  0  0  0  0  0  0  0  0  0  0  0
    4.9913    1.2187   -2.1796 O   0  0  0  0  0  0  0  0  0  0  0  0
    1.8730   -0.8060   -0.6179 C   0  0  2  0  0  0  0  0  0  0  0  0
    0.4623   -0.2387   -0.8375 C   0  0  2  0  0  0  0  0  0  0  0  0
    0.4735    0.8170   -1.8638 N   0  0  0  0  0  0  0  0  0  0  0  0
   -0.1441    0.2651    0.4809 C   0  0  1  0  0  0  0  0  0  0  0  0
   -1.4691    0.6940    0.2336 O   0  0  0  0  0  0  0  0  0  0  0  0
   -0.1416   -0.8943    1.4917 C   0  0  2  0  0  0  0  0  0  0  0  0
   -0.6527   -0.4703    2.7421 O   0  0  0  0  0  0  0  0  0  0  0  0
    1.2761   -1.4787    1.6590 C   0  0  1  0  0  0  0  0  0  0  0  0
    1.8586   -1.8085    0.3960 O   0  0  0  0  0  0  0  0  0  0  0  0
    2.2035   -0.5936    2.5049 C   0  0  0  0  0  0  0  0  0  0  0  0
    1.4825    0.0101    3.6371 N   0  0  0  0  0  0  0  0  0  0  0  0
  1  3  1  0  0  0  0
  1  2  1  6  0  0  0
  3  4  1  6  0  0  0
  5  6  1  1  0  0  0
  5  3  1  0  0  0  0
  7  9  1  0  0  0  0
  7  5  1  0  0  0  0
  7  8  1  6  0  0  0
  9 10  1  0  0  0  0
  9 11  1  1  0  0  0
 10  1  1  0  0  0  0
 11 12  1  0  0  0  0
 13 14  1  1  0  0  0
 13 21  1  0  0  0  0
 15 13  1  0  0  0  0
 16 15  1  0  0  0  0
 16 18  1  0  0  0  0
 16 17  1  1  0  0  0
 18  2  1  6  0  0  0
 18 19  1  0  0  0  0
 19 21  1  0  0  0  0
 19 20  1  1  0  0  0
 21 22  1  6  0  0  0
 23 20  1  6  0  0  0
 23 29  1  0  0  0  0
 23 24  1  0  0  0  0
 24 26  1  0  0  0  0
 24 25  1  1  0  0  0
 26 27  1  1  0  0  0
 28 26  1  0  0  0  0
 28 30  1  6  0  0  0
 29 28  1  0  0  0  0
 30 31  1  0  0  0  0
 32 27  1  1  0  0  0
 32 40  1  0  0  0  0
 32 33  1  0  0  0  0
 33 35  1  0  0  0  0
 33 34  1  6  0  0  0
 35 37  1  0  0  0  0
 35 36  1  6  0  0  0
 37 38  1  1  0  0  0
 39 37  1  0  0  0  0
 39 41  1  6  0  0  0
 40 39  1  0  0  0  0
 42 41  1  0  0  0  0
M  END
>  <CHROM.1>
-151.62090771,172.01579534,-7.84957766,62.19331403,-61.90513982,70.98958960
38.26954333,-173.31410878,-129.64314812,-70.18461655,173.94956551,68.35628780
-90.89084158,83.41805390,-21.11159725,-57.48833557,-71.32879236,13.80901639
-178.18921346,63.98655749,38.77610083,22.80703254,0.55495546,3.46188679,0.74113105
2.21003991,0.83034834,-0.23601140

>  <Name>
lig.pdb

>  <RI>
0

>  <Rbt.Current_Directory>
/home/itssahil/PROJECTS/Mol_Feturizer/New_Systems/rnas/2mxs

>  <Rbt.Executable>
rbdock ($Id: //depot/dev/client3/rdock/2013.1/src/exe/rbdock.cxx#4 $)

>  <Rbt.Library>
libRbt.so (2013.1, Build901 2013/11/27)

>  <Rbt.Parameter_File>
/export/apps/rDock/src/rDock_2013.1_src/data/scripts/dock_solv.prm

>  <Rbt.Receptor>
prm/blind_docking_60.prm

>  <SCORE>
41.5785

>  <SCORE.INTER>
-10.766

>  <SCORE.INTER.CONST>
1

>  <SCORE.INTER.POLAR>
-2.69911

>  <SCORE.INTER.ROT>
9

>  <SCORE.INTER.SOLV>
26.3235

>  <SCORE.INTER.VDW>
-16.5548

>  <SCORE.INTER.norm>
-0.256334

>  <SCORE.INTRA>
30.6557

>  <SCORE.INTRA.DIHEDRAL>
3.16677

>  <SCORE.INTRA.DIHEDRAL.0>
30.1357

>  <SCORE.INTRA.POLAR>
-0.514342

>  <SCORE.INTRA.POLAR.0>
-0.631696

>  <SCORE.INTRA.REPUL>
0

>  <SCORE.INTRA.REPUL.0>
0

>  <SCORE.INTRA.SOLV>
4.53204

>  <SCORE.INTRA.SOLV.lig_0>
-55.904

>  <SCORE.INTRA.VDW>
28.5551

>  <SCORE.INTRA.VDW.0>
-8.21197

>  <SCORE.INTRA.norm>
0.729898

>  <SCORE.RESTR>
21.6888

>  <SCORE.RESTR.CAVITY>
21.6888

>  <SCORE.RESTR.norm>
0.516401

>  <SCORE.SYSTEM>
0

>  <SCORE.SYSTEM.CONST>
0

>  <SCORE.SYSTEM.DIHEDRAL>
0

>  <SCORE.SYSTEM.SOLV>
0

>  <SCORE.SYSTEM.norm>
0

>  <SCORE.heavy>
42

>  <SCORE.norm>
0.989964

>  <RMSD>
7.499

$$$$
lig.pdb
 OpenBabel11021811453D
libRbt.so/2013.1/901 2013/11/27
 42 45  0  0  0  0  0  0  0  0999 V2000
   -0.1817    6.1383    4.2482 C   0  0  2  0  0  0  0  0  0  0  0  0
   -0.8298    5.9553    5.5084 O   0  0  0  0  0  0  0  0  0  0  0  0
   -0.8190    7.2983    3.4686 C   0  0  2  0  0  0  0  0  0  0  0  0
   -0.8274    8.5346    4.2723 N   0  0  0  0  0  0  0  0  0  0  0  0
   -2.2346    6.9351    3.0018 C   0  0  1  0  0  0  0  0  0  0  0  0
   -2.7296    7.9602    2.1618 O   0  0  0  0  0  0  0  0  0  0  0  0
   -2.2158    5.6080    2.2284 C   0  0  2  0  0  0  0  0  0  0  0  0
   -3.5441    5.2119    1.9453 O   0  0  0  0  0  0  0  0  0  0  0  0
   -1.4989    4.4992    3.0252 C   0  0  2  0  0  0  0  0  0  0  0  0
   -0.2195    4.9369    3.4820 O   0  0  0  0  0  0  0  0  0  0  0  0
   -1.3316    3.2776    2.1016 C   0  0  0  0  0  0  0  0  0  0  0  0
   -0.5376    3.5853    0.9247 O   0  0  0  0  0  0  0  0  0  0  0  0
    2.4381    4.8820    8.0968 C   0  0  2  0  0  0  0  0  0  0  0  0
    2.9924    4.3087    9.3395 N   0  0  0  0  0  0  0  0  0  0  0  0
    1.5199    6.0636    8.4193 C   0  0  0  0  0  0  0  0  0  0  0  0
    0.8343    6.5711    7.1563 C   0  0  2  0  0  0  0  0  0  0  0  0
    0.0334    7.7639    7.4587 N   0  0  0  0  0  0  0  0  0  0  0  0
   -0.0273    5.4265    6.5740 C   0  0  2  0  0  0  0  0  0  0  0  0
    0.8847    4.3361    6.1105 C   0  0  2  0  0  0  0  0  0  0  0  0
    0.0797    3.3185    5.5441 O   0  0  0  0  0  0  0  0  0  0  0  0
    1.6882    3.8094    7.2846 C   0  0  1  0  0  0  0  0  0  0  0  0
    2.6304    2.8309    6.8875 O   0  0  0  0  0  0  0  0  0  0  0  0
   -1.0268    2.8473    6.3060 C   0  0  1  0  0  0  0  0  0  0  0  0
   -2.1648    2.5329    5.3326 C   0  0  2  0  0  0  0  0  0  0  0  0
   -3.4016    2.8616    5.9366 O   0  0  0  0  0  0  0  0  0  0  0  0
   -1.9954    1.0252    5.1017 C   0  0  2  0  0  0  0  0  0  0  0  0
   -3.1886    0.4006    4.6274 O   0  0  0  0  0  0  0  0  0  0  0  0
   -1.5539    0.5896    6.5044 C   0  0  2  0  0  0  0  0  0  0  0  0
   -0.6826    1.6228    6.9421 O   0  0  0  0  0  0  0  0  0  0  0  0
   -0.8023   -0.7461    6.5450 C   0  0  0  0  0  0  0  0  0  0  0  0
   -0.3103   -1.0268    7.8382 O   0  0  0  0  0  0  0  0  0  0  0  0
   -3.5559    0.7549    3.2956 C   0  0  2  0  0  0  0  0  0  0  0  0
   -5.0802    0.8521    3.1308 C   0  0  2  0  0  0  0  0  0  0  0  0
   -5.6570    1.7867    4.1115 N   0  0  0  0  0  0  0  0  0  0  0  0
   -5.7370   -0.5336    3.2208 C   0  0  1  0  0  0  0  0  0  0  0  0
   -7.1232   -0.3930    2.9768 O   0  0  0  0  0  0  0  0  0  0  0  0
   -5.1006   -1.4435    2.1565 C   0  0  2  0  0  0  0  0  0  0  0  0
   -5.6419   -2.7499    2.2252 O   0  0  0  0  0  0  0  0  0  0  0  0
   -3.5665   -1.4869    2.3121 C   0  0  1  0  0  0  0  0  0  0  0  0
   -3.0081   -0.1719    2.3608 O   0  0  0  0  0  0  0  0  0  0  0  0
   -3.0984   -2.3529    3.4910 C   0  0  0  0  0  0  0  0  0  0  0  0
   -3.9485   -2.1508    4.6754 N   0  0  0  0  0  0  0  0  0  0  0  0
  1  3  1  0  0  0  0
  1  2  1  1  0  0  0
  3  4  1  1  0  0  0
  5  6  1  6  0  0  0
  5  3  1  0  0  0  0
  7  9  1  0  0  0  0
  7  5  1  0  0  0  0
  7  8  1  1  0  0  0
  9 10  1  0  0  0  0
  9 11  1  6  0  0  0
 10  1  1  0  0  0  0
 11 12  1  0  0  0  0
 13 14  1  1  0  0  0
 13 21  1  0  0  0  0
 15 13  1  0  0  0  0
 16 15  1  0  0  0  0
 16 18  1  0  0  0  0
 16 17  1  1  0  0  0
 18  2  1  6  0  0  0
 18 19  1  0  0  0  0
 19 21  1  0  0  0  0
 19 20  1  1  0  0  0
 21 22  1  6  0  0  0
 23 20  1  6  0  0  0
 23 29  1  0  0  0  0
 23 24  1  0  0  0  0
 24 26  1  0  0  0  0
 24 25  1  1  0  0  0
 26 27  1  1  0  0  0
 28 26  1  0  0  0  0
 28 30  1  6  0  0  0
 29 28  1  0  0  0  0
 30 31  1  0  0  0  0
 32 27  1  1  0  0  0
 32 40  1  0  0  0  0
 32 33  1  0  0  0  0
 33 35  1  0  0  0  0
 33 34  1  1  0  0  0
 35 37  1  0  0  0  0
 35 36  1  6  0  0  0
 37 38  1  1  0  0  0
 39 37  1  0  0  0  0
 39 41  1  1  0  0  0
 40 39  1  0  0  0  0
 42 41  1  0  0  0  0
M  END
>  <CHROM.1>
79.23014514,-150.57479024,-67.12546057,-158.11753439,-62.06961312,64.45591009
60.45854366,96.92815264,175.58263952,-50.30446255,144.12249218,173.03026427
62.42670677,69.49629025,-143.94229546,174.22267897,162.23653769,16.19594143
55.85952207,-179.74383583,-41.39090122,-58.70141661,-1.70649721,2.88553515
4.72539240,0.63769812,-0.79174253,-0.36270434

>  <Name>
lig.pdb

>  <RI>
0

>  <Rbt.Current_Directory>
/home/itssahil/PROJECTS/Mol_Feturizer/New_Systems/rnas/2mxs

>  <Rbt.Executable>
rbdock ($Id: //depot/dev/client3/rdock/2013.1/src/exe/rbdock.cxx#4 $)

>  <Rbt.Library>
libRbt.so (2013.1, Build901 2013/11/27)

>  <Rbt.Parameter_File>
/export/apps/rDock/src/rDock_2013.1_src/data/scripts/dock_solv.prm

>  <Rbt.Receptor>
prm/pocket_docking_7.prm

>  <SCORE>
-24.6619

>  <SCORE.INTER>
-23.1719

>  <SCORE.INTER.CONST>
1

>  <SCORE.INTER.POLAR>
-3.31375

>  <SCORE.INTER.ROT>
9

>  <SCORE.INTER.SOLV>
18.3904

>  <SCORE.INTER.VDW>
-20.1323

>  <SCORE.INTER.norm>
-0.551713

>  <SCORE.INTRA>
-1.60251

>  <SCORE.INTRA.DIHEDRAL>
-3.2115

>  <SCORE.INTRA.DIHEDRAL.0>
30.1357

>  <SCORE.INTRA.POLAR>
-1.35451

>  <SCORE.INTRA.POLAR.0>
-0.631696

>  <SCORE.INTRA.REPUL>
0

>  <SCORE.INTRA.REPUL.0>
0

>  <SCORE.INTRA.SOLV>
1.55219

>  <SCORE.INTRA.SOLV.lig_0>
-55.904

>  <SCORE.INTRA.VDW>
3.83247

>  <SCORE.INTRA.VDW.0>
-8.21197

>  <SCORE.INTRA.norm>
-0.038155

>  <SCORE.RESTR>
0.112571

>  <SCORE.RESTR.CAVITY>
0.112571

>  <SCORE.RESTR.norm>
0.00268026

>  <SCORE.SYSTEM>
0

>  <SCORE.SYSTEM.CONST>
0

>  <SCORE.SYSTEM.DIHEDRAL>
0

>  <SCORE.SYSTEM.SOLV>
0

>  <SCORE.SYSTEM.norm>
0

>  <SCORE.heavy>
42

>  <SCORE.norm>
-0.587187

>  <RMSD>
7.506

$$$$
lig.pdb
 OpenBabel11021811453D
libRbt.so/2013.1/901 2013/11/27
 42 45  0  0  0  0  0  0  0  0999 V2000
   -2.2689    4.7933    1.9740 C   0  0  2  0  0  0  0  0  0  0  0  0
   -2.1887    6.1338    1.4862 O   0  0  0  0  0  0  0  0  0  0  0  0
   -3.7029    4.4537    2.4075 C   0  0  2  0  0  0  0  0  0  0  0  0
   -4.6596    4.7036    1.3135 N   0  0  0  0  0  0  0  0  0  0  0  0
   -4.0946    5.2319    3.6703 C   0  0  1  0  0  0  0  0  0  0  0  0
   -5.3564    4.7830    4.1261 O   0  0  0  0  0  0  0  0  0  0  0  0
   -3.0484    5.0161    4.7742 C   0  0  2  0  0  0  0  0  0  0  0  0
   -3.3416    5.8623    5.8694 O   0  0  0  0  0  0  0  0  0  0  0  0
   -1.6209    5.2986    4.2636 C   0  0  2  0  0  0  0  0  0  0  0  0
   -1.3573    4.5929    3.0514 O   0  0  0  0  0  0  0  0  0  0  0  0
   -0.6260    4.8530    5.3521 C   0  0  0  0  0  0  0  0  0  0  0  0
    0.6522    5.5337    5.2377 O   0  0  0  0  0  0  0  0  0  0  0  0
    0.6805    7.8791   -1.2069 C   0  0  2  0  0  0  0  0  0  0  0  0
    2.0601    8.1335   -1.6678 N   0  0  0  0  0  0  0  0  0  0  0  0
    0.4849    8.4214    0.2111 C   0  0  0  0  0  0  0  0  0  0  0  0
   -0.8898    8.0393    0.7471 C   0  0  2  0  0  0  0  0  0  0  0  0
   -1.1060    8.6460    2.0666 N   0  0  0  0  0  0  0  0  0  0  0  0
   -0.9840    6.4965    0.7959 C   0  0  2  0  0  0  0  0  0  0  0  0
   -0.9541    5.9758   -0.6054 C   0  0  2  0  0  0  0  0  0  0  0  0
   -1.0834    4.5674   -0.5401 O   0  0  0  0  0  0  0  0  0  0  0  0
    0.3491    6.3762   -1.2708 C   0  0  1  0  0  0  0  0  0  0  0  0
    0.3959    5.9808   -2.6289 O   0  0  0  0  0  0  0  0  0  0  0  0
   -0.3336    3.7891   -1.4668 C   0  0  1  0  0  0  0  0  0  0  0  0
    0.7930    3.0995   -0.6944 C   0  0  2  0  0  0  0  0  0  0  0  0
    1.9473    3.0324   -1.5105 O   0  0  0  0  0  0  0  0  0  0  0  0
    0.1924    1.7192   -0.3958 C   0  0  2  0  0  0  0  0  0  0  0  0
    1.1857    0.7324   -0.1156 O   0  0  0  0  0  0  0  0  0  0  0  0
   -0.5986    1.4881   -1.6892 C   0  0  2  0  0  0  0  0  0  0  0  0
   -1.1549    2.7579   -1.9999 O   0  0  0  0  0  0  0  0  0  0  0  0
   -1.7333    0.4648   -1.5629 C   0  0  0  0  0  0  0  0  0  0  0  0
   -1.3122   -0.8281   -1.9426 O   0  0  0  0  0  0  0  0  0  0  0  0
    2.3582    1.2339    0.5229 C   0  0  2  0  0  0  0  0  0  0  0  0
    3.5278    0.2423    0.4284 C   0  0  2  0  0  0  0  0  0  0  0  0
    3.7962   -0.1231   -0.9725 N   0  0  0  0  0  0  0  0  0  0  0  0
    3.2724   -1.0004    1.2946 C   0  0  1  0  0  0  0  0  0  0  0  0
    4.4140   -1.8334    1.2368 O   0  0  0  0  0  0  0  0  0  0  0  0
    3.0230   -0.5417    2.7414 C   0  0  2  0  0  0  0  0  0  0  0  0
    2.7387   -1.6492    3.5764 O   0  0  0  0  0  0  0  0  0  0  0  0
    1.8772    0.4891    2.8048 C   0  0  1  0  0  0  0  0  0  0  0  0
    2.0870    1.5620    1.8837 O   0  0  0  0  0  0  0  0  0  0  0  0
    0.4843   -0.1383    2.6468 C   0  0  0  0  0  0  0  0  0  0  0  0
    0.2275   -1.1435    3.6908 N   0  0  0  0  0  0  0  0  0  0  0  0
  1  3  1  0  0  0  0
  1  2  1  1  0  0  0
  3  4  1  6  0  0  0
  5  6  1  1  0  0  0
  5  3  1  0  0  0  0
  7  9  1  0  0  0  0
  7  5  1  0  0  0  0
  7  8  1  1  0  0  0
  9 10  1  0  0  0  0
  9 11  1  1  0  0  0
 10  1  1  0  0  0  0
 11 12  1  0  0  0  0
 13 14  1  1  0  0  0
 13 21  1  0  0  0  0
 15 13  1  0  0  0  0
 16 15  1  0  0  0  0
 16 18  1  0  0  0  0
 16 17  1  1  0  0  0
 18  2  1  6  0  0  0
 18 19  1  0  0  0  0
 19 21  1  0  0  0  0
 19 20  1  1  0  0  0
 21 22  1  6  0  0  0
 23 20  1  1  0  0  0
 23 29  1  0  0  0  0
 23 24  1  0  0  0  0
 24 26  1  0  0  0  0
 24 25  1  6  0  0  0
 26 27  1  6  0  0  0
 28 26  1  0  0  0  0
 28 30  1  1  0  0  0
 29 28  1  0  0  0  0
 30 31  1  0  0  0  0
 32 27  1  1  0  0  0
 32 40  1  0  0  0  0
 32 33  1  0  0  0  0
 33 35  1  0  0  0  0
 33 34  1  6  0  0  0
 35 37  1  0  0  0  0
 35 36  1  1  0  0  0
 37 38  1  1  0  0  0
 39 37  1  0  0  0  0
 39 41  1  6  0  0  0
 40 39  1  0  0  0  0
 42 41  1  0  0  0  0
M  END
>  <CHROM.1>
-162.35301653,-167.55954564,-165.41564420,81.00422665,-46.48115137,80.35448319
-156.80826164,68.52112890,-43.05220134,-142.63667038,108.12117739,75.18147074
164.03863235,31.77617289,-163.39955433,-93.98786474,69.37882215,-94.73100815
-67.11588890,178.42647358,58.86291659,-55.91186529,-0.13045608,3.42903871
1.15379857,2.61559237,0.92133866,-0.75285108

>  <Name>
lig.pdb

>  <RI>
3.17932e+07

>  <Rbt.Current_Directory>
/home/itssahil/PROJECTS/Mol_Feturizer/New_Systems/rnas/2mxs

>  <Rbt.Executable>
rbdock ($Id: //depot/dev/client3/rdock/2013.1/src/exe/rbdock.cxx#4 $)

>  <Rbt.Library>
libRbt.so (2013.1, Build901 2013/11/27)

>  <Rbt.Parameter_File>
/export/apps/rDock/src/rDock_2013.1_src/data/scripts/dock_solv.prm

>  <Rbt.Receptor>
prm/blind_docking_100.prm

>  <SCORE>
95.7037

>  <SCORE.INTER>
54.2742

>  <SCORE.INTER.CONST>
1

>  <SCORE.INTER.POLAR>
-4.58857

>  <SCORE.INTER.ROT>
9

>  <SCORE.INTER.SOLV>
36.0193

>  <SCORE.INTER.VDW>
29.8716

>  <SCORE.INTER.norm>
1.29224

>  <SCORE.INTRA>
13.0144

>  <SCORE.INTRA.DIHEDRAL>
4.69252

>  <SCORE.INTRA.DIHEDRAL.0>
30.1357

>  <SCORE.INTRA.POLAR>
0.177703

>  <SCORE.INTRA.POLAR.0>
-0.631696

>  <SCORE.INTRA.REPUL>
0

>  <SCORE.INTRA.REPUL.0>
0

>  <SCORE.INTRA.SOLV>
-0.672104

>  <SCORE.INTRA.SOLV.lig_0>
-55.904

>  <SCORE.INTRA.VDW>
10.4

>  <SCORE.INTRA.VDW.0>
-8.21197

>  <SCORE.INTRA.norm>
0.309866

>  <SCORE.RESTR>
28.4152

>  <SCORE.RESTR.CAVITY>
28.4152

>  <SCORE.RESTR.norm>
0.676551

>  <SCORE.SYSTEM>
0

>  <SCORE.SYSTEM.CONST>
0

>  <SCORE.SYSTEM.DIHEDRAL>
0

>  <SCORE.SYSTEM.SOLV>
0

>  <SCORE.SYSTEM.norm>
0

>  <SCORE.heavy>
42

>  <SCORE.norm>
2.27866

>  <RMSD>
7.514

$$$$
lig.pdb
 OpenBabel11021811453D
libRbt.so/2013.1/901 2013/11/27
 42 45  0  0  0  0  0  0  0  0999 V2000
   -0.8554    4.7409    1.4544 C   0  0  2  0  0  0  0  0  0  0  0  0
   -0.9798    5.5546    0.2865 O   0  0  0  0  0  0  0  0  0  0  0  0
   -2.0638    3.8037    1.5996 C   0  0  2  0  0  0  0  0  0  0  0  0
   -2.2575    2.9973    0.3803 N   0  0  0  0  0  0  0  0  0  0  0  0
   -3.3331    4.5926    1.9457 C   0  0  1  0  0  0  0  0  0  0  0  0
   -4.3868    3.6897    2.2213 O   0  0  0  0  0  0  0  0  0  0  0  0
   -3.0891    5.4805    3.1753 C   0  0  2  0  0  0  0  0  0  0  0  0
   -4.2135    6.3138    3.3821 O   0  0  0  0  0  0  0  0  0  0  0  0
   -1.8229    6.3446    3.0066 C   0  0  2  0  0  0  0  0  0  0  0  0
   -0.7032    5.5490    2.6186 O   0  0  0  0  0  0  0  0  0  0  0  0
   -1.5301    7.0333    4.3532 C   0  0  0  0  0  0  0  0  0  0  0  0
   -0.9093    8.3350    4.1791 O   0  0  0  0  0  0  0  0  0  0  0  0
    1.9398    7.5698   -2.1517 C   0  0  2  0  0  0  0  0  0  0  0  0
    3.2861    8.1256   -2.3949 N   0  0  0  0  0  0  0  0  0  0  0  0
    1.2871    8.2623   -0.9528 C   0  0  0  0  0  0  0  0  0  0  0  0
   -0.0416    7.5999   -0.6082 C   0  0  2  0  0  0  0  0  0  0  0  0
   -0.7058    8.3309    0.4783 N   0  0  0  0  0  0  0  0  0  0  0  0
    0.2304    6.1246   -0.2328 C   0  0  2  0  0  0  0  0  0  0  0  0
    0.7181    5.4082   -1.4512 C   0  0  2  0  0  0  0  0  0  0  0  0
    0.9207    4.0526   -1.0966 O   0  0  0  0  0  0  0  0  0  0  0  0
    2.0059    6.0461   -1.9369 C   0  0  1  0  0  0  0  0  0  0  0  0
    2.4689    5.4599   -3.1390 O   0  0  0  0  0  0  0  0  0  0  0  0
    2.0062    3.7500   -0.2266 C   0  0  1  0  0  0  0  0  0  0  0  0
    1.8069    2.3239    0.2911 C   0  0  2  0  0  0  0  0  0  0  0  0
    2.2526    2.2461    1.6320 O   0  0  0  0  0  0  0  0  0  0  0  0
    2.6696    1.4986   -0.6732 C   0  0  2  0  0  0  0  0  0  0  0  0
    3.0392    0.2284   -0.1359 O   0  0  0  0  0  0  0  0  0  0  0  0
    3.8354    2.4720   -0.8864 C   0  0  2  0  0  0  0  0  0  0  0  0
    3.2233    3.7518   -0.9620 O   0  0  0  0  0  0  0  0  0  0  0  0
    4.6378    2.2272   -2.1696 C   0  0  0  0  0  0  0  0  0  0  0  0
    5.1753    0.9222   -2.2059 O   0  0  0  0  0  0  0  0  0  0  0  0
    2.0505   -0.7891   -0.2814 C   0  0  2  0  0  0  0  0  0  0  0  0
    0.6413   -0.1973   -0.4370 C   0  0  2  0  0  0  0  0  0  0  0  0
    0.5929    0.7595   -1.5552 N   0  0  0  0  0  0  0  0  0  0  0  0
    0.1617    0.4446    0.8735 C   0  0  1  0  0  0  0  0  0  0  0  0
   -1.1680    0.8933    0.6964 O   0  0  0  0  0  0  0  0  0  0  0  0
    0.2198   -0.6172    1.9849 C   0  0  2  0  0  0  0  0  0  0  0  0
   -0.1726   -0.0641    3.2277 O   0  0  0  0  0  0  0  0  0  0  0  0
    1.6311   -1.2311    2.0897 C   0  0  1  0  0  0  0  0  0  0  0  0
    2.0960   -1.6939    0.8197 O   0  0  0  0  0  0  0  0  0  0  0  0
    2.6491   -0.3041    2.7702 C   0  0  0  0  0  0  0  0  0  0  0  0
    2.2438    0.0178    4.1481 N   0  0  0  0  0  0  0  0  0  0  0  0
  1  3  1  0  0  0  0
  1  2  1  6  0  0  0
  3  4  1  6  0  0  0
  5  6  1  1  0  0  0
  5  3  1  0  0  0  0
  7  9  1  0  0  0  0
  7  5  1  0  0  0  0
  7  8  1  6  0  0  0
  9 10  1  0  0  0  0
  9 11  1  1  0  0  0
 10  1  1  0  0  0  0
 11 12  1  0  0  0  0
 13 14  1  1  0  0  0
 13 21  1  0  0  0  0
 15 13  1  0  0  0  0
 16 15  1  0  0  0  0
 16 18  1  0  0  0  0
 16 17  1  1  0  0  0
 18  2  1  6  0  0  0
 18 19  1  0  0  0  0
 19 21  1  0  0  0  0
 19 20  1  1  0  0  0
 21 22  1  6  0  0  0
 23 20  1  6  0  0  0
 23 29  1  0  0  0  0
 23 24  1  0  0  0  0
 24 26  1  0  0  0  0
 24 25  1  1  0  0  0
 26 27  1  1  0  0  0
 28 26  1  0  0  0  0
 28 30  1  6  0  0  0
 29 28  1  0  0  0  0
 30 31  1  0  0  0  0
 32 27  1  1  0  0  0
 32 40  1  0  0  0  0
 32 33  1  0  0  0  0
 33 35  1  0  0  0  0
 33 34  1  6  0  0  0
 35 37  1  0  0  0  0
 35 36  1  6  0  0  0
 37 38  1  1  0  0  0
 39 37  1  0  0  0  0
 39 41  1  6  0  0  0
 40 39  1  0  0  0  0
 42 41  1  0  0  0  0
M  END
>  <CHROM.1>
-136.46490654,-159.10943878,64.73112429,-160.72053453,-55.66702349,-51.35928383
-148.28718079,-174.78832371,-126.97730717,-70.05591123,165.60132968,77.65395893
85.43054927,82.90913819,-23.65125851,-58.23707280,52.60752130,-107.24616136
69.51201993,69.38190552,60.60074794,-36.37288555,0.59476795,3.52897073,0.58918724
2.25226137,0.70634527,-0.30267314

>  <Name>
lig.pdb

>  <RI>
0

>  <Rbt.Current_Directory>
/home/itssahil/PROJECTS/Mol_Feturizer/New_Systems/rnas/2mxs

>  <Rbt.Executable>
rbdock ($Id: //depot/dev/client3/rdock/2013.1/src/exe/rbdock.cxx#4 $)

>  <Rbt.Library>
libRbt.so (2013.1, Build901 2013/11/27)

>  <Rbt.Parameter_File>
/export/apps/rDock/src/rDock_2013.1_src/data/scripts/dock_solv.prm

>  <Rbt.Receptor>
prm/blind_docking_60.prm

>  <SCORE>
32.5843

>  <SCORE.INTER>
-13.4771

>  <SCORE.INTER.CONST>
1

>  <SCORE.INTER.POLAR>
-4.40644

>  <SCORE.INTER.ROT>
9

>  <SCORE.INTER.SOLV>
30.9235

>  <SCORE.INTER.VDW>
-14.2044

>  <SCORE.INTER.norm>
-0.320883

>  <SCORE.INTRA>
28.3715

>  <SCORE.INTRA.DIHEDRAL>
5.10504

>  <SCORE.INTRA.DIHEDRAL.0>
30.1357

>  <SCORE.INTRA.POLAR>
-1.15886

>  <SCORE.INTRA.POLAR.0>
-0.631696

>  <SCORE.INTRA.REPUL>
0.00109985

>  <SCORE.INTRA.REPUL.0>
0

>  <SCORE.INTRA.SOLV>
4.72786

>  <SCORE.INTRA.SOLV.lig_0>
-55.904

>  <SCORE.INTRA.VDW>
27.3897

>  <SCORE.INTRA.VDW.0>
-8.21197

>  <SCORE.INTRA.norm>
0.675512

>  <SCORE.RESTR>
17.6899

>  <SCORE.RESTR.CAVITY>
17.6899

>  <SCORE.RESTR.norm>
0.421188

>  <SCORE.SYSTEM>
0

>  <SCORE.SYSTEM.CONST>
0

>  <SCORE.SYSTEM.DIHEDRAL>
0

>  <SCORE.SYSTEM.SOLV>
0

>  <SCORE.SYSTEM.norm>
0

>  <SCORE.heavy>
42

>  <SCORE.norm>
0.775817

>  <RMSD>
7.524

$$$$
lig.pdb
 OpenBabel11021811453D
libRbt.so/2013.1/901 2013/11/27
 42 45  0  0  0  0  0  0  0  0999 V2000
   -1.4317    1.9087    5.5243 C   0  0  2  0  0  0  0  0  0  0  0  0
   -0.9515    0.9108    4.6214 O   0  0  0  0  0  0  0  0  0  0  0  0
   -0.4361    3.0735    5.6322 C   0  0  2  0  0  0  0  0  0  0  0  0
   -0.1281    3.6312    4.3024 N   0  0  0  0  0  0  0  0  0  0  0  0
    0.8440    2.6374    6.3567 C   0  0  1  0  0  0  0  0  0  0  0  0
    1.6690    3.7662    6.5728 O   0  0  0  0  0  0  0  0  0  0  0  0
    0.4978    1.9939    7.7079 C   0  0  2  0  0  0  0  0  0  0  0  0
    1.6725    1.4581    8.2862 O   0  0  0  0  0  0  0  0  0  0  0  0
   -0.5603    0.8830    7.5506 C   0  0  2  0  0  0  0  0  0  0  0  0
   -1.6881    1.3459    6.8085 O   0  0  0  0  0  0  0  0  0  0  0  0
   -1.0077    0.4450    8.9582 C   0  0  0  0  0  0  0  0  0  0  0  0
    0.0990   -0.0597    9.7524 O   0  0  0  0  0  0  0  0  0  0  0  0
   -2.9880   -2.4739    2.9104 C   0  0  2  0  0  0  0  0  0  0  0  0
   -3.8928   -3.6379    2.9917 N   0  0  0  0  0  0  0  0  0  0  0  0
   -1.8030   -2.6537    3.8626 C   0  0  0  0  0  0  0  0  0  0  0  0
   -0.9404   -1.3975    3.8894 C   0  0  2  0  0  0  0  0  0  0  0  0
    0.2451   -1.6145    4.7280 N   0  0  0  0  0  0  0  0  0  0  0  0
   -1.8049   -0.2216    4.4006 C   0  0  2  0  0  0  0  0  0  0  0  0
   -2.8692    0.0585    3.3885 C   0  0  2  0  0  0  0  0  0  0  0  0
   -3.6218    1.1631    3.8554 O   0  0  0  0  0  0  0  0  0  0  0  0
   -3.7452   -1.1680    3.2164 C   0  0  1  0  0  0  0  0  0  0  0  0
   -4.7203   -0.9872    2.2067 O   0  0  0  0  0  0  0  0  0  0  0  0
   -4.1168    2.0841    2.8892 C   0  0  1  0  0  0  0  0  0  0  0  0
   -3.0799    3.1981    2.7308 C   0  0  2  0  0  0  0  0  0  0  0  0
   -3.7442    4.4282    2.5113 O   0  0  0  0  0  0  0  0  0  0  0  0
   -2.2743    2.7291    1.5117 C   0  0  2  0  0  0  0  0  0  0  0  0
   -1.5720    3.7936    0.8697 O   0  0  0  0  0  0  0  0  0  0  0  0
   -3.3973    2.1020    0.6764 C   0  0  2  0  0  0  0  0  0  0  0  0
   -4.2223    1.4407    1.6254 O   0  0  0  0  0  0  0  0  0  0  0  0
   -2.9187    1.0822   -0.3635 C   0  0  0  0  0  0  0  0  0  0  0  0
   -2.3499   -0.0562    0.2479 O   0  0  0  0  0  0  0  0  0  0  0  0
   -0.5288    4.3736    1.6505 C   0  0  2  0  0  0  0  0  0  0  0  0
   -0.3924    5.8815    1.3905 C   0  0  2  0  0  0  0  0  0  0  0  0
   -1.6739    6.5719    1.6126 N   0  0  0  0  0  0  0  0  0  0  0  0
    0.1563    6.1539   -0.0182 C   0  0  1  0  0  0  0  0  0  0  0  0
    0.3414    7.5480   -0.1689 O   0  0  0  0  0  0  0  0  0  0  0  0
    1.5004    5.4210   -0.1665 C   0  0  2  0  0  0  0  0  0  0  0  0
    2.0306    5.6045   -1.4665 O   0  0  0  0  0  0  0  0  0  0  0  0
    1.3482    3.9182    0.1463 C   0  0  1  0  0  0  0  0  0  0  0  0
    0.7087    3.7084    1.4074 O   0  0  0  0  0  0  0  0  0  0  0  0
    0.6671    3.1277   -0.9808 C   0  0  0  0  0  0  0  0  0  0  0  0
    1.5698    2.9452   -2.1289 N   0  0  0  0  0  0  0  0  0  0  0  0
  1  3  1  0  0  0  0
  1  2  1  6  0  0  0
  3  4  1  6  0  0  0
  5  6  1  1  0  0  0
  5  3  1  0  0  0  0
  7  9  1  0  0  0  0
  7  5  1  0  0  0  0
  7  8  1  6  0  0  0
  9 10  1  0  0  0  0
  9 11  1  1  0  0  0
 10  1  1  0  0  0  0
 11 12  1  0  0  0  0
 13 14  1  1  0  0  0
 13 21  1  0  0  0  0
 15 13  1  0  0  0  0
 16 15  1  0  0  0  0
 16 18  1  0  0  0  0
 16 17  1  1  0  0  0
 18  2  1  6  0  0  0
 18 19  1  0  0  0  0
 19 21  1  0  0  0  0
 19 20  1  1  0  0  0
 21 22  1  6  0  0  0
 23 20  1  1  0  0  0
 23 29  1  0  0  0  0
 23 24  1  0  0  0  0
 24 26  1  0  0  0  0
 24 25  1  6  0  0  0
 26 27  1  6  0  0  0
 28 26  1  0  0  0  0
 28 30  1  6  0  0  0
 29 28  1  0  0  0  0
 30 31  1  0  0  0  0
 32 27  1  6  0  0  0
 32 40  1  0  0  0  0
 32 33  1  0  0  0  0
 33 35  1  0  0  0  0
 33 34  1  6  0  0  0
 35 37  1  0  0  0  0
 35 36  1  1  0  0  0
 37 38  1  6  0  0  0
 39 37  1  0  0  0  0
 39 41  1  6  0  0  0
 40 39  1  0  0  0  0
 42 41  1  0  0  0  0
M  END
>  <CHROM.1>
-157.90044588,-178.43407664,-163.05628719,56.15770366,74.11421141,-177.44777870
-59.60854963,177.25860921,-58.07112614,144.59776069,-92.12832320,77.76816760
-27.90662110,66.30776707,-145.65029024,65.34332753,-62.69287456,102.25796287
61.17922784,69.23096777,73.53491860,-56.11854401,-1.15821786,2.04095992,3.12564019
-1.83425439,-0.90690809,-1.08668361

>  <Name>
lig.pdb

>  <RI>
3.99633e+07

>  <Rbt.Current_Directory>
/home/itssahil/PROJECTS/Mol_Feturizer/New_Systems/rnas/2mxs

>  <Rbt.Executable>
rbdock ($Id: //depot/dev/client3/rdock/2013.1/src/exe/rbdock.cxx#4 $)

>  <Rbt.Library>
libRbt.so (2013.1, Build901 2013/11/27)

>  <Rbt.Parameter_File>
/export/apps/rDock/src/rDock_2013.1_src/data/scripts/dock_solv.prm

>  <Rbt.Receptor>
prm/pocket_docking_5.prm

>  <SCORE>
-34.2332

>  <SCORE.INTER>
-34.5568

>  <SCORE.INTER.CONST>
1

>  <SCORE.INTER.POLAR>
-4.44891

>  <SCORE.INTER.ROT>
9

>  <SCORE.INTER.SOLV>
16.8767

>  <SCORE.INTER.VDW>
-23.4337

>  <SCORE.INTER.norm>
-0.82278

>  <SCORE.INTRA>
0.323589

>  <SCORE.INTRA.DIHEDRAL>
-3.07568

>  <SCORE.INTRA.DIHEDRAL.0>
30.1357

>  <SCORE.INTRA.POLAR>
-0.987816

>  <SCORE.INTRA.POLAR.0>
-0.631696

>  <SCORE.INTRA.REPUL>
0.333772

>  <SCORE.INTRA.REPUL.0>
0

>  <SCORE.INTRA.SOLV>
3.21885

>  <SCORE.INTRA.SOLV.lig_0>
-55.904

>  <SCORE.INTRA.VDW>
1.94172

>  <SCORE.INTRA.VDW.0>
-8.21197

>  <SCORE.INTRA.norm>
0.00770451

>  <SCORE.RESTR>
0

>  <SCORE.RESTR.CAVITY>
0

>  <SCORE.RESTR.norm>
0

>  <SCORE.SYSTEM>
0

>  <SCORE.SYSTEM.CONST>
0

>  <SCORE.SYSTEM.DIHEDRAL>
0

>  <SCORE.SYSTEM.SOLV>
0

>  <SCORE.SYSTEM.norm>
0

>  <SCORE.heavy>
42

>  <SCORE.norm>
-0.815075

>  <RMSD>
7.530

$$$$
lig.pdb
 OpenBabel11021811453D
libRbt.so/2013.1/901 2013/11/27
 42 45  0  0  0  0  0  0  0  0999 V2000
   -2.7350    5.2393    1.1029 C   0  0  2  0  0  0  0  0  0  0  0  0
   -1.4309    5.3443    1.6771 O   0  0  0  0  0  0  0  0  0  0  0  0
   -3.8189    5.3193    2.1884 C   0  0  2  0  0  0  0  0  0  0  0  0
   -3.6669    6.5418    2.9988 N   0  0  0  0  0  0  0  0  0  0  0  0
   -3.8043    4.0663    3.0734 C   0  0  1  0  0  0  0  0  0  0  0  0
   -4.9069    4.1040    3.9591 O   0  0  0  0  0  0  0  0  0  0  0  0
   -3.8911    2.8013    2.2063 C   0  0  2  0  0  0  0  0  0  0  0  0
   -3.7171    1.6600    3.0240 O   0  0  0  0  0  0  0  0  0  0  0  0
   -2.8297    2.8087    1.0875 C   0  0  2  0  0  0  0  0  0  0  0  0
   -2.8612    4.0328    0.3544 O   0  0  0  0  0  0  0  0  0  0  0  0
   -3.1223    1.6282    0.1419 C   0  0  0  0  0  0  0  0  0  0  0  0
   -3.4134    0.4040    0.8678 O   0  0  0  0  0  0  0  0  0  0  0  0
    0.6190    7.7505   -1.2451 C   0  0  2  0  0  0  0  0  0  0  0  0
    1.8326    8.3666   -1.8177 N   0  0  0  0  0  0  0  0  0  0  0  0
    0.3906    8.2522    0.1829 C   0  0  0  0  0  0  0  0  0  0  0  0
   -0.7768    7.5167    0.8302 C   0  0  2  0  0  0  0  0  0  0  0  0
   -1.0504    8.0721    2.1615 N   0  0  0  0  0  0  0  0  0  0  0  0
   -0.4327    6.0102    0.8900 C   0  0  2  0  0  0  0  0  0  0  0  0
   -0.3678    5.4836   -0.5079 C   0  0  2  0  0  0  0  0  0  0  0  0
   -0.0935    4.0968   -0.4291 O   0  0  0  0  0  0  0  0  0  0  0  0
    0.7161    6.2136   -1.2783 C   0  0  1  0  0  0  0  0  0  0  0  0
    0.7656    5.8130   -2.6348 O   0  0  0  0  0  0  0  0  0  0  0  0
    0.4342    3.4584   -1.5870 C   0  0  1  0  0  0  0  0  0  0  0  0
    1.5536    2.5189   -1.1337 C   0  0  2  0  0  0  0  0  0  0  0  0
    2.5812    2.5112   -2.1068 O   0  0  0  0  0  0  0  0  0  0  0  0
    0.8286    1.1710   -1.0209 C   0  0  2  0  0  0  0  0  0  0  0  0
    1.7192    0.0567   -1.0829 O   0  0  0  0  0  0  0  0  0  0  0  0
   -0.1385    1.2895   -2.2053 C   0  0  2  0  0  0  0  0  0  0  0  0
   -0.5677    2.6437   -2.1824 O   0  0  0  0  0  0  0  0  0  0  0  0
   -1.3665    0.3763   -2.1136 C   0  0  0  0  0  0  0  0  0  0  0  0
   -2.5534    1.0662   -2.4432 O   0  0  0  0  0  0  0  0  0  0  0  0
    1.5569   -0.8932   -0.0315 C   0  0  2  0  0  0  0  0  0  0  0  0
    1.1202   -0.2235    1.2803 C   0  0  2  0  0  0  0  0  0  0  0  0
   -0.1037    0.5711    1.0835 N   0  0  0  0  0  0  0  0  0  0  0  0
    2.2538    0.6273    1.8725 C   0  0  1  0  0  0  0  0  0  0  0  0
    1.8258    1.1468    3.1166 O   0  0  0  0  0  0  0  0  0  0  0  0
    3.4856   -0.2726    2.0688 C   0  0  2  0  0  0  0  0  0  0  0  0
    4.5769    0.4745    2.5742 O   0  0  0  0  0  0  0  0  0  0  0  0
    3.8756   -0.9713    0.7500 C   0  0  1  0  0  0  0  0  0  0  0  0
    2.7571   -1.6386    0.1608 O   0  0  0  0  0  0  0  0  0  0  0  0
    4.5785   -0.0393   -0.2480 C   0  0  0  0  0  0  0  0  0  0  0  0
    6.0426   -0.1464   -0.1419 N   0  0  0  0  0  0  0  0  0  0  0  0
  1  3  1  0  0  0  0
  1  2  1  1  0  0  0
  3  4  1  1  0  0  0
  5  6  1  1  0  0  0
  5  3  1  0  0  0  0
  7  9  1  0  0  0  0
  7  5  1  0  0  0  0
  7  8  1  1  0  0  0
  9 10  1  0  0  0  0
  9 11  1  6  0  0  0
 10  1  1  0  0  0  0
 11 12  1  0  0  0  0
 13 14  1  1  0  0  0
 13 21  1  0  0  0  0
 15 13  1  0  0  0  0
 16 15  1  0  0  0  0
 16 18  1  0  0  0  0
 16 17  1  1  0  0  0
 18  2  1  1  0  0  0
 18 19  1  0  0  0  0
 19 21  1  0  0  0  0
 19 20  1  1  0  0  0
 21 22  1  6  0  0  0
 23 20  1  1  0  0  0
 23 29  1  0  0  0  0
 23 24  1  0  0  0  0
 24 26  1  0  0  0  0
 24 25  1  6  0  0  0
 26 27  1  6  0  0  0
 28 26  1  0  0  0  0
 28 30  1  1  0  0  0
 29 28  1  0  0  0  0
 30 31  1  0  0  0  0
 32 27  1  6  0  0  0
 32 40  1  0  0  0  0
 32 33  1  0  0  0  0
 33 35  1  0  0  0  0
 33 34  1  6  0  0  0
 35 37  1  0  0  0  0
 35 36  1  1  0  0  0
 37 38  1  6  0  0  0
 39 37  1  0  0  0  0
 39 41  1  6  0  0  0
 40 39  1  0  0  0  0
 42 41  1  0  0  0  0
M  END
>  <CHROM.1>
69.99381651,-146.26547614,-172.41228713,71.92854477,53.07007004,-52.05147534
-45.07071693,84.34973971,57.90136205,-160.23764262,137.11070087,62.92426720
-66.22064269,129.35808252,-32.79913673,134.74742385,53.29608705,146.55898914
63.68967083,137.35420244,95.25950320,-130.01533483,-0.09805350,2.97657716
0.38383848,2.38343320,0.41903787,-0.22150561

>  <Name>
lig.pdb

>  <RI>
0

>  <Rbt.Current_Directory>
/home/itssahil/PROJECTS/Mol_Feturizer/New_Systems/rnas/2mxs

>  <Rbt.Executable>
rbdock ($Id: //depot/dev/client3/rdock/2013.1/src/exe/rbdock.cxx#4 $)

>  <Rbt.Library>
libRbt.so (2013.1, Build901 2013/11/27)

>  <Rbt.Parameter_File>
/export/apps/rDock/src/rDock_2013.1_src/data/scripts/dock_solv.prm

>  <Rbt.Receptor>
prm/blind_docking_60.prm

>  <SCORE>
108.652

>  <SCORE.INTER>
46.8983

>  <SCORE.INTER.CONST>
1

>  <SCORE.INTER.POLAR>
-2.80991

>  <SCORE.INTER.ROT>
9

>  <SCORE.INTER.SOLV>
33.6673

>  <SCORE.INTER.VDW>
19.8095

>  <SCORE.INTER.norm>
1.11663

>  <SCORE.INTRA>
35.7456

>  <SCORE.INTRA.DIHEDRAL>
15.3412

>  <SCORE.INTRA.DIHEDRAL.0>
30.1357

>  <SCORE.INTRA.POLAR>
0.624601

>  <SCORE.INTRA.POLAR.0>
-0.631696

>  <SCORE.INTRA.REPUL>
0

>  <SCORE.INTRA.REPUL.0>
0

>  <SCORE.INTRA.SOLV>
3.19522

>  <SCORE.INTRA.SOLV.lig_0>
-55.904

>  <SCORE.INTRA.VDW>
24.3538

>  <SCORE.INTRA.VDW.0>
-8.21197

>  <SCORE.INTRA.norm>
0.851087

>  <SCORE.RESTR>
26.0083

>  <SCORE.RESTR.CAVITY>
26.0083

>  <SCORE.RESTR.norm>
0.619244

>  <SCORE.SYSTEM>
0

>  <SCORE.SYSTEM.CONST>
0

>  <SCORE.SYSTEM.DIHEDRAL>
0

>  <SCORE.SYSTEM.SOLV>
0

>  <SCORE.SYSTEM.norm>
0

>  <SCORE.heavy>
42

>  <SCORE.norm>
2.58696

>  <RMSD>
7.533

$$$$
lig.pdb
 OpenBabel11021811453D
libRbt.so/2013.1/901 2013/11/27
 42 45  0  0  0  0  0  0  0  0999 V2000
   -1.8909    4.5152    1.9831 C   0  0  2  0  0  0  0  0  0  0  0  0
   -1.9221    5.7832    1.3254 O   0  0  0  0  0  0  0  0  0  0  0  0
   -3.3084    4.0598    2.3611 C   0  0  2  0  0  0  0  0  0  0  0  0
   -4.1934    4.0508    1.1816 N   0  0  0  0  0  0  0  0  0  0  0  0
   -3.8883    4.9370    3.4781 C   0  0  1  0  0  0  0  0  0  0  0  0
   -5.1249    4.3979    3.9045 O   0  0  0  0  0  0  0  0  0  0  0  0
   -2.9194    4.9919    4.6689 C   0  0  2  0  0  0  0  0  0  0  0  0
   -3.3956    5.9270    5.6177 O   0  0  0  0  0  0  0  0  0  0  0  0
   -1.4955    5.3806    4.2219 C   0  0  2  0  0  0  0  0  0  0  0  0
   -1.0548    4.5654    3.1365 O   0  0  0  0  0  0  0  0  0  0  0  0
   -0.5501    5.2009    5.4249 C   0  0  0  0  0  0  0  0  0  0  0  0
    0.7063    5.9075    5.2445 O   0  0  0  0  0  0  0  0  0  0  0  0
    0.9668    7.6024   -1.2967 C   0  0  2  0  0  0  0  0  0  0  0  0
    2.3480    7.9516   -1.6849 N   0  0  0  0  0  0  0  0  0  0  0  0
    0.6247    8.2175    0.0626 C   0  0  0  0  0  0  0  0  0  0  0  0
   -0.7458    7.7469    0.5351 C   0  0  2  0  0  0  0  0  0  0  0  0
   -1.1070    8.4175    1.7904 N   0  0  0  0  0  0  0  0  0  0  0  0
   -0.7080    6.2087    0.6897 C   0  0  2  0  0  0  0  0  0  0  0  0
   -0.5335    5.6008   -0.6652 C   0  0  2  0  0  0  0  0  0  0  0  0
   -0.5435    4.1940   -0.5062 O   0  0  0  0  0  0  0  0  0  0  0  0
    0.7734    6.0745   -1.2725 C   0  0  1  0  0  0  0  0  0  0  0  0
    0.9506    5.5955   -2.5924 O   0  0  0  0  0  0  0  0  0  0  0  0
   -0.2602    3.3955   -1.6502 C   0  0  1  0  0  0  0  0  0  0  0  0
    1.0339    2.6267   -1.3750 C   0  0  2  0  0  0  0  0  0  0  0  0
    1.7751    2.5130   -2.5752 O   0  0  0  0  0  0  0  0  0  0  0  0
    0.5140    1.2761   -0.8645 C   0  0  2  0  0  0  0  0  0  0  0  0
    1.4766    0.2291   -0.9906 O   0  0  0  0  0  0  0  0  0  0  0  0
   -0.7291    1.1184   -1.7489 C   0  0  2  0  0  0  0  0  0  0  0  0
   -1.2846    2.4241   -1.8210 O   0  0  0  0  0  0  0  0  0  0  0  0
   -1.7856    0.1580   -1.1904 C   0  0  0  0  0  0  0  0  0  0  0  0
   -3.0344    0.3324   -1.8252 O   0  0  0  0  0  0  0  0  0  0  0  0
    1.3114   -0.8447   -0.0667 C   0  0  2  0  0  0  0  0  0  0  0  0
    0.9245   -0.3398    1.3317 C   0  0  2  0  0  0  0  0  0  0  0  0
   -0.2804    0.5044    1.2717 N   0  0  0  0  0  0  0  0  0  0  0  0
    2.0954    0.3979    1.9984 C   0  0  1  0  0  0  0  0  0  0  0  0
    1.7113    0.7623    3.3100 O   0  0  0  0  0  0  0  0  0  0  0  0
    3.3051   -0.5510    2.0441 C   0  0  2  0  0  0  0  0  0  0  0  0
    4.4287    0.0964    2.6124 O   0  0  0  0  0  0  0  0  0  0  0  0
    3.6443   -1.0824    0.6363 C   0  0  1  0  0  0  0  0  0  0  0  0
    2.4939   -1.6390   -0.0041 O   0  0  0  0  0  0  0  0  0  0  0  0
    4.3504   -0.0470   -0.2515 C   0  0  0  0  0  0  0  0  0  0  0  0
    5.7881   -0.3375   -0.3744 N   0  0  0  0  0  0  0  0  0  0  0  0
  1  3  1  0  0  0  0
  1  2  1  1  0  0  0
  3  4  1  6  0  0  0
  5  6  1  1  0  0  0
  5  3  1  0  0  0  0
  7  9  1  0  0  0  0
  7  5  1  0  0  0  0
  7  8  1  1  0  0  0
  9 10  1  0  0  0  0
  9 11  1  1  0  0  0
 10  1  1  0  0  0  0
 11 12  1  0  0  0  0
 13 14  1  1  0  0  0
 13 21  1  0  0  0  0
 15 13  1  0  0  0  0
 16 15  1  0  0  0  0
 16 18  1  0  0  0  0
 16 17  1  1  0  0  0
 18  2  1  6  0  0  0
 18 19  1  0  0  0  0
 19 21  1  0  0  0  0
 19 20  1  1  0  0  0
 21 22  1  6  0  0  0
 23 20  1  1  0  0  0
 23 29  1  0  0  0  0
 23 24  1  0  0  0  0
 24 26  1  0  0  0  0
 24 25  1  6  0  0  0
 26 27  1  6  0  0  0
 28 26  1  0  0  0  0
 28 30  1  1  0  0  0
 29 28  1  0  0  0  0
 30 31  1  0  0  0  0
 32 27  1  6  0  0  0
 32 40  1  0  0  0  0
 32 33  1  0  0  0  0
 33 35  1  0  0  0  0
 33 34  1  6  0  0  0
 35 37  1  0  0  0  0
 35 36  1  1  0  0  0
 37 38  1  6  0  0  0
 39 37  1  0  0  0  0
 39 41  1  6  0  0  0
 40 39  1  0  0  0  0
 42 41  1  0  0  0  0
M  END
>  <CHROM.1>
-158.16803818,-168.33614456,-54.14425980,-57.70123438,81.42698109,-64.36465108
-162.57669083,65.02677398,84.13984333,-173.94130395,116.13518277,136.47827034
-52.75126923,154.42141668,-40.05588012,163.40909583,-15.74339492,-168.38871815
-73.11352544,44.18627776,104.53366138,-96.56642323,0.01170236,3.29709207
0.86813601,2.67790701,0.89058748,-0.59916735

>  <Name>
lig.pdb

>  <RI>
0

>  <Rbt.Current_Directory>
/home/itssahil/PROJECTS/Mol_Feturizer/New_Systems/rnas/2mxs

>  <Rbt.Executable>
rbdock ($Id: //depot/dev/client3/rdock/2013.1/src/exe/rbdock.cxx#4 $)

>  <Rbt.Library>
libRbt.so (2013.1, Build901 2013/11/27)

>  <Rbt.Parameter_File>
/export/apps/rDock/src/rDock_2013.1_src/data/scripts/dock_solv.prm

>  <Rbt.Receptor>
prm/blind_docking_20.prm

>  <SCORE>
37.3553

>  <SCORE.INTER>
-4.82576

>  <SCORE.INTER.CONST>
1

>  <SCORE.INTER.POLAR>
-4.69891

>  <SCORE.INTER.ROT>
9

>  <SCORE.INTER.SOLV>
33.5166

>  <SCORE.INTER.VDW>
-8.32632

>  <SCORE.INTER.norm>
-0.114899

>  <SCORE.INTRA>
27.1381

>  <SCORE.INTRA.DIHEDRAL>
11.4845

>  <SCORE.INTRA.DIHEDRAL.0>
30.1357

>  <SCORE.INTRA.POLAR>
0.0815165

>  <SCORE.INTRA.POLAR.0>
-0.631696

>  <SCORE.INTRA.REPUL>
0

>  <SCORE.INTRA.REPUL.0>
0

>  <SCORE.INTRA.SOLV>
-0.899177

>  <SCORE.INTRA.SOLV.lig_0>
-55.904

>  <SCORE.INTRA.VDW>
21.5683

>  <SCORE.INTRA.VDW.0>
-8.21197

>  <SCORE.INTRA.norm>
0.646146

>  <SCORE.RESTR>
15.0429

>  <SCORE.RESTR.CAVITY>
15.0429

>  <SCORE.RESTR.norm>
0.358164

>  <SCORE.SYSTEM>
0

>  <SCORE.SYSTEM.CONST>
0

>  <SCORE.SYSTEM.DIHEDRAL>
0

>  <SCORE.SYSTEM.SOLV>
0

>  <SCORE.SYSTEM.norm>
0

>  <SCORE.heavy>
42

>  <SCORE.norm>
0.889411

>  <RMSD>
7.541

$$$$
lig.pdb
 OpenBabel11021811453D
libRbt.so/2013.1/901 2013/11/27
 42 45  0  0  0  0  0  0  0  0999 V2000
   -1.9969    4.7119    2.0113 C   0  0  2  0  0  0  0  0  0  0  0  0
   -1.9257    6.0183    1.4371 O   0  0  0  0  0  0  0  0  0  0  0  0
   -3.4565    4.3016    2.2583 C   0  0  2  0  0  0  0  0  0  0  0  0
   -4.2524    4.4077    1.0215 N   0  0  0  0  0  0  0  0  0  0  0  0
   -4.0783    5.1343    3.3867 C   0  0  1  0  0  0  0  0  0  0  0  0
   -5.3647    4.6291    3.6892 O   0  0  0  0  0  0  0  0  0  0  0  0
   -3.1975    5.0693    4.6436 C   0  0  2  0  0  0  0  0  0  0  0  0
   -3.7014    5.9653    5.6156 O   0  0  0  0  0  0  0  0  0  0  0  0
   -1.7295    5.4171    4.3240 C   0  0  2  0  0  0  0  0  0  0  0  0
   -1.2459    4.6508    3.2213 O   0  0  0  0  0  0  0  0  0  0  0  0
   -0.8831    5.1186    5.5761 C   0  0  0  0  0  0  0  0  0  0  0  0
    0.4652    5.6479    5.4649 O   0  0  0  0  0  0  0  0  0  0  0  0
    0.8637    7.5732   -1.4495 C   0  0  2  0  0  0  0  0  0  0  0  0
    2.2287    7.7866   -1.9705 N   0  0  0  0  0  0  0  0  0  0  0  0
    0.7204    8.2005   -0.0606 C   0  0  0  0  0  0  0  0  0  0  0  0
   -0.6381    7.8641    0.5429 C   0  0  2  0  0  0  0  0  0  0  0  0
   -0.8048    8.5499    1.8304 N   0  0  0  0  0  0  0  0  0  0  0  0
   -0.7424    6.3278    0.6866 C   0  0  2  0  0  0  0  0  0  0  0  0
   -0.7639    5.7248   -0.6814 C   0  0  2  0  0  0  0  0  0  0  0  0
   -0.9016    4.3240   -0.5280 O   0  0  0  0  0  0  0  0  0  0  0  0
    0.5189    6.0725   -1.4126 C   0  0  1  0  0  0  0  0  0  0  0  0
    0.5166    5.5968   -2.7455 O   0  0  0  0  0  0  0  0  0  0  0  0
   -0.5242    3.4968   -1.6235 C   0  0  1  0  0  0  0  0  0  0  0  0
    0.8213    2.8534   -1.2816 C   0  0  2  0  0  0  0  0  0  0  0  0
    1.6000    2.7432   -2.4582 O   0  0  0  0  0  0  0  0  0  0  0  0
    0.4015    1.4907   -0.7142 C   0  0  2  0  0  0  0  0  0  0  0  0
    1.4501    0.5229   -0.7661 O   0  0  0  0  0  0  0  0  0  0  0  0
   -0.8012    1.1865   -1.6159 C   0  0  2  0  0  0  0  0  0  0  0  0
   -1.4603    2.4360   -1.7665 O   0  0  0  0  0  0  0  0  0  0  0  0
   -1.7889    0.1696   -1.0320 C   0  0  0  0  0  0  0  0  0  0  0  0
   -2.5187   -0.4878   -2.0461 O   0  0  0  0  0  0  0  0  0  0  0  0
    1.2586   -0.6070    0.0829 C   0  0  2  0  0  0  0  0  0  0  0  0
    0.9954   -0.1896    1.5377 C   0  0  2  0  0  0  0  0  0  0  0  0
   -0.1428    0.7408    1.6206 N   0  0  0  0  0  0  0  0  0  0  0  0
    2.2569    0.4065    2.1803 C   0  0  1  0  0  0  0  0  0  0  0  0
    1.9807    0.6911    3.5380 O   0  0  0  0  0  0  0  0  0  0  0  0
    3.3911   -0.6271    2.0750 C   0  0  2  0  0  0  0  0  0  0  0  0
    4.5928   -0.1096    2.6159 O   0  0  0  0  0  0  0  0  0  0  0  0
    3.6042   -1.0668    0.6118 C   0  0  1  0  0  0  0  0  0  0  0  0
    2.3785   -1.4864    0.0078 O   0  0  0  0  0  0  0  0  0  0  0  0
    4.3333   -0.0167   -0.2394 C   0  0  0  0  0  0  0  0  0  0  0  0
    5.7700   -0.3173   -0.3471 N   0  0  0  0  0  0  0  0  0  0  0  0
  1  3  1  0  0  0  0
  1  2  1  1  0  0  0
  3  4  1  6  0  0  0
  5  6  1  1  0  0  0
  5  3  1  0  0  0  0
  7  9  1  0  0  0  0
  7  5  1  0  0  0  0
  7  8  1  1  0  0  0
  9 10  1  0  0  0  0
  9 11  1  1  0  0  0
 10  1  1  0  0  0  0
 11 12  1  0  0  0  0
 13 14  1  1  0  0  0
 13 21  1  0  0  0  0
 15 13  1  0  0  0  0
 16 15  1  0  0  0  0
 16 18  1  0  0  0  0
 16 17  1  1  0  0  0
 18  2  1  6  0  0  0
 18 19  1  0  0  0  0
 19 21  1  0  0  0  0
 19 20  1  1  0  0  0
 21 22  1  6  0  0  0
 23 20  1  1  0  0  0
 23 29  1  0  0  0  0
 23 24  1  0  0  0  0
 24 26  1  0  0  0  0
 24 25  1  6  0  0  0
 26 27  1  6  0  0  0
 28 26  1  0  0  0  0
 28 30  1  1  0  0  0
 29 28  1  0  0  0  0
 30 31  1  0  0  0  0
 32 27  1  6  0  0  0
 32 40  1  0  0  0  0
 32 33  1  0  0  0  0
 33 35  1  0  0  0  0
 33 34  1  6  0  0  0
 35 37  1  0  0  0  0
 35 36  1  1  0  0  0
 37 38  1  6  0  0  0
 39 37  1  0  0  0  0
 39 41  1  6  0  0  0
 40 39  1  0  0  0  0
 42 41  1  0  0  0  0
M  END
>  <CHROM.1>
-162.08739781,-156.42259040,-72.91845660,175.25783903,61.57214201,70.92766526
-169.06951241,-160.77152924,55.50437409,-160.26097071,104.60192957,54.57097184
178.20611032,162.40283668,-53.74059908,-155.08873840,42.42716696,158.33458340
178.60531884,46.93437051,97.93529716,142.13443729,-0.05622863,3.35658626
0.89926949,2.78004415,0.90279424,-0.74831138

>  <Name>
lig.pdb

>  <RI>
0

>  <Rbt.Current_Directory>
/home/itssahil/PROJECTS/Mol_Feturizer/New_Systems/rnas/2mxs

>  <Rbt.Executable>
rbdock ($Id: //depot/dev/client3/rdock/2013.1/src/exe/rbdock.cxx#4 $)

>  <Rbt.Library>
libRbt.so (2013.1, Build901 2013/11/27)

>  <Rbt.Parameter_File>
/export/apps/rDock/src/rDock_2013.1_src/data/scripts/dock_solv.prm

>  <Rbt.Receptor>
prm/blind_docking_60.prm

>  <SCORE>
65.8547

>  <SCORE.INTER>
23.7331

>  <SCORE.INTER.CONST>
1

>  <SCORE.INTER.POLAR>
-3.51757

>  <SCORE.INTER.ROT>
9

>  <SCORE.INTER.SOLV>
33.179

>  <SCORE.INTER.VDW>
6.88762

>  <SCORE.INTER.norm>
0.565073

>  <SCORE.INTRA>
15.2092

>  <SCORE.INTRA.DIHEDRAL>
-2.34456

>  <SCORE.INTRA.DIHEDRAL.0>
30.1357

>  <SCORE.INTRA.POLAR>
0.631696

>  <SCORE.INTRA.POLAR.0>
-0.631696

>  <SCORE.INTRA.REPUL>
0

>  <SCORE.INTRA.REPUL.0>
0

>  <SCORE.INTRA.SOLV>
-0.860682

>  <SCORE.INTRA.SOLV.lig_0>
-55.904

>  <SCORE.INTRA.VDW>
14.664

>  <SCORE.INTRA.VDW.0>
-8.21197

>  <SCORE.INTRA.norm>
0.362123

>  <SCORE.RESTR>
26.9125

>  <SCORE.RESTR.CAVITY>
26.9125

>  <SCORE.RESTR.norm>
0.640773

>  <SCORE.SYSTEM>
0

>  <SCORE.SYSTEM.CONST>
0

>  <SCORE.SYSTEM.DIHEDRAL>
0

>  <SCORE.SYSTEM.SOLV>
0

>  <SCORE.SYSTEM.norm>
0

>  <SCORE.heavy>
42

>  <SCORE.norm>
1.56797

>  <RMSD>
7.544

$$$$
lig.pdb
 OpenBabel11021811453D
libRbt.so/2013.1/901 2013/11/27
 42 45  0  0  0  0  0  0  0  0999 V2000
    0.8911    3.2319    1.0315 C   0  0  2  0  0  0  0  0  0  0  0  0
   -0.3190    3.0327    0.2985 O   0  0  0  0  0  0  0  0  0  0  0  0
    2.0822    3.4214    0.0801 C   0  0  2  0  0  0  0  0  0  0  0  0
    1.8269    4.5146   -0.8760 N   0  0  0  0  0  0  0  0  0  0  0  0
    2.4141    2.1151   -0.6525 C   0  0  1  0  0  0  0  0  0  0  0  0
    3.6034    2.2847   -1.3997 O   0  0  0  0  0  0  0  0  0  0  0  0
    2.6056    0.9729    0.3567 C   0  0  2  0  0  0  0  0  0  0  0  0
    2.7530   -0.2490   -0.3411 O   0  0  0  0  0  0  0  0  0  0  0  0
    1.4163    0.8760    1.3336 C   0  0  2  0  0  0  0  0  0  0  0  0
    1.1269    2.1439    1.9216 O   0  0  0  0  0  0  0  0  0  0  0  0
    1.7825   -0.1369    2.4350 C   0  0  0  0  0  0  0  0  0  0  0  0
    0.7345   -1.1208    2.6447 O   0  0  0  0  0  0  0  0  0  0  0  0
   -3.2011    5.1863    2.6620 C   0  0  2  0  0  0  0  0  0  0  0  0
   -4.5832    5.5182    3.0619 N   0  0  0  0  0  0  0  0  0  0  0  0
   -2.9842    5.5074    1.1811 C   0  0  0  0  0  0  0  0  0  0  0  0
   -1.6074    5.0380    0.7261 C   0  0  2  0  0  0  0  0  0  0  0  0
   -1.3704    5.4374   -0.6668 N   0  0  0  0  0  0  0  0  0  0  0  0
   -1.5278    3.5047    0.9111 C   0  0  2  0  0  0  0  0  0  0  0  0
   -1.5786    3.2012    2.3742 C   0  0  2  0  0  0  0  0  0  0  0  0
   -1.4624    1.7980    2.5232 O   0  0  0  0  0  0  0  0  0  0  0  0
   -2.8852    3.7076    2.9553 C   0  0  1  0  0  0  0  0  0  0  0  0
   -2.9511    3.5214    4.3568 O   0  0  0  0  0  0  0  0  0  0  0  0
   -1.8227    0.9814    1.4140 C   0  0  1  0  0  0  0  0  0  0  0  0
   -1.9790   -0.4537    1.9213 C   0  0  2  0  0  0  0  0  0  0  0  0
   -1.5259   -1.3534    0.9272 O   0  0  0  0  0  0  0  0  0  0  0  0
   -3.4897   -0.5531    2.1722 C   0  0  2  0  0  0  0  0  0  0  0  0
   -3.9605   -1.9010    2.1877 O   0  0  0  0  0  0  0  0  0  0  0  0
   -4.0092    0.2975    1.0066 C   0  0  2  0  0  0  0  0  0  0  0  0
   -3.0946    1.3811    0.9192 O   0  0  0  0  0  0  0  0  0  0  0  0
   -5.4230    0.8544    1.2103 C   0  0  0  0  0  0  0  0  0  0  0  0
   -5.9724    1.3337    0.0013 O   0  0  0  0  0  0  0  0  0  0  0  0
   -5.3113   -2.0539    2.6190 C   0  0  2  0  0  0  0  0  0  0  0  0
   -5.5557   -3.4321    3.2520 C   0  0  2  0  0  0  0  0  0  0  0  0
   -4.6110   -3.6802    4.3538 N   0  0  0  0  0  0  0  0  0  0  0  0
   -5.4932   -4.5461    2.1961 C   0  0  1  0  0  0  0  0  0  0  0  0
   -5.8098   -5.7763    2.8184 O   0  0  0  0  0  0  0  0  0  0  0  0
   -6.5186   -4.2296    1.0941 C   0  0  2  0  0  0  0  0  0  0  0  0
   -6.4717   -5.2064    0.0704 O   0  0  0  0  0  0  0  0  0  0  0  0
   -6.2831   -2.8225    0.5076 C   0  0  1  0  0  0  0  0  0  0  0  0
   -6.2118   -1.8322    1.5360 O   0  0  0  0  0  0  0  0  0  0  0  0
   -5.0772   -2.7523   -0.4410 C   0  0  0  0  0  0  0  0  0  0  0  0
   -5.3338   -3.4880   -1.6896 N   0  0  0  0  0  0  0  0  0  0  0  0
  1  3  1  0  0  0  0
  1  2  1  6  0  0  0
  3  4  1  6  0  0  0
  5  6  1  1  0  0  0
  5  3  1  0  0  0  0
  7  9  1  0  0  0  0
  7  5  1  0  0  0  0
  7  8  1  6  0  0  0
  9 10  1  0  0  0  0
  9 11  1  1  0  0  0
 10  1  1  0  0  0  0
 11 12  1  0  0  0  0
 13 14  1  6  0  0  0
 13 21  1  0  0  0  0
 15 13  1  0  0  0  0
 16 15  1  0  0  0  0
 16 18  1  0  0  0  0
 16 17  1  6  0  0  0
 18  2  1  1  0  0  0
 18 19  1  0  0  0  0
 19 21  1  0  0  0  0
 19 20  1  6  0  0  0
 21 22  1  1  0  0  0
 23 20  1  1  0  0  0
 23 29  1  0  0  0  0
 23 24  1  0  0  0  0
 24 26  1  0  0  0  0
 24 25  1  6  0  0  0
 26 27  1  6  0  0  0
 28 26  1  0  0  0  0
 28 30  1  1  0  0  0
 29 28  1  0  0  0  0
 30 31  1  0  0  0  0
 32 27  1  6  0  0  0
 32 40  1  0  0  0  0
 32 33  1  0  0  0  0
 33 35  1  0  0  0  0
 33 34  1  1  0  0  0
 35 37  1  0  0  0  0
 35 36  1  1  0  0  0
 37 38  1  6  0  0  0
 39 37  1  0  0  0  0
 39 41  1  1  0  0  0
 40 39  1  0  0  0  0
 42 41  1  0  0  0  0
M  END
>  <CHROM.1>
78.00116435,-149.17524743,-68.94501167,58.89337050,176.79471152,164.23366215
-130.62111616,68.33025739,-65.42509908,-22.83058060,-164.95400851,-60.32407587
89.67434523,170.81932954,-152.56428165,-165.25701131,-160.90882721,-51.82001902
-169.19688476,64.66335040,69.14441983,-42.77561693,-2.31365456,0.54640411
1.29243811,-0.81446720,-0.22373939,-3.06541448

>  <Name>
lig.pdb

>  <RI>
0

>  <Rbt.Current_Directory>
/home/itssahil/PROJECTS/Mol_Feturizer/New_Systems/rnas/2mxs

>  <Rbt.Executable>
rbdock ($Id: //depot/dev/client3/rdock/2013.1/src/exe/rbdock.cxx#4 $)

>  <Rbt.Library>
libRbt.so (2013.1, Build901 2013/11/27)

>  <Rbt.Parameter_File>
/export/apps/rDock/src/rDock_2013.1_src/data/scripts/dock_solv.prm

>  <Rbt.Receptor>
prm/pocket_docking_7.prm

>  <SCORE>
-37.991

>  <SCORE.INTER>
-43.1588

>  <SCORE.INTER.CONST>
1

>  <SCORE.INTER.POLAR>
-5.63938

>  <SCORE.INTER.ROT>
9

>  <SCORE.INTER.SOLV>
21.3425

>  <SCORE.INTER.VDW>
-26.6887

>  <SCORE.INTER.norm>
-1.02759

>  <SCORE.INTRA>
4.74526

>  <SCORE.INTRA.DIHEDRAL>
-0.522144

>  <SCORE.INTRA.DIHEDRAL.0>
30.1357

>  <SCORE.INTRA.POLAR>
-0.788058

>  <SCORE.INTRA.POLAR.0>
-0.631696

>  <SCORE.INTRA.REPUL>
0

>  <SCORE.INTRA.REPUL.0>
0

>  <SCORE.INTRA.SOLV>
1.53327

>  <SCORE.INTRA.SOLV.lig_0>
-55.904

>  <SCORE.INTRA.VDW>
6.9191

>  <SCORE.INTRA.VDW.0>
-8.21197

>  <SCORE.INTRA.norm>
0.112982

>  <SCORE.RESTR>
0.422518

>  <SCORE.RESTR.CAVITY>
0.422518

>  <SCORE.RESTR.norm>
0.01006

>  <SCORE.SYSTEM>
0

>  <SCORE.SYSTEM.CONST>
0

>  <SCORE.SYSTEM.DIHEDRAL>
0

>  <SCORE.SYSTEM.SOLV>
0

>  <SCORE.SYSTEM.norm>
0

>  <SCORE.heavy>
42

>  <SCORE.norm>
-0.904547

>  <RMSD>
7.610

$$$$
lig.pdb
 OpenBabel11021811453D
libRbt.so/2013.1/901 2013/11/27
 42 45  0  0  0  0  0  0  0  0999 V2000
   -1.9031    5.8149    2.2086 C   0  0  2  0  0  0  0  0  0  0  0  0
   -1.9090    6.2375    0.8437 O   0  0  0  0  0  0  0  0  0  0  0  0
   -1.6628    4.3012    2.3115 C   0  0  2  0  0  0  0  0  0  0  0  0
   -0.4281    3.9122    1.6054 N   0  0  0  0  0  0  0  0  0  0  0  0
   -2.8702    3.5156    1.7836 C   0  0  1  0  0  0  0  0  0  0  0  0
   -2.6788    2.1363    2.0336 O   0  0  0  0  0  0  0  0  0  0  0  0
   -4.1564    3.9853    2.4797 C   0  0  2  0  0  0  0  0  0  0  0  0
   -5.2723    3.3652    1.8701 O   0  0  0  0  0  0  0  0  0  0  0  0
   -4.3090    5.5184    2.4112 C   0  0  2  0  0  0  0  0  0  0  0  0
   -3.1218    6.1755    2.8539 O   0  0  0  0  0  0  0  0  0  0  0  0
   -5.4933    5.9225    3.3098 C   0  0  0  0  0  0  0  0  0  0  0  0
   -5.6536    7.3641    3.3893 O   0  0  0  0  0  0  0  0  0  0  0  0
    1.2958    7.7231   -1.6165 C   0  0  2  0  0  0  0  0  0  0  0  0
    2.7217    7.8411   -1.9817 N   0  0  0  0  0  0  0  0  0  0  0  0
    1.0632    8.2576   -0.2011 C   0  0  0  0  0  0  0  0  0  0  0  0
   -0.3758    8.0107    0.2363 C   0  0  2  0  0  0  0  0  0  0  0  0
   -0.6156    8.6131    1.5537 N   0  0  0  0  0  0  0  0  0  0  0  0
   -0.6305    6.4854    0.2411 C   0  0  2  0  0  0  0  0  0  0  0  0
   -0.5613    5.9894   -1.1677 C   0  0  2  0  0  0  0  0  0  0  0  0
   -0.8382    4.6011   -1.1453 O   0  0  0  0  0  0  0  0  0  0  0  0
    0.8172    6.2642   -1.7382 C   0  0  1  0  0  0  0  0  0  0  0  0
    0.9131    5.8902   -3.0998 O   0  0  0  0  0  0  0  0  0  0  0  0
   -0.1367    3.7703   -2.0643 C   0  0  1  0  0  0  0  0  0  0  0  0
    1.0860    3.2016   -1.3412 C   0  0  2  0  0  0  0  0  0  0  0  0
    2.1652    3.1049   -2.2516 O   0  0  0  0  0  0  0  0  0  0  0  0
    0.5817    1.8323   -0.8659 C   0  0  2  0  0  0  0  0  0  0  0  0
    1.6425    0.9166   -0.5920 O   0  0  0  0  0  0  0  0  0  0  0  0
   -0.3088    1.4498   -2.0545 C   0  0  2  0  0  0  0  0  0  0  0  0
   -0.9513    2.6617   -2.4245 O   0  0  0  0  0  0  0  0  0  0  0  0
   -1.3769    0.3981   -1.7325 C   0  0  0  0  0  0  0  0  0  0  0  0
   -2.6612    0.9756   -1.6306 O   0  0  0  0  0  0  0  0  0  0  0  0
    2.6222    1.3991    0.3254 C   0  0  2  0  0  0  0  0  0  0  0  0
    3.6369    0.3089    0.7023 C   0  0  2  0  0  0  0  0  0  0  0  0
    4.2656   -0.2633   -0.4999 N   0  0  0  0  0  0  0  0  0  0  0  0
    2.9850   -0.7797    1.5681 C   0  0  1  0  0  0  0  0  0  0  0  0
    3.9815   -1.7061    1.9548 O   0  0  0  0  0  0  0  0  0  0  0  0
    2.3718   -0.1109    2.8101 C   0  0  2  0  0  0  0  0  0  0  0  0
    1.7183   -1.0677    3.6237 O   0  0  0  0  0  0  0  0  0  0  0  0
    1.3937    1.0119    2.4072 C   0  0  1  0  0  0  0  0  0  0  0  0
    1.9983    1.9292    1.4927 O   0  0  0  0  0  0  0  0  0  0  0  0
    0.0465    0.4883    1.8880 C   0  0  0  0  0  0  0  0  0  0  0  0
    0.2080   -0.7840    1.1659 N   0  0  0  0  0  0  0  0  0  0  0  0
  1  3  1  0  0  0  0
  1  2  1  6  0  0  0
  3  4  1  6  0  0  0
  5  6  1  1  0  0  0
  5  3  1  0  0  0  0
  7  9  1  0  0  0  0
  7  5  1  0  0  0  0
  7  8  1  6  0  0  0
  9 10  1  0  0  0  0
  9 11  1  1  0  0  0
 10  1  1  0  0  0  0
 11 12  1  0  0  0  0
 13 14  1  1  0  0  0
 13 21  1  0  0  0  0
 15 13  1  0  0  0  0
 16 15  1  0  0  0  0
 16 18  1  0  0  0  0
 16 17  1  1  0  0  0
 18  2  1  6  0  0  0
 18 19  1  0  0  0  0
 19 21  1  0  0  0  0
 19 20  1  1  0  0  0
 21 22  1  6  0  0  0
 23 20  1  1  0  0  0
 23 29  1  0  0  0  0
 23 24  1  0  0  0  0
 24 26  1  0  0  0  0
 24 25  1  6  0  0  0
 26 27  1  6  0  0  0
 28 26  1  0  0  0  0
 28 30  1  1  0  0  0
 29 28  1  0  0  0  0
 30 31  1  0  0  0  0
 32 27  1  6  0  0  0
 32 40  1  0  0  0  0
 32 33  1  0  0  0  0
 33 35  1  0  0  0  0
 33 34  1  6  0  0  0
 35 37  1  0  0  0  0
 35 36  1  1  0  0  0
 37 38  1  6  0  0  0
 39 37  1  0  0  0  0
 39 41  1  6  0  0  0
 40 39  1  0  0  0  0
 42 41  1  0  0  0  0
M  END
>  <CHROM.1>
-100.28274178,-83.07292999,-70.40420455,63.57747837,-52.52703143,175.43916500
175.68002570,-63.86164551,170.82142070,-144.18897232,94.99333974,67.10397927
69.05206765,54.23163508,173.19091048,104.93325114,-171.20171060,124.66494538
-79.93813732,168.06425196,-33.25469420,178.73898344,-0.24779477,3.46167308
0.49233992,2.35400051,0.56491513,-0.39621702

>  <Name>
lig.pdb

>  <RI>
0

>  <Rbt.Current_Directory>
/home/itssahil/PROJECTS/Mol_Feturizer/New_Systems/rnas/2mxs

>  <Rbt.Executable>
rbdock ($Id: //depot/dev/client3/rdock/2013.1/src/exe/rbdock.cxx#4 $)

>  <Rbt.Library>
libRbt.so (2013.1, Build901 2013/11/27)

>  <Rbt.Parameter_File>
/export/apps/rDock/src/rDock_2013.1_src/data/scripts/dock_solv.prm

>  <Rbt.Receptor>
prm/blind_docking_60.prm

>  <SCORE>
88.7664

>  <SCORE.INTER>
61.8321

>  <SCORE.INTER.CONST>
1

>  <SCORE.INTER.POLAR>
-2.23788

>  <SCORE.INTER.ROT>
9

>  <SCORE.INTER.SOLV>
28.2688

>  <SCORE.INTER.VDW>
29.6581

>  <SCORE.INTER.norm>
1.47219

>  <SCORE.INTRA>
3.24416

>  <SCORE.INTRA.DIHEDRAL>
2.46406

>  <SCORE.INTRA.DIHEDRAL.0>
30.1357

>  <SCORE.INTRA.POLAR>
-1.51995

>  <SCORE.INTRA.POLAR.0>
-0.631696

>  <SCORE.INTRA.REPUL>
0.00430025

>  <SCORE.INTRA.REPUL.0>
0

>  <SCORE.INTRA.SOLV>
2.67765

>  <SCORE.INTRA.SOLV.lig_0>
-55.904

>  <SCORE.INTRA.VDW>
5.81963

>  <SCORE.INTRA.VDW.0>
-8.21197

>  <SCORE.INTRA.norm>
0.077242

>  <SCORE.RESTR>
23.6901

>  <SCORE.RESTR.CAVITY>
23.6901

>  <SCORE.RESTR.norm>
0.564049

>  <SCORE.SYSTEM>
0

>  <SCORE.SYSTEM.CONST>
0

>  <SCORE.SYSTEM.DIHEDRAL>
0

>  <SCORE.SYSTEM.SOLV>
0

>  <SCORE.SYSTEM.norm>
0

>  <SCORE.heavy>
42

>  <SCORE.norm>
2.11348

>  <RMSD>
7.620

$$$$
lig.pdb
 OpenBabel11021811453D
libRbt.so/2013.1/901 2013/11/27
 42 45  0  0  0  0  0  0  0  0999 V2000
   -1.2502    4.5019    1.4854 C   0  0  2  0  0  0  0  0  0  0  0  0
   -1.3495    5.7037    0.7190 O   0  0  0  0  0  0  0  0  0  0  0  0
   -2.6337    4.0507    1.9773 C   0  0  2  0  0  0  0  0  0  0  0  0
   -3.5767    3.9142    0.8519 N   0  0  0  0  0  0  0  0  0  0  0  0
   -3.1800    5.0126    3.0402 C   0  0  1  0  0  0  0  0  0  0  0  0
   -4.3781    4.4866    3.5782 O   0  0  0  0  0  0  0  0  0  0  0  0
   -2.1538    5.1976    4.1682 C   0  0  2  0  0  0  0  0  0  0  0  0
   -2.6068    6.2042    5.0531 O   0  0  0  0  0  0  0  0  0  0  0  0
   -0.7656    5.5763    3.6133 C   0  0  2  0  0  0  0  0  0  0  0  0
   -0.3583    4.6759    2.5836 O   0  0  0  0  0  0  0  0  0  0  0  0
    0.2441    5.5285    4.7758 C   0  0  0  0  0  0  0  0  0  0  0  0
    0.3277    4.2077    5.3747 O   0  0  0  0  0  0  0  0  0  0  0  0
    1.5915    7.6316   -1.7638 C   0  0  2  0  0  0  0  0  0  0  0  0
    2.9581    8.1173   -2.0408 N   0  0  0  0  0  0  0  0  0  0  0  0
    1.0250    8.3183   -0.5186 C   0  0  0  0  0  0  0  0  0  0  0  0
   -0.3266    7.7217   -0.1444 C   0  0  2  0  0  0  0  0  0  0  0  0
   -0.9063    8.4515    0.9901 N   0  0  0  0  0  0  0  0  0  0  0  0
   -0.1279    6.2211    0.1721 C   0  0  2  0  0  0  0  0  0  0  0  0
    0.2718    5.5206   -1.0870 C   0  0  2  0  0  0  0  0  0  0  0  0
    0.4075    4.1441   -0.7847 O   0  0  0  0  0  0  0  0  0  0  0  0
    1.5760    6.1000   -1.6013 C   0  0  1  0  0  0  0  0  0  0  0  0
    1.9593    5.5302   -2.8388 O   0  0  0  0  0  0  0  0  0  0  0  0
    1.4584    3.7590    0.0951 C   0  0  1  0  0  0  0  0  0  0  0  0
    1.3477    2.2500    0.3233 C   0  0  2  0  0  0  0  0  0  0  0  0
    1.7141    1.9502    1.6570 O   0  0  0  0  0  0  0  0  0  0  0  0
    2.3348    1.6864   -0.7077 C   0  0  2  0  0  0  0  0  0  0  0  0
    2.7757    0.3665   -0.3877 O   0  0  0  0  0  0  0  0  0  0  0  0
    3.4258    2.7625   -0.6471 C   0  0  2  0  0  0  0  0  0  0  0  0
    2.7144    3.9868   -0.5316 O   0  0  0  0  0  0  0  0  0  0  0  0
    4.3241    2.8238   -1.8879 C   0  0  0  0  0  0  0  0  0  0  0  0
    3.6462    3.3812   -2.9937 O   0  0  0  0  0  0  0  0  0  0  0  0
    1.9689   -0.6774   -0.9295 C   0  0  2  0  0  0  0  0  0  0  0  0
    0.5445   -0.1940   -1.2420 C   0  0  2  0  0  0  0  0  0  0  0  0
    0.5701    0.9789   -2.1317 N   0  0  0  0  0  0  0  0  0  0  0  0
   -0.2381    0.0955    0.0478 C   0  0  1  0  0  0  0  0  0  0  0  0
   -1.5625    0.4517   -0.2981 O   0  0  0  0  0  0  0  0  0  0  0  0
   -0.2394   -1.1771    0.9118 C   0  0  2  0  0  0  0  0  0  0  0  0
   -0.9134   -0.9510    2.1361 O   0  0  0  0  0  0  0  0  0  0  0  0
    1.1989   -1.6704    1.1715 C   0  0  1  0  0  0  0  0  0  0  0  0
    1.9368   -1.7963   -0.0463 O   0  0  0  0  0  0  0  0  0  0  0  0
    1.9516   -0.8306    2.2141 C   0  0  0  0  0  0  0  0  0  0  0  0
    1.2735   -0.8636    3.5200 N   0  0  0  0  0  0  0  0  0  0  0  0
  1  3  1  0  0  0  0
  1  2  1  1  0  0  0
  3  4  1  6  0  0  0
  5  6  1  1  0  0  0
  5  3  1  0  0  0  0
  7  9  1  0  0  0  0
  7  5  1  0  0  0  0
  7  8  1  1  0  0  0
  9 10  1  0  0  0  0
  9 11  1  1  0  0  0
 10  1  1  0  0  0  0
 11 12  1  0  0  0  0
 13 14  1  1  0  0  0
 13 21  1  0  0  0  0
 15 13  1  0  0  0  0
 16 15  1  0  0  0  0
 16 18  1  0  0  0  0
 16 17  1  1  0  0  0
 18  2  1  6  0  0  0
 18 19  1  0  0  0  0
 19 21  1  0  0  0  0
 19 20  1  1  0  0  0
 21 22  1  6  0  0  0
 23 20  1  6  0  0  0
 23 29  1  0  0  0  0
 23 24  1  0  0  0  0
 24 26  1  0  0  0  0
 24 25  1  1  0  0  0
 26 27  1  1  0  0  0
 28 26  1  0  0  0  0
 28 30  1  6  0  0  0
 29 28  1  0  0  0  0
 30 31  1  0  0  0  0
 32 27  1  1  0  0  0
 32 40  1  0  0  0  0
 32 33  1  0  0  0  0
 33 35  1  0  0  0  0
 33 34  1  6  0  0  0
 35 37  1  0  0  0  0
 35 36  1  6  0  0  0
 37 38  1  1  0  0  0
 39 37  1  0  0  0  0
 39 41  1  1  0  0  0
 40 39  1  0  0  0  0
 42 41  1  0  0  0  0
M  END
>  <CHROM.1>
-159.20869440,-178.68441481,33.22734773,-164.61365067,-45.68964557,60.63223797
60.23154248,-167.24755825,106.78488786,-66.48067566,176.90318590,47.92733389
-87.68651223,89.91140444,-22.89566087,72.99628086,49.97716400,-103.32840017
-25.32488050,55.15418067,60.77838964,52.16509294,0.38728034,3.41231337,0.67974405
2.09320672,0.85948448,-0.19018822

>  <Name>
lig.pdb

>  <RI>
3.17932e+07

>  <Rbt.Current_Directory>
/home/itssahil/PROJECTS/Mol_Feturizer/New_Systems/rnas/2mxs

>  <Rbt.Executable>
rbdock ($Id: //depot/dev/client3/rdock/2013.1/src/exe/rbdock.cxx#4 $)

>  <Rbt.Library>
libRbt.so (2013.1, Build901 2013/11/27)

>  <Rbt.Parameter_File>
/export/apps/rDock/src/rDock_2013.1_src/data/scripts/dock_solv.prm

>  <Rbt.Receptor>
prm/blind_docking_100.prm

>  <SCORE>
32.7443

>  <SCORE.INTER>
-19.7969

>  <SCORE.INTER.CONST>
1

>  <SCORE.INTER.POLAR>
-3.53429

>  <SCORE.INTER.ROT>
9

>  <SCORE.INTER.SOLV>
24.3059

>  <SCORE.INTER.VDW>
-19.1189

>  <SCORE.INTER.norm>
-0.471355

>  <SCORE.INTRA>
23.1884

>  <SCORE.INTRA.DIHEDRAL>
0.741118

>  <SCORE.INTRA.DIHEDRAL.0>
30.1357

>  <SCORE.INTRA.POLAR>
-0.657282

>  <SCORE.INTRA.POLAR.0>
-0.631696

>  <SCORE.INTRA.REPUL>
0

>  <SCORE.INTRA.REPUL.0>
0

>  <SCORE.INTRA.SOLV>
4.31119

>  <SCORE.INTRA.SOLV.lig_0>
-55.904

>  <SCORE.INTRA.VDW>
22.897

>  <SCORE.INTRA.VDW.0>
-8.21197

>  <SCORE.INTRA.norm>
0.552104

>  <SCORE.RESTR>
29.3528

>  <SCORE.RESTR.CAVITY>
29.3528

>  <SCORE.RESTR.norm>
0.698877

>  <SCORE.SYSTEM>
0

>  <SCORE.SYSTEM.CONST>
0

>  <SCORE.SYSTEM.DIHEDRAL>
0

>  <SCORE.SYSTEM.SOLV>
0

>  <SCORE.SYSTEM.norm>
0

>  <SCORE.heavy>
42

>  <SCORE.norm>
0.779626

>  <RMSD>
7.639

$$$$
lig.pdb
 OpenBabel11021811453D
libRbt.so/2013.1/901 2013/11/27
 42 45  0  0  0  0  0  0  0  0999 V2000
   -1.8281    7.1736    2.8107 C   0  0  2  0  0  0  0  0  0  0  0  0
   -1.0313    6.4770    3.7706 O   0  0  0  0  0  0  0  0  0  0  0  0
   -2.9667    6.2813    2.2938 C   0  0  2  0  0  0  0  0  0  0  0  0
   -3.7756    5.7564    3.4094 N   0  0  0  0  0  0  0  0  0  0  0  0
   -2.4205    5.1409    1.4251 C   0  0  1  0  0  0  0  0  0  0  0  0
   -3.5000    4.4345    0.8444 O   0  0  0  0  0  0  0  0  0  0  0  0
   -1.5226    5.7026    0.3125 C   0  0  2  0  0  0  0  0  0  0  0  0
   -0.9049    4.6322   -0.3763 O   0  0  0  0  0  0  0  0  0  0  0  0
   -0.4454    6.6496    0.8791 C   0  0  2  0  0  0  0  0  0  0  0  0
   -1.0239    7.6390    1.7298 O   0  0  0  0  0  0  0  0  0  0  0  0
    0.2634    7.3325   -0.3061 C   0  0  0  0  0  0  0  0  0  0  0  0
    1.0979    6.4067   -1.0523 O   0  0  0  0  0  0  0  0  0  0  0  0
   -1.3906    6.1603    8.0486 C   0  0  2  0  0  0  0  0  0  0  0  0
   -2.1449    6.2740    9.3129 N   0  0  0  0  0  0  0  0  0  0  0  0
   -1.3088    7.5217    7.3536 C   0  0  0  0  0  0  0  0  0  0  0  0
   -0.6556    7.3865    5.9833 C   0  0  2  0  0  0  0  0  0  0  0  0
   -0.4925    8.7090    5.3667 N   0  0  0  0  0  0  0  0  0  0  0  0
   -1.5262    6.4465    5.1173 C   0  0  2  0  0  0  0  0  0  0  0  0
   -1.4753    5.0747    5.7097 C   0  0  2  0  0  0  0  0  0  0  0  0
   -2.2434    4.2227    4.8798 O   0  0  0  0  0  0  0  0  0  0  0  0
   -2.0282    5.1080    7.1220 C   0  0  1  0  0  0  0  0  0  0  0  0
   -1.9266    3.8500    7.7624 O   0  0  0  0  0  0  0  0  0  0  0  0
   -2.3353    2.8494    5.2436 C   0  0  1  0  0  0  0  0  0  0  0  0
   -3.3021    2.1716    4.2703 C   0  0  2  0  0  0  0  0  0  0  0  0
   -4.0463    1.1854    4.9605 O   0  0  0  0  0  0  0  0  0  0  0  0
   -2.3528    1.5774    3.2212 C   0  0  2  0  0  0  0  0  0  0  0  0
   -2.9443    0.5087    2.4818 O   0  0  0  0  0  0  0  0  0  0  0  0
   -1.1830    1.1662    4.1238 C   0  0  2  0  0  0  0  0  0  0  0  0
   -1.0711    2.2224    5.0674 O   0  0  0  0  0  0  0  0  0  0  0  0
    0.1553    1.0078    3.3928 C   0  0  0  0  0  0  0  0  0  0  0  0
    1.1634    0.5216    4.2532 O   0  0  0  0  0  0  0  0  0  0  0  0
   -3.6301    0.9128    1.2984 C   0  0  2  0  0  0  0  0  0  0  0  0
   -5.1036    0.4785    1.3163 C   0  0  2  0  0  0  0  0  0  0  0  0
   -5.7838    0.9743    2.5245 N   0  0  0  0  0  0  0  0  0  0  0  0
   -5.2338   -1.0463    1.1833 C   0  0  1  0  0  0  0  0  0  0  0  0
   -6.6073   -1.3782    1.1189 O   0  0  0  0  0  0  0  0  0  0  0  0
   -4.5210   -1.4845   -0.1073 C   0  0  2  0  0  0  0  0  0  0  0  0
   -4.5743   -2.8914   -0.2565 O   0  0  0  0  0  0  0  0  0  0  0  0
   -3.0580   -0.9957   -0.1239 C   0  0  1  0  0  0  0  0  0  0  0  0
   -2.9717    0.4066    0.1394 O   0  0  0  0  0  0  0  0  0  0  0  0
   -2.1338   -1.8097    0.7938 C   0  0  0  0  0  0  0  0  0  0  0  0
   -2.1331   -3.2349    0.4263 N   0  0  0  0  0  0  0  0  0  0  0  0
  1  3  1  0  0  0  0
  1  2  1  1  0  0  0
  3  4  1  1  0  0  0
  5  6  1  6  0  0  0
  5  3  1  0  0  0  0
  7  9  1  0  0  0  0
  7  5  1  0  0  0  0
  7  8  1  1  0  0  0
  9 10  1  0  0  0  0
  9 11  1  6  0  0  0
 10  1  1  0  0  0  0
 11 12  1  0  0  0  0
 13 14  1  1  0  0  0
 13 21  1  0  0  0  0
 15 13  1  0  0  0  0
 16 15  1  0  0  0  0
 16 18  1  0  0  0  0
 16 17  1  6  0  0  0
 18  2  1  6  0  0  0
 18 19  1  0  0  0  0
 19 21  1  0  0  0  0
 19 20  1  6  0  0  0
 21 22  1  1  0  0  0
 23 20  1  6  0  0  0
 23 29  1  0  0  0  0
 23 24  1  0  0  0  0
 24 26  1  0  0  0  0
 24 25  1  1  0  0  0
 26 27  1  1  0  0  0
 28 26  1  0  0  0  0
 28 30  1  6  0  0  0
 29 28  1  0  0  0  0
 30 31  1  0  0  0  0
 32 27  1  1  0  0  0
 32 40  1  0  0  0  0
 32 33  1  0  0  0  0
 33 35  1  0  0  0  0
 33 34  1  1  0  0  0
 35 37  1  0  0  0  0
 35 36  1  6  0  0  0
 37 38  1  1  0  0  0
 39 37  1  0  0  0  0
 39 41  1  1  0  0  0
 40 39  1  0  0  0  0
 42 41  1  0  0  0  0
M  END
>  <CHROM.1>
-107.22975313,-82.29977950,38.56356840,155.40327341,74.71482807,57.64202592
-70.34758840,177.60455366,34.09343603,179.61922706,175.35977261,-57.80406897
-51.80380936,89.90003314,-122.07160914,-175.06162745,62.61412655,67.21837834
-177.03927208,168.98419884,58.39464972,176.87493494,-2.26771014,3.23039342
3.03102429,-0.66081724,-1.20538174,-1.76772809

>  <Name>
lig.pdb

>  <RI>
3.99633e+07

>  <Rbt.Current_Directory>
/home/itssahil/PROJECTS/Mol_Feturizer/New_Systems/rnas/2mxs

>  <Rbt.Executable>
rbdock ($Id: //depot/dev/client3/rdock/2013.1/src/exe/rbdock.cxx#4 $)

>  <Rbt.Library>
libRbt.so (2013.1, Build901 2013/11/27)

>  <Rbt.Parameter_File>
/export/apps/rDock/src/rDock_2013.1_src/data/scripts/dock_solv.prm

>  <Rbt.Receptor>
prm/pocket_docking_5.prm

>  <SCORE>
-39.8385

>  <SCORE.INTER>
-34.8194

>  <SCORE.INTER.CONST>
1

>  <SCORE.INTER.POLAR>
-4.24554

>  <SCORE.INTER.ROT>
9

>  <SCORE.INTER.SOLV>
18.3838

>  <SCORE.INTER.VDW>
-24.7891

>  <SCORE.INTER.norm>
-0.829033

>  <SCORE.INTRA>
-5.01914

>  <SCORE.INTRA.DIHEDRAL>
-2.29841

>  <SCORE.INTRA.DIHEDRAL.0>
30.1357

>  <SCORE.INTRA.POLAR>
-2.06519

>  <SCORE.INTRA.POLAR.0>
-0.631696

>  <SCORE.INTRA.REPUL>
0

>  <SCORE.INTRA.REPUL.0>
0

>  <SCORE.INTRA.SOLV>
1.09883

>  <SCORE.INTRA.SOLV.lig_0>
-55.904

>  <SCORE.INTRA.VDW>
2.60229

>  <SCORE.INTRA.VDW.0>
-8.21197

>  <SCORE.INTRA.norm>
-0.119503

>  <SCORE.RESTR>
0

>  <SCORE.RESTR.CAVITY>
0

>  <SCORE.RESTR.norm>
0

>  <SCORE.SYSTEM>
0

>  <SCORE.SYSTEM.CONST>
0

>  <SCORE.SYSTEM.DIHEDRAL>
0

>  <SCORE.SYSTEM.SOLV>
0

>  <SCORE.SYSTEM.norm>
0

>  <SCORE.heavy>
42

>  <SCORE.norm>
-0.948537

>  <RMSD>
7.641

$$$$
lig.pdb
 OpenBabel11021811453D
libRbt.so/2013.1/901 2013/11/27
 42 45  0  0  0  0  0  0  0  0999 V2000
   -2.1748    4.6964    1.6621 C   0  0  2  0  0  0  0  0  0  0  0  0
   -2.1136    6.0259    1.1424 O   0  0  0  0  0  0  0  0  0  0  0  0
   -3.5967    4.3588    2.1353 C   0  0  2  0  0  0  0  0  0  0  0  0
   -4.5790    4.5784    1.0577 N   0  0  0  0  0  0  0  0  0  0  0  0
   -3.9648    5.1634    3.3886 C   0  0  1  0  0  0  0  0  0  0  0  0
   -5.2134    4.7180    3.8827 O   0  0  0  0  0  0  0  0  0  0  0  0
   -2.8929    4.9786    4.4733 C   0  0  2  0  0  0  0  0  0  0  0  0
   -3.1667    5.8479    5.5554 O   0  0  0  0  0  0  0  0  0  0  0  0
   -1.4789    5.2574    3.9245 C   0  0  2  0  0  0  0  0  0  0  0  0
   -1.2382    4.5257    2.7230 O   0  0  0  0  0  0  0  0  0  0  0  0
   -0.4572    4.8422    5.0002 C   0  0  0  0  0  0  0  0  0  0  0  0
    0.6082    5.8183    5.1494 O   0  0  0  0  0  0  0  0  0  0  0  0
    0.9030    7.9132   -1.2803 C   0  0  2  0  0  0  0  0  0  0  0  0
    2.3064    8.1967   -1.6414 N   0  0  0  0  0  0  0  0  0  0  0  0
    0.6151    8.3859    0.1469 C   0  0  0  0  0  0  0  0  0  0  0  0
   -0.7870    7.9714    0.5772 C   0  0  2  0  0  0  0  0  0  0  0  0
   -1.0898    8.5130    1.9080 N   0  0  0  0  0  0  0  0  0  0  0  0
   -0.8714    6.4276    0.5467 C   0  0  2  0  0  0  0  0  0  0  0  0
   -0.7501    5.9748   -0.8731 C   0  0  2  0  0  0  0  0  0  0  0  0
   -0.8717    4.5643   -0.8830 O   0  0  0  0  0  0  0  0  0  0  0  0
    0.5885    6.4135   -1.4360 C   0  0  1  0  0  0  0  0  0  0  0  0
    0.7229    6.0838   -2.8058 O   0  0  0  0  0  0  0  0  0  0  0  0
   -0.2864    3.8560   -1.9705 C   0  0  1  0  0  0  0  0  0  0  0  0
    1.1130    3.4115   -1.5400 C   0  0  2  0  0  0  0  0  0  0  0  0
    1.9872    3.4763   -2.6510 O   0  0  0  0  0  0  0  0  0  0  0  0
    0.8695    1.9759   -1.0553 C   0  0  2  0  0  0  0  0  0  0  0  0
    2.0575    1.1838   -1.0525 O   0  0  0  0  0  0  0  0  0  0  0  0
   -0.1980    1.5326   -2.0633 C   0  0  2  0  0  0  0  0  0  0  0  0
   -1.0312    2.6718   -2.2260 O   0  0  0  0  0  0  0  0  0  0  0  0
   -1.0562    0.3506   -1.5977 C   0  0  0  0  0  0  0  0  0  0  0  0
   -2.0754    0.7645   -0.7129 O   0  0  0  0  0  0  0  0  0  0  0  0
    2.9834    1.5049   -0.0163 C   0  0  2  0  0  0  0  0  0  0  0  0
    3.9449    0.3415    0.2705 C   0  0  2  0  0  0  0  0  0  0  0  0
    4.6405   -0.0810   -0.9566 N   0  0  0  0  0  0  0  0  0  0  0  0
    3.2109   -0.8335    0.9338 C   0  0  1  0  0  0  0  0  0  0  0  0
    4.1574   -1.8355    1.2517 O   0  0  0  0  0  0  0  0  0  0  0  0
    2.5304   -0.3212    2.2145 C   0  0  2  0  0  0  0  0  0  0  0  0
    1.8015   -1.3587    2.8444 O   0  0  0  0  0  0  0  0  0  0  0  0
    1.6080    0.8769    1.9089 C   0  0  1  0  0  0  0  0  0  0  0  0
    2.2941    1.8906    1.1707 O   0  0  0  0  0  0  0  0  0  0  0  0
    0.2874    0.4725    1.2371 C   0  0  0  0  0  0  0  0  0  0  0  0
    0.4457   -0.7534    0.4381 N   0  0  0  0  0  0  0  0  0  0  0  0
  1  3  1  0  0  0  0
  1  2  1  1  0  0  0
  3  4  1  6  0  0  0
  5  6  1  1  0  0  0
  5  3  1  0  0  0  0
  7  9  1  0  0  0  0
  7  5  1  0  0  0  0
  7  8  1  1  0  0  0
  9 10  1  0  0  0  0
  9 11  1  1  0  0  0
 10  1  1  0  0  0  0
 11 12  1  0  0  0  0
 13 14  1  1  0  0  0
 13 21  1  0  0  0  0
 15 13  1  0  0  0  0
 16 15  1  0  0  0  0
 16 18  1  0  0  0  0
 16 17  1  1  0  0  0
 18  2  1  6  0  0  0
 18 19  1  0  0  0  0
 19 21  1  0  0  0  0
 19 20  1  1  0  0  0
 21 22  1  6  0  0  0
 23 20  1  1  0  0  0
 23 29  1  0  0  0  0
 23 24  1  0  0  0  0
 24 26  1  0  0  0  0
 24 25  1  6  0  0  0
 26 27  1  6  0  0  0
 28 26  1  0  0  0  0
 28 30  1  1  0  0  0
 29 28  1  0  0  0  0
 30 31  1  0  0  0  0
 32 27  1  6  0  0  0
 32 40  1  0  0  0  0
 32 33  1  0  0  0  0
 33 35  1  0  0  0  0
 33 34  1  6  0  0  0
 35 37  1  0  0  0  0
 35 36  1  1  0  0  0
 37 38  1  6  0  0  0
 39 37  1  0  0  0  0
 39 41  1  6  0  0  0
 40 39  1  0  0  0  0
 42 41  1  0  0  0  0
M  END
>  <CHROM.1>
-157.23626904,-174.21596802,-178.60165250,-44.60289851,-46.01697850,-81.17694141
-136.65586006,-58.88952228,-158.70465595,-155.69595354,94.53615670,-96.05468686
-85.42183648,72.94949176,158.70828902,80.05386835,52.76250749,-73.15192501
-75.65185856,165.30067372,-28.97240392,-66.87604437,-0.00758425,3.56079519
0.73607786,2.61408841,0.86516615,-0.58403807

>  <Name>
lig.pdb

>  <RI>
3.17932e+07

>  <Rbt.Current_Directory>
/home/itssahil/PROJECTS/Mol_Feturizer/New_Systems/rnas/2mxs

>  <Rbt.Executable>
rbdock ($Id: //depot/dev/client3/rdock/2013.1/src/exe/rbdock.cxx#4 $)

>  <Rbt.Library>
libRbt.so (2013.1, Build901 2013/11/27)

>  <Rbt.Parameter_File>
/export/apps/rDock/src/rDock_2013.1_src/data/scripts/dock_solv.prm

>  <Rbt.Receptor>
prm/blind_docking_100.prm

>  <SCORE>
89.1087

>  <SCORE.INTER>
52.9938

>  <SCORE.INTER.CONST>
1

>  <SCORE.INTER.POLAR>
-4.8932

>  <SCORE.INTER.ROT>
9

>  <SCORE.INTER.SOLV>
34.7176

>  <SCORE.INTER.VDW>
30.4673

>  <SCORE.INTER.norm>
1.26176

>  <SCORE.INTRA>
15.0679

>  <SCORE.INTRA.DIHEDRAL>
6.15986

>  <SCORE.INTRA.DIHEDRAL.0>
30.1357

>  <SCORE.INTRA.POLAR>
-0.479118

>  <SCORE.INTRA.POLAR.0>
-0.631696

>  <SCORE.INTRA.REPUL>
0

>  <SCORE.INTRA.REPUL.0>
0

>  <SCORE.INTRA.SOLV>
1.57925

>  <SCORE.INTRA.SOLV.lig_0>
-55.904

>  <SCORE.INTRA.VDW>
12.8274

>  <SCORE.INTRA.VDW.0>
-8.21197

>  <SCORE.INTRA.norm>
0.35876

>  <SCORE.RESTR>
21.047

>  <SCORE.RESTR.CAVITY>
21.047

>  <SCORE.RESTR.norm>
0.501118

>  <SCORE.SYSTEM>
0

>  <SCORE.SYSTEM.CONST>
0

>  <SCORE.SYSTEM.DIHEDRAL>
0

>  <SCORE.SYSTEM.SOLV>
0

>  <SCORE.SYSTEM.norm>
0

>  <SCORE.heavy>
42

>  <SCORE.norm>
2.12164

>  <RMSD>
7.643

$$$$
lig.pdb
 OpenBabel11021811453D
libRbt.so/2013.1/901 2013/11/27
 42 45  0  0  0  0  0  0  0  0999 V2000
   -0.3127    0.6758    3.9812 C   0  0  2  0  0  0  0  0  0  0  0  0
   -0.5824   -0.6359    4.4795 O   0  0  0  0  0  0  0  0  0  0  0  0
    1.0144    1.2111    4.5397 C   0  0  2  0  0  0  0  0  0  0  0  0
    2.1202    0.2754    4.2642 N   0  0  0  0  0  0  0  0  0  0  0  0
    0.9011    1.5032    6.0415 C   0  0  1  0  0  0  0  0  0  0  0  0
    2.0859    2.1347    6.4878 O   0  0  0  0  0  0  0  0  0  0  0  0
   -0.2994    2.4214    6.3159 C   0  0  2  0  0  0  0  0  0  0  0  0
   -0.4812    2.5499    7.7131 O   0  0  0  0  0  0  0  0  0  0  0  0
   -1.5887    1.8750    5.6698 C   0  0  2  0  0  0  0  0  0  0  0  0
   -1.3836    1.5637    4.2921 O   0  0  0  0  0  0  0  0  0  0  0  0
   -2.6840    2.9501    5.8029 C   0  0  0  0  0  0  0  0  0  0  0  0
   -3.0956    3.1449    7.1823 O   0  0  0  0  0  0  0  0  0  0  0  0
   -3.7656   -3.4060    3.6285 C   0  0  2  0  0  0  0  0  0  0  0  0
   -5.1508   -3.7299    3.2328 N   0  0  0  0  0  0  0  0  0  0  0  0
   -3.7606   -2.5651    4.9076 C   0  0  0  0  0  0  0  0  0  0  0  0
   -2.3460   -2.1085    5.2444 C   0  0  2  0  0  0  0  0  0  0  0  0
   -2.3371   -1.3871    6.5231 N   0  0  0  0  0  0  0  0  0  0  0  0
   -1.8250   -1.2329    4.0811 C   0  0  2  0  0  0  0  0  0  0  0  0
   -1.6774   -2.0953    2.8687 C   0  0  2  0  0  0  0  0  0  0  0  0
   -1.1606   -1.2850    1.8290 O   0  0  0  0  0  0  0  0  0  0  0  0
   -3.0256   -2.6786    2.4902 C   0  0  1  0  0  0  0  0  0  0  0  0
   -2.9302   -3.5721    1.3967 O   0  0  0  0  0  0  0  0  0  0  0  0
   -2.0861   -0.5283    1.0559 C   0  0  1  0  0  0  0  0  0  0  0  0
   -1.9242    0.9436    1.4419 C   0  0  2  0  0  0  0  0  0  0  0  0
   -3.1892    1.5774    1.4113 O   0  0  0  0  0  0  0  0  0  0  0  0
   -0.9689    1.4658    0.3603 C   0  0  2  0  0  0  0  0  0  0  0  0
   -1.0326    2.8836    0.2035 O   0  0  0  0  0  0  0  0  0  0  0  0
   -1.4679    0.6611   -0.8461 C   0  0  2  0  0  0  0  0  0  0  0  0
   -1.7523   -0.6287   -0.3227 O   0  0  0  0  0  0  0  0  0  0  0  0
   -0.4468    0.5236   -1.9814 C   0  0  0  0  0  0  0  0  0  0  0  0
    0.7280   -0.1287   -1.5482 O   0  0  0  0  0  0  0  0  0  0  0  0
   -0.3774    3.6252    1.2305 C   0  0  2  0  0  0  0  0  0  0  0  0
   -0.5541    5.1396    1.0421 C   0  0  2  0  0  0  0  0  0  0  0  0
   -1.9799    5.4958    0.9516 N   0  0  0  0  0  0  0  0  0  0  0  0
    0.2294    5.6414   -0.1802 C   0  0  1  0  0  0  0  0  0  0  0  0
    0.1003    7.0481   -0.2529 O   0  0  0  0  0  0  0  0  0  0  0  0
    1.7071    5.2527   -0.0036 C   0  0  2  0  0  0  0  0  0  0  0  0
    2.4691    5.6554   -1.1268 O   0  0  0  0  0  0  0  0  0  0  0  0
    1.8552    3.7354    0.2322 C   0  0  1  0  0  0  0  0  0  0  0  0
    1.0060    3.2850    1.2901 O   0  0  0  0  0  0  0  0  0  0  0  0
    1.6738    2.9005   -1.0440 C   0  0  0  0  0  0  0  0  0  0  0  0
    2.7843    3.1132   -1.9863 N   0  0  0  0  0  0  0  0  0  0  0  0
  1  3  1  0  0  0  0
  1  2  1  1  0  0  0
  3  4  1  1  0  0  0
  5  6  1  6  0  0  0
  5  3  1  0  0  0  0
  7  9  1  0  0  0  0
  7  5  1  0  0  0  0
  7  8  1  1  0  0  0
  9 10  1  0  0  0  0
  9 11  1  6  0  0  0
 10  1  1  0  0  0  0
 11 12  1  0  0  0  0
 13 14  1  6  0  0  0
 13 21  1  0  0  0  0
 15 13  1  0  0  0  0
 16 15  1  0  0  0  0
 16 18  1  0  0  0  0
 16 17  1  1  0  0  0
 18  2  1  1  0  0  0
 18 19  1  0  0  0  0
 19 21  1  0  0  0  0
 19 20  1  6  0  0  0
 21 22  1  6  0  0  0
 23 20  1  1  0  0  0
 23 29  1  0  0  0  0
 23 24  1  0  0  0  0
 24 26  1  0  0  0  0
 24 25  1  6  0  0  0
 26 27  1  6  0  0  0
 28 26  1  0  0  0  0
 28 30  1  6  0  0  0
 29 28  1  0  0  0  0
 30 31  1  0  0  0  0
 32 27  1  6  0  0  0
 32 40  1  0  0  0  0
 32 33  1  0  0  0  0
 33 35  1  0  0  0  0
 33 34  1  6  0  0  0
 35 37  1  0  0  0  0
 35 36  1  1  0  0  0
 37 38  1  6  0  0  0
 39 37  1  0  0  0  0
 39 41  1  6  0  0  0
 40 39  1  0  0  0  0
 42 41  1  0  0  0  0
M  END
>  <CHROM.1>
-146.05990160,177.36255050,-96.69871769,-169.06194855,67.37736770,-174.84426798
-68.28407961,-158.99708718,69.99358494,-85.18508366,108.08718495,69.86857527
64.96724512,75.76993862,-176.73361150,60.12654374,83.02615163,-166.89364165
-68.65978651,60.80841946,68.60346253,-162.05580689,-0.83892773,1.29246751
2.44992251,-2.66477306,-1.09407521,-1.76009162

>  <Name>
lig.pdb

>  <RI>
0

>  <Rbt.Current_Directory>
/home/itssahil/PROJECTS/Mol_Feturizer/New_Systems/rnas/2mxs

>  <Rbt.Executable>
rbdock ($Id: //depot/dev/client3/rdock/2013.1/src/exe/rbdock.cxx#4 $)

>  <Rbt.Library>
libRbt.so (2013.1, Build901 2013/11/27)

>  <Rbt.Parameter_File>
/export/apps/rDock/src/rDock_2013.1_src/data/scripts/dock_solv.prm

>  <Rbt.Receptor>
prm/pocket_docking_6.prm

>  <SCORE>
-40.1064

>  <SCORE.INTER>
-40.122

>  <SCORE.INTER.CONST>
1

>  <SCORE.INTER.POLAR>
-5.18347

>  <SCORE.INTER.ROT>
9

>  <SCORE.INTER.SOLV>
16.1547

>  <SCORE.INTER.VDW>
-24.4547

>  <SCORE.INTER.norm>
-0.955286

>  <SCORE.INTRA>
0.0155811

>  <SCORE.INTRA.DIHEDRAL>
-5.1672

>  <SCORE.INTRA.DIHEDRAL.0>
30.1357

>  <SCORE.INTRA.POLAR>
-0.148185

>  <SCORE.INTRA.POLAR.0>
-0.631696

>  <SCORE.INTRA.REPUL>
0

>  <SCORE.INTRA.REPUL.0>
0

>  <SCORE.INTRA.SOLV>
1.01469

>  <SCORE.INTRA.SOLV.lig_0>
-55.904

>  <SCORE.INTRA.VDW>
2.59566

>  <SCORE.INTRA.VDW.0>
-8.21197

>  <SCORE.INTRA.norm>
0.000370978

>  <SCORE.RESTR>
0

>  <SCORE.RESTR.CAVITY>
0

>  <SCORE.RESTR.norm>
0

>  <SCORE.SYSTEM>
0

>  <SCORE.SYSTEM.CONST>
0

>  <SCORE.SYSTEM.DIHEDRAL>
0

>  <SCORE.SYSTEM.SOLV>
0

>  <SCORE.SYSTEM.norm>
0

>  <SCORE.heavy>
42

>  <SCORE.norm>
-0.954915

>  <RMSD>
7.656

$$$$
lig.pdb
 OpenBabel11021811453D
libRbt.so/2013.1/901 2013/11/27
 42 45  0  0  0  0  0  0  0  0999 V2000
   -3.0179    4.5752    1.8747 C   0  0  2  0  0  0  0  0  0  0  0  0
   -2.8259    5.8215    1.2028 O   0  0  0  0  0  0  0  0  0  0  0  0
   -3.6974    4.7866    3.2360 C   0  0  2  0  0  0  0  0  0  0  0  0
   -4.9585    5.5361    3.0872 N   0  0  0  0  0  0  0  0  0  0  0  0
   -2.7521    5.4887    4.2194 C   0  0  1  0  0  0  0  0  0  0  0  0
   -3.3520    5.5291    5.5000 O   0  0  0  0  0  0  0  0  0  0  0  0
   -1.4175    4.7330    4.3062 C   0  0  2  0  0  0  0  0  0  0  0  0
   -0.5071    5.4788    5.0913 O   0  0  0  0  0  0  0  0  0  0  0  0
   -0.8175    4.4824    2.9078 C   0  0  2  0  0  0  0  0  0  0  0  0
   -1.7775    3.8908    2.0329 O   0  0  0  0  0  0  0  0  0  0  0  0
    0.3912    3.5406    3.0670 C   0  0  0  0  0  0  0  0  0  0  0  0
    1.2117    3.4952    1.8692 O   0  0  0  0  0  0  0  0  0  0  0  0
    0.6915    7.6686   -0.4547 C   0  0  2  0  0  0  0  0  0  0  0  0
    2.1515    7.8758   -0.5303 N   0  0  0  0  0  0  0  0  0  0  0  0
    0.1719    8.0458    0.9349 C   0  0  0  0  0  0  0  0  0  0  0  0
   -1.3072    7.7028    1.0664 C   0  0  2  0  0  0  0  0  0  0  0  0
   -1.8195    8.1573    2.3652 N   0  0  0  0  0  0  0  0  0  0  0  0
   -1.4737    6.1767    0.8794 C   0  0  2  0  0  0  0  0  0  0  0  0
   -1.1178    5.8310   -0.5310 C   0  0  2  0  0  0  0  0  0  0  0  0
   -1.3167    4.4385   -0.6922 O   0  0  0  0  0  0  0  0  0  0  0  0
    0.3251    6.2133   -0.8016 C   0  0  1  0  0  0  0  0  0  0  0  0
    0.6917    5.9850   -2.1493 O   0  0  0  0  0  0  0  0  0  0  0  0
   -0.7645    3.8194   -1.8492 C   0  0  1  0  0  0  0  0  0  0  0  0
    0.7215    3.5708   -1.5822 C   0  0  2  0  0  0  0  0  0  0  0  0
    1.4501    3.7573   -2.7811 O   0  0  0  0  0  0  0  0  0  0  0  0
    0.7314    2.1145   -1.0983 C   0  0  2  0  0  0  0  0  0  0  0  0
    2.0093    1.4934   -1.2391 O   0  0  0  0  0  0  0  0  0  0  0  0
   -0.3707    1.5305   -1.9906 C   0  0  2  0  0  0  0  0  0  0  0  0
   -1.3644    2.5445   -2.0417 O   0  0  0  0  0  0  0  0  0  0  0  0
   -1.0025    0.2408   -1.4540 C   0  0  0  0  0  0  0  0  0  0  0  0
   -1.9501    0.5079   -0.4421 O   0  0  0  0  0  0  0  0  0  0  0  0
    2.9689    1.8786   -0.2568 C   0  0  2  0  0  0  0  0  0  0  0  0
    4.2974    1.1270   -0.4313 C   0  0  2  0  0  0  0  0  0  0  0  0
    4.8266    1.3030   -1.7940 N   0  0  0  0  0  0  0  0  0  0  0  0
    4.1443   -0.3594   -0.0751 C   0  0  1  0  0  0  0  0  0  0  0  0
    5.4121   -0.9794   -0.1704 O   0  0  0  0  0  0  0  0  0  0  0  0
    3.6104   -0.4621    1.3638 C   0  0  2  0  0  0  0  0  0  0  0  0
    3.4097   -1.8153    1.7285 O   0  0  0  0  0  0  0  0  0  0  0  0
    2.3026    0.3396    1.5266 C   0  0  1  0  0  0  0  0  0  0  0  0
    2.4495    1.6815    1.0563 O   0  0  0  0  0  0  0  0  0  0  0  0
    1.0814   -0.3552    0.9064 C   0  0  0  0  0  0  0  0  0  0  0  0
    1.4668   -1.1955   -0.2389 N   0  0  0  0  0  0  0  0  0  0  0  0
  1  3  1  0  0  0  0
  1  2  1  1  0  0  0
  3  4  1  6  0  0  0
  5  6  1  1  0  0  0
  5  3  1  0  0  0  0
  7  9  1  0  0  0  0
  7  5  1  0  0  0  0
  7  8  1  1  0  0  0
  9 10  1  0  0  0  0
  9 11  1  1  0  0  0
 10  1  1  0  0  0  0
 11 12  1  0  0  0  0
 13 14  1  1  0  0  0
 13 21  1  0  0  0  0
 15 13  1  0  0  0  0
 16 15  1  0  0  0  0
 16 18  1  0  0  0  0
 16 17  1  1  0  0  0
 18  2  1  6  0  0  0
 18 19  1  0  0  0  0
 19 21  1  0  0  0  0
 19 20  1  1  0  0  0
 21 22  1  6  0  0  0
 23 20  1  1  0  0  0
 23 29  1  0  0  0  0
 23 24  1  0  0  0  0
 24 26  1  0  0  0  0
 24 25  1  6  0  0  0
 26 27  1  6  0  0  0
 28 26  1  0  0  0  0
 28 30  1  1  0  0  0
 29 28  1  0  0  0  0
 30 31  1  0  0  0  0
 32 27  1  6  0  0  0
 32 40  1  0  0  0  0
 32 33  1  0  0  0  0
 33 35  1  0  0  0  0
 33 34  1  6  0  0  0
 35 37  1  0  0  0  0
 35 36  1  1  0  0  0
 37 38  1  6  0  0  0
 39 37  1  0  0  0  0
 39 41  1  6  0  0  0
 40 39  1  0  0  0  0
 42 41  1  0  0  0  0
M  END
>  <CHROM.1>
-142.86975983,120.40680642,72.29619273,75.26625193,74.16374216,-169.98246447
-166.32363405,-94.95847859,-69.36160614,-166.11878261,80.51364004,-58.01792687
-161.19550755,76.45189439,177.46926381,79.18844086,-74.51982763,107.30711535
-27.70282618,33.53131882,-29.34901079,177.84118352,0.23083433,3.46055167
0.65989885,2.73873148,0.84186022,-0.62403360

>  <Name>
lig.pdb

>  <RI>
3.17932e+07

>  <Rbt.Current_Directory>
/home/itssahil/PROJECTS/Mol_Feturizer/New_Systems/rnas/2mxs

>  <Rbt.Executable>
rbdock ($Id: //depot/dev/client3/rdock/2013.1/src/exe/rbdock.cxx#4 $)

>  <Rbt.Library>
libRbt.so (2013.1, Build901 2013/11/27)

>  <Rbt.Parameter_File>
/export/apps/rDock/src/rDock_2013.1_src/data/scripts/dock_solv.prm

>  <Rbt.Receptor>
prm/blind_docking_100.prm

>  <SCORE>
144.089

>  <SCORE.INTER>
108.06

>  <SCORE.INTER.CONST>
1

>  <SCORE.INTER.POLAR>
-3.08996

>  <SCORE.INTER.ROT>
9

>  <SCORE.INTER.SOLV>
35.5658

>  <SCORE.INTER.VDW>
60.8846

>  <SCORE.INTER.norm>
2.57286

>  <SCORE.INTRA>
20.0403

>  <SCORE.INTRA.DIHEDRAL>
9.21395

>  <SCORE.INTRA.DIHEDRAL.0>
30.1357

>  <SCORE.INTRA.POLAR>
-0.62944

>  <SCORE.INTRA.POLAR.0>
-0.631696

>  <SCORE.INTRA.REPUL>
0.316295

>  <SCORE.INTRA.REPUL.0>
0

>  <SCORE.INTRA.SOLV>
4.88817

>  <SCORE.INTRA.SOLV.lig_0>
-55.904

>  <SCORE.INTRA.VDW>
13.5478

>  <SCORE.INTRA.VDW.0>
-8.21197

>  <SCORE.INTRA.norm>
0.477149

>  <SCORE.RESTR>
15.9891

>  <SCORE.RESTR.CAVITY>
15.9891

>  <SCORE.RESTR.norm>
0.380693

>  <SCORE.SYSTEM>
0

>  <SCORE.SYSTEM.CONST>
0

>  <SCORE.SYSTEM.DIHEDRAL>
0

>  <SCORE.SYSTEM.SOLV>
0

>  <SCORE.SYSTEM.norm>
0

>  <SCORE.heavy>
42

>  <SCORE.norm>
3.4307

>  <RMSD>
7.660

$$$$
lig.pdb
 OpenBabel11021811453D
libRbt.so/2013.1/901 2013/11/27
 42 45  0  0  0  0  0  0  0  0999 V2000
   -2.1355    4.6716    1.7011 C   0  0  2  0  0  0  0  0  0  0  0  0
   -2.1282    5.9616    1.0869 O   0  0  0  0  0  0  0  0  0  0  0  0
   -3.5092    4.3668    2.3174 C   0  0  2  0  0  0  0  0  0  0  0  0
   -4.5819    4.5100    1.3158 N   0  0  0  0  0  0  0  0  0  0  0  0
   -3.7736    5.2567    3.5388 C   0  0  1  0  0  0  0  0  0  0  0  0
   -4.9721    4.8459    4.1684 O   0  0  0  0  0  0  0  0  0  0  0  0
   -2.6113    5.1488    4.5374 C   0  0  2  0  0  0  0  0  0  0  0  0
   -2.7970    6.0914    5.5759 O   0  0  0  0  0  0  0  0  0  0  0  0
   -1.2516    5.3897    3.8507 C   0  0  2  0  0  0  0  0  0  0  0  0
   -1.1101    4.5761    2.6866 O   0  0  0  0  0  0  0  0  0  0  0  0
   -0.1385    5.0513    4.8605 C   0  0  0  0  0  0  0  0  0  0  0  0
    0.1551    6.1651    5.7457 O   0  0  0  0  0  0  0  0  0  0  0  0
    0.8794    7.9324   -1.2799 C   0  0  2  0  0  0  0  0  0  0  0  0
    2.2812    8.2446   -1.6230 N   0  0  0  0  0  0  0  0  0  0  0  0
    0.5692    8.3811    0.1504 C   0  0  0  0  0  0  0  0  0  0  0  0
   -0.8297    7.9369    0.5610 C   0  0  2  0  0  0  0  0  0  0  0  0
   -1.1550    8.4554    1.8956 N   0  0  0  0  0  0  0  0  0  0  0  0
   -0.8872    6.3924    0.5093 C   0  0  2  0  0  0  0  0  0  0  0  0
   -0.7440    5.9608   -0.9151 C   0  0  2  0  0  0  0  0  0  0  0  0
   -0.8411    4.5486   -0.9448 O   0  0  0  0  0  0  0  0  0  0  0  0
    0.5924    6.4297   -1.4585 C   0  0  1  0  0  0  0  0  0  0  0  0
    0.7460    6.1207   -2.8311 O   0  0  0  0  0  0  0  0  0  0  0  0
   -0.2260    3.8644   -2.0312 C   0  0  1  0  0  0  0  0  0  0  0  0
    1.1829    3.4605   -1.5918 C   0  0  2  0  0  0  0  0  0  0  0  0
    2.0634    3.5580   -2.6955 O   0  0  0  0  0  0  0  0  0  0  0  0
    0.9796    2.0156   -1.1166 C   0  0  2  0  0  0  0  0  0  0  0  0
    2.1912    1.2601   -1.1083 O   0  0  0  0  0  0  0  0  0  0  0  0
   -0.0659    1.5454   -2.1354 C   0  0  2  0  0  0  0  0  0  0  0  0
   -0.9322    2.6595   -2.2989 O   0  0  0  0  0  0  0  0  0  0  0  0
   -0.8912    0.3352   -1.6828 C   0  0  0  0  0  0  0  0  0  0  0  0
   -2.2162    0.7005   -1.3603 O   0  0  0  0  0  0  0  0  0  0  0  0
    3.0395    1.5095    0.0107 C   0  0  2  0  0  0  0  0  0  0  0  0
    3.9714    0.3219    0.2962 C   0  0  2  0  0  0  0  0  0  0  0  0
    4.7538   -0.0324   -0.8998 N   0  0  0  0  0  0  0  0  0  0  0  0
    3.1846   -0.8841    0.8311 C   0  0  1  0  0  0  0  0  0  0  0  0
    4.1001   -1.9122    1.1562 O   0  0  0  0  0  0  0  0  0  0  0  0
    2.4137   -0.4435    2.0870 C   0  0  2  0  0  0  0  0  0  0  0  0
    1.6351   -1.5102    2.5972 O   0  0  0  0  0  0  0  0  0  0  0  0
    1.5223    0.7794    1.7878 C   0  0  1  0  0  0  0  0  0  0  0  0
    2.2661    1.8293    1.1651 O   0  0  0  0  0  0  0  0  0  0  0  0
    0.2531    0.4286    0.9973 C   0  0  0  0  0  0  0  0  0  0  0  0
   -0.7297   -0.2683    1.8427 N   0  0  0  0  0  0  0  0  0  0  0  0
  1  3  1  0  0  0  0
  1  2  1  1  0  0  0
  3  4  1  6  0  0  0
  5  6  1  1  0  0  0
  5  3  1  0  0  0  0
  7  9  1  0  0  0  0
  7  5  1  0  0  0  0
  7  8  1  1  0  0  0
  9 10  1  0  0  0  0
  9 11  1  1  0  0  0
 10  1  1  0  0  0  0
 11 12  1  0  0  0  0
 13 14  1  1  0  0  0
 13 21  1  0  0  0  0
 15 13  1  0  0  0  0
 16 15  1  0  0  0  0
 16 18  1  0  0  0  0
 16 17  1  1  0  0  0
 18  2  1  6  0  0  0
 18 19  1  0  0  0  0
 19 21  1  0  0  0  0
 19 20  1  1  0  0  0
 21 22  1  6  0  0  0
 23 20  1  1  0  0  0
 23 29  1  0  0  0  0
 23 24  1  0  0  0  0
 24 26  1  0  0  0  0
 24 25  1  6  0  0  0
 26 27  1  6  0  0  0
 28 26  1  0  0  0  0
 28 30  1  1  0  0  0
 29 28  1  0  0  0  0
 30 31  1  0  0  0  0
 32 27  1  6  0  0  0
 32 40  1  0  0  0  0
 32 33  1  0  0  0  0
 33 35  1  0  0  0  0
 33 34  1  6  0  0  0
 35 37  1  0  0  0  0
 35 36  1  1  0  0  0
 37 38  1  6  0  0  0
 39 37  1  0  0  0  0
 39 41  1  6  0  0  0
 40 39  1  0  0  0  0
 42 41  1  0  0  0  0
M  END
>  <CHROM.1>
-151.52016909,177.96662784,-164.28687568,-64.94391018,-34.34478213,-162.03483474
-84.09243317,64.07986801,-150.54523615,-155.32174262,93.52573372,-97.56155566
-80.08121749,78.85579143,155.82748092,107.64376242,-179.97119724,-68.47333684
-72.74105116,-38.13777248,73.32644289,108.87752363,-0.00536393,3.59138542
0.75735331,2.63692742,0.90876465,-0.58791787

>  <Name>
lig.pdb

>  <RI>
3.17932e+07

>  <Rbt.Current_Directory>
/home/itssahil/PROJECTS/Mol_Feturizer/New_Systems/rnas/2mxs

>  <Rbt.Executable>
rbdock ($Id: //depot/dev/client3/rdock/2013.1/src/exe/rbdock.cxx#4 $)

>  <Rbt.Library>
libRbt.so (2013.1, Build901 2013/11/27)

>  <Rbt.Parameter_File>
/export/apps/rDock/src/rDock_2013.1_src/data/scripts/dock_solv.prm

>  <Rbt.Receptor>
prm/blind_docking_100.prm

>  <SCORE>
95.9433

>  <SCORE.INTER>
55.5999

>  <SCORE.INTER.CONST>
1

>  <SCORE.INTER.POLAR>
-4.6769

>  <SCORE.INTER.ROT>
9

>  <SCORE.INTER.SOLV>
33.6929

>  <SCORE.INTER.VDW>
31.8253

>  <SCORE.INTER.norm>
1.32381

>  <SCORE.INTRA>
19.0135

>  <SCORE.INTRA.DIHEDRAL>
11.5159

>  <SCORE.INTRA.DIHEDRAL.0>
30.1357

>  <SCORE.INTRA.POLAR>
0.358168

>  <SCORE.INTRA.POLAR.0>
-0.631696

>  <SCORE.INTRA.REPUL>
0.00568002

>  <SCORE.INTRA.REPUL.0>
0

>  <SCORE.INTRA.SOLV>
0.639076

>  <SCORE.INTRA.SOLV.lig_0>
-55.904

>  <SCORE.INTRA.VDW>
11.6898

>  <SCORE.INTRA.VDW.0>
-8.21197

>  <SCORE.INTRA.norm>
0.452703

>  <SCORE.RESTR>
21.3299

>  <SCORE.RESTR.CAVITY>
21.3299

>  <SCORE.RESTR.norm>
0.507854

>  <SCORE.SYSTEM>
0

>  <SCORE.SYSTEM.CONST>
0

>  <SCORE.SYSTEM.DIHEDRAL>
0

>  <SCORE.SYSTEM.SOLV>
0

>  <SCORE.SYSTEM.norm>
0

>  <SCORE.heavy>
42

>  <SCORE.norm>
2.28437

>  <RMSD>
7.672

$$$$
lig.pdb
 OpenBabel11021811453D
libRbt.so/2013.1/901 2013/11/27
 42 45  0  0  0  0  0  0  0  0999 V2000
   -2.8735    4.7815    1.9100 C   0  0  2  0  0  0  0  0  0  0  0  0
   -2.6318    6.0997    1.4145 O   0  0  0  0  0  0  0  0  0  0  0  0
   -3.4280    4.8283    3.3418 C   0  0  2  0  0  0  0  0  0  0  0  0
   -4.6312    5.6776    3.4157 N   0  0  0  0  0  0  0  0  0  0  0  0
   -2.3564    5.3041    4.3312 C   0  0  1  0  0  0  0  0  0  0  0  0
   -2.8519    5.1892    5.6514 O   0  0  0  0  0  0  0  0  0  0  0  0
   -1.0854    4.4532    4.1889 C   0  0  2  0  0  0  0  0  0  0  0  0
   -0.0599    5.0047    4.9925 O   0  0  0  0  0  0  0  0  0  0  0  0
   -0.6160    4.3788    2.7217 C   0  0  2  0  0  0  0  0  0  0  0  0
   -1.6849    3.9965    1.8567 O   0  0  0  0  0  0  0  0  0  0  0  0
    0.5202    3.3421    2.6344 C   0  0  0  0  0  0  0  0  0  0  0  0
    0.0336    1.9819    2.7868 O   0  0  0  0  0  0  0  0  0  0  0  0
    0.7406    7.6386   -0.7739 C   0  0  2  0  0  0  0  0  0  0  0  0
    2.1897    7.7815   -1.0191 N   0  0  0  0  0  0  0  0  0  0  0  0
    0.3812    8.1708    0.6156 C   0  0  0  0  0  0  0  0  0  0  0  0
   -1.0847    7.8990    0.9320 C   0  0  2  0  0  0  0  0  0  0  0  0
   -1.4443    8.4989    2.2230 N   0  0  0  0  0  0  0  0  0  0  0  0
   -1.3120    6.3694    0.9200 C   0  0  2  0  0  0  0  0  0  0  0  0
   -1.1166    5.8727   -0.4766 C   0  0  2  0  0  0  0  0  0  0  0  0
   -1.3698    4.4797   -0.4734 O   0  0  0  0  0  0  0  0  0  0  0  0
    0.2997    6.1712   -0.9309 C   0  0  1  0  0  0  0  0  0  0  0  0
    0.5155    5.7970   -2.2787 O   0  0  0  0  0  0  0  0  0  0  0  0
   -0.7584    3.6923   -1.4898 C   0  0  1  0  0  0  0  0  0  0  0  0
    0.5583    3.1484   -0.9312 C   0  0  2  0  0  0  0  0  0  0  0  0
    1.5237    3.1068   -1.9651 O   0  0  0  0  0  0  0  0  0  0  0  0
    0.1555    1.7534   -0.4343 C   0  0  2  0  0  0  0  0  0  0  0  0
    1.2683    0.8673   -0.3113 O   0  0  0  0  0  0  0  0  0  0  0  0
   -0.8585    1.3677   -1.5184 C   0  0  2  0  0  0  0  0  0  0  0  0
   -1.5765    2.5657   -1.7789 O   0  0  0  0  0  0  0  0  0  0  0  0
   -1.8487    0.2750   -1.0989 C   0  0  0  0  0  0  0  0  0  0  0  0
   -1.1933   -0.8096   -0.4766 O   0  0  0  0  0  0  0  0  0  0  0  0
    2.2997    1.3258    0.5606 C   0  0  2  0  0  0  0  0  0  0  0  0
    3.6651    1.3660   -0.1424 C   0  0  2  0  0  0  0  0  0  0  0  0
    3.6016    2.1776   -1.3693 N   0  0  0  0  0  0  0  0  0  0  0  0
    4.1816   -0.0514   -0.4319 C   0  0  1  0  0  0  0  0  0  0  0  0
    5.4741    0.0460   -0.9982 O   0  0  0  0  0  0  0  0  0  0  0  0
    4.2406   -0.8278    0.8946 C   0  0  2  0  0  0  0  0  0  0  0  0
    4.6711   -2.1590    0.6775 O   0  0  0  0  0  0  0  0  0  0  0  0
    2.8714   -0.8133    1.6050 C   0  0  1  0  0  0  0  0  0  0  0  0
    2.3623    0.5163    1.7327 O   0  0  0  0  0  0  0  0  0  0  0  0
    1.8450   -1.7618    0.9681 C   0  0  0  0  0  0  0  0  0  0  0  0
    1.7310   -1.5333   -0.4814 N   0  0  0  0  0  0  0  0  0  0  0  0
  1  3  1  0  0  0  0
  1  2  1  1  0  0  0
  3  4  1  6  0  0  0
  5  6  1  1  0  0  0
  5  3  1  0  0  0  0
  7  9  1  0  0  0  0
  7  5  1  0  0  0  0
  7  8  1  1  0  0  0
  9 10  1  0  0  0  0
  9 11  1  1  0  0  0
 10  1  1  0  0  0  0
 11 12  1  0  0  0  0
 13 14  1  1  0  0  0
 13 21  1  0  0  0  0
 15 13  1  0  0  0  0
 16 15  1  0  0  0  0
 16 18  1  0  0  0  0
 16 17  1  1  0  0  0
 18  2  1  6  0  0  0
 18 19  1  0  0  0  0
 19 21  1  0  0  0  0
 19 20  1  1  0  0  0
 21 22  1  6  0  0  0
 23 20  1  1  0  0  0
 23 29  1  0  0  0  0
 23 24  1  0  0  0  0
 24 26  1  0  0  0  0
 24 25  1  6  0  0  0
 26 27  1  6  0  0  0
 28 26  1  0  0  0  0
 28 30  1  1  0  0  0
 29 28  1  0  0  0  0
 30 31  1  0  0  0  0
 32 27  1  6  0  0  0
 32 40  1  0  0  0  0
 32 33  1  0  0  0  0
 33 35  1  0  0  0  0
 33 34  1  6  0  0  0
 35 37  1  0  0  0  0
 35 36  1  1  0  0  0
 37 38  1  6  0  0  0
 39 37  1  0  0  0  0
 39 41  1  6  0  0  0
 40 39  1  0  0  0  0
 42 41  1  0  0  0  0
M  END
>  <CHROM.1>
-159.16620188,125.72857871,-41.66995540,66.45411380,57.22804165,177.66484677
71.87322326,168.91609594,-56.29244256,-155.26274935,93.69731707,-48.06198199
59.89231312,57.87362769,-124.84107471,-47.01054020,-165.04738039,74.69828734
-70.24110441,-51.95067752,-51.88724586,178.80086468,0.26015941,3.26348152
0.73468933,2.54257560,0.83088164,-0.49152996

>  <Name>
lig.pdb

>  <RI>
0

>  <Rbt.Current_Directory>
/home/itssahil/PROJECTS/Mol_Feturizer/New_Systems/rnas/2mxs

>  <Rbt.Executable>
rbdock ($Id: //depot/dev/client3/rdock/2013.1/src/exe/rbdock.cxx#4 $)

>  <Rbt.Library>
libRbt.so (2013.1, Build901 2013/11/27)

>  <Rbt.Parameter_File>
/export/apps/rDock/src/rDock_2013.1_src/data/scripts/dock_solv.prm

>  <Rbt.Receptor>
prm/blind_docking_80.prm

>  <SCORE>
77.4707

>  <SCORE.INTER>
58.0008

>  <SCORE.INTER.CONST>
1

>  <SCORE.INTER.POLAR>
-3.35735

>  <SCORE.INTER.ROT>
9

>  <SCORE.INTER.SOLV>
32.6438

>  <SCORE.INTER.VDW>
29.3771

>  <SCORE.INTER.norm>
1.38097

>  <SCORE.INTRA>
4.93161

>  <SCORE.INTRA.DIHEDRAL>
-0.829223

>  <SCORE.INTRA.DIHEDRAL.0>
30.1357

>  <SCORE.INTRA.POLAR>
-1.9428

>  <SCORE.INTRA.POLAR.0>
-0.631696

>  <SCORE.INTRA.REPUL>
0.0167024

>  <SCORE.INTRA.REPUL.0>
0

>  <SCORE.INTRA.SOLV>
5.35293

>  <SCORE.INTRA.SOLV.lig_0>
-55.904

>  <SCORE.INTRA.VDW>
9.19175

>  <SCORE.INTRA.VDW.0>
-8.21197

>  <SCORE.INTRA.norm>
0.117419

>  <SCORE.RESTR>
14.5383

>  <SCORE.RESTR.CAVITY>
14.5383

>  <SCORE.RESTR.norm>
0.346149

>  <SCORE.SYSTEM>
0

>  <SCORE.SYSTEM.CONST>
0

>  <SCORE.SYSTEM.DIHEDRAL>
0

>  <SCORE.SYSTEM.SOLV>
0

>  <SCORE.SYSTEM.norm>
0

>  <SCORE.heavy>
42

>  <SCORE.norm>
1.84454

>  <RMSD>
7.677

$$$$
lig.pdb
 OpenBabel11021811453D
libRbt.so/2013.1/901 2013/11/27
 42 45  0  0  0  0  0  0  0  0999 V2000
   -3.1811   -2.0376    3.6326 C   0  0  2  0  0  0  0  0  0  0  0  0
   -3.7045   -0.8152    4.1554 O   0  0  0  0  0  0  0  0  0  0  0  0
   -1.6451   -2.0151    3.6225 C   0  0  2  0  0  0  0  0  0  0  0  0
   -1.1116   -1.7122    4.9634 N   0  0  0  0  0  0  0  0  0  0  0  0
   -1.1166   -1.0198    2.5815 C   0  0  1  0  0  0  0  0  0  0  0  0
    0.2906   -1.1362    2.4926 O   0  0  0  0  0  0  0  0  0  0  0  0
   -1.7389   -1.3069    1.2068 C   0  0  2  0  0  0  0  0  0  0  0  0
   -1.3641   -0.2871    0.3007 O   0  0  0  0  0  0  0  0  0  0  0  0
   -3.2765   -1.3930    1.2889 C   0  0  2  0  0  0  0  0  0  0  0  0
   -3.6888   -2.2851    2.3239 O   0  0  0  0  0  0  0  0  0  0  0  0
   -3.8013   -1.8944   -0.0699 C   0  0  0  0  0  0  0  0  0  0  0  0
   -3.4392   -3.2789   -0.3199 O   0  0  0  0  0  0  0  0  0  0  0  0
   -4.7045    0.2000    8.2175 C   0  0  2  0  0  0  0  0  0  0  0  0
   -4.5068    0.1097    9.6780 N   0  0  0  0  0  0  0  0  0  0  0  0
   -5.0258   -1.1799    7.6379 C   0  0  0  0  0  0  0  0  0  0  0  0
   -5.0921   -1.1209    6.1164 C   0  0  2  0  0  0  0  0  0  0  0  0
   -5.4969   -2.4246    5.5757 N   0  0  0  0  0  0  0  0  0  0  0  0
   -3.7101   -0.6762    5.5836 C   0  0  2  0  0  0  0  0  0  0  0  0
   -3.4669    0.7338    6.0176 C   0  0  2  0  0  0  0  0  0  0  0  0
   -2.2177    1.1346    5.4852 O   0  0  0  0  0  0  0  0  0  0  0  0
   -3.4662    0.8084    7.5328 C   0  0  1  0  0  0  0  0  0  0  0  0
   -3.3235    2.1370    7.9994 O   0  0  0  0  0  0  0  0  0  0  0  0
   -1.9391    2.5295    5.4258 C   0  0  1  0  0  0  0  0  0  0  0  0
   -0.6518    2.7152    4.6196 C   0  0  2  0  0  0  0  0  0  0  0  0
    0.0904    3.7902    5.1639 O   0  0  0  0  0  0  0  0  0  0  0  0
   -1.1838    3.0103    3.2107 C   0  0  2  0  0  0  0  0  0  0  0  0
   -0.2296    3.6831    2.3887 O   0  0  0  0  0  0  0  0  0  0  0  0
   -2.4266    3.8367    3.5635 C   0  0  2  0  0  0  0  0  0  0  0  0
   -2.9712    3.1931    4.7070 O   0  0  0  0  0  0  0  0  0  0  0  0
   -3.4919    3.8797    2.4618 C   0  0  0  0  0  0  0  0  0  0  0  0
   -4.5218    4.7949    2.7697 O   0  0  0  0  0  0  0  0  0  0  0  0
   -0.4415    3.5319    0.9864 C   0  0  2  0  0  0  0  0  0  0  0  0
    0.8705    3.6461    0.1954 C   0  0  2  0  0  0  0  0  0  0  0  0
    1.8698    2.6855    0.6921 N   0  0  0  0  0  0  0  0  0  0  0  0
    1.4107    5.0838    0.2223 C   0  0  1  0  0  0  0  0  0  0  0  0
    2.5671    5.1469   -0.5897 O   0  0  0  0  0  0  0  0  0  0  0  0
    0.3236    6.0221   -0.3289 C   0  0  2  0  0  0  0  0  0  0  0  0
    0.7557    7.3697   -0.2859 O   0  0  0  0  0  0  0  0  0  0  0  0
   -0.9976    5.8547    0.4495 C   0  0  1  0  0  0  0  0  0  0  0  0
   -1.3946    4.4832    0.5177 O   0  0  0  0  0  0  0  0  0  0  0  0
   -0.9753    6.5150    1.8360 C   0  0  0  0  0  0  0  0  0  0  0  0
   -1.0506    7.9813    1.7327 N   0  0  0  0  0  0  0  0  0  0  0  0
  1  3  1  0  0  0  0
  1  2  1  6  0  0  0
  3  4  1  1  0  0  0
  5  6  1  6  0  0  0
  5  3  1  0  0  0  0
  7  9  1  0  0  0  0
  7  5  1  0  0  0  0
  7  8  1  6  0  0  0
  9 10  1  0  0  0  0
  9 11  1  6  0  0  0
 10  1  1  0  0  0  0
 11 12  1  0  0  0  0
 13 14  1  1  0  0  0
 13 21  1  0  0  0  0
 15 13  1  0  0  0  0
 16 15  1  0  0  0  0
 16 18  1  0  0  0  0
 16 17  1  6  0  0  0
 18  2  1  6  0  0  0
 18 19  1  0  0  0  0
 19 21  1  0  0  0  0
 19 20  1  1  0  0  0
 21 22  1  6  0  0  0
 23 20  1  6  0  0  0
 23 29  1  0  0  0  0
 23 24  1  0  0  0  0
 24 26  1  0  0  0  0
 24 25  1  1  0  0  0
 26 27  1  6  0  0  0
 28 26  1  0  0  0  0
 28 30  1  6  0  0  0
 29 28  1  0  0  0  0
 30 31  1  0  0  0  0
 32 27  1  1  0  0  0
 32 40  1  0  0  0  0
 32 33  1  0  0  0  0
 33 35  1  0  0  0  0
 33 34  1  1  0  0  0
 35 37  1  0  0  0  0
 35 36  1  6  0  0  0
 37 38  1  1  0  0  0
 39 37  1  0  0  0  0
 39 41  1  1  0  0  0
 40 39  1  0  0  0  0
 42 41  1  0  0  0  0
M  END
>  <CHROM.1>
-94.36941821,-79.60252731,-68.56231057,-60.57322246,69.44813154,-54.97071899
68.56910028,-179.07533755,-71.03689716,162.18239489,-171.07346640,-62.11804782
-166.64784559,157.15722035,-152.31342866,-172.03747290,-156.68576409,-167.74156019
63.61682790,71.09601101,73.41463208,44.17622693,-1.95414889,1.69320651,3.21924579
-2.82465103,1.08135612,0.55029543

>  <Name>
lig.pdb

>  <RI>
4.11275e+07

>  <Rbt.Current_Directory>
/home/itssahil/PROJECTS/Mol_Feturizer/New_Systems/rnas/2mxs

>  <Rbt.Executable>
rbdock ($Id: //depot/dev/client3/rdock/2013.1/src/exe/rbdock.cxx#4 $)

>  <Rbt.Library>
libRbt.so (2013.1, Build901 2013/11/27)

>  <Rbt.Parameter_File>
/export/apps/rDock/src/rDock_2013.1_src/data/scripts/dock_solv.prm

>  <Rbt.Receptor>
prm/pocket_docking_8.prm

>  <SCORE>
-43.7933

>  <SCORE.INTER>
-37.5866

>  <SCORE.INTER.CONST>
1

>  <SCORE.INTER.POLAR>
-4.64484

>  <SCORE.INTER.ROT>
9

>  <SCORE.INTER.SOLV>
17.7009

>  <SCORE.INTER.VDW>
-25.0752

>  <SCORE.INTER.norm>
-0.894918

>  <SCORE.INTRA>
-6.20674

>  <SCORE.INTRA.DIHEDRAL>
-9.06613

>  <SCORE.INTRA.DIHEDRAL.0>
30.1357

>  <SCORE.INTRA.POLAR>
-0.699894

>  <SCORE.INTRA.POLAR.0>
-0.631696

>  <SCORE.INTRA.REPUL>
0

>  <SCORE.INTRA.REPUL.0>
0

>  <SCORE.INTRA.SOLV>
-0.513736

>  <SCORE.INTRA.SOLV.lig_0>
-55.904

>  <SCORE.INTRA.VDW>
0.962833

>  <SCORE.INTRA.VDW.0>
-8.21197

>  <SCORE.INTRA.norm>
-0.14778

>  <SCORE.RESTR>
0

>  <SCORE.RESTR.CAVITY>
0

>  <SCORE.RESTR.norm>
0

>  <SCORE.SYSTEM>
0

>  <SCORE.SYSTEM.CONST>
0

>  <SCORE.SYSTEM.DIHEDRAL>
0

>  <SCORE.SYSTEM.SOLV>
0

>  <SCORE.SYSTEM.norm>
0

>  <SCORE.heavy>
42

>  <SCORE.norm>
-1.0427

>  <RMSD>
7.695

$$$$
lig.pdb
 OpenBabel11021811453D
libRbt.so/2013.1/901 2013/11/27
 42 45  0  0  0  0  0  0  0  0999 V2000
   -3.0017    4.3454    1.6969 C   0  0  2  0  0  0  0  0  0  0  0  0
   -3.6226    4.7993    2.9010 O   0  0  0  0  0  0  0  0  0  0  0  0
   -4.0476    3.7936    0.7164 C   0  0  2  0  0  0  0  0  0  0  0  0
   -5.1039    4.7885    0.4543 N   0  0  0  0  0  0  0  0  0  0  0  0
   -4.6453    2.4784    1.2326 C   0  0  1  0  0  0  0  0  0  0  0  0
   -5.4864    1.9232    0.2397 O   0  0  0  0  0  0  0  0  0  0  0  0
   -3.5264    1.4807    1.5678 C   0  0  2  0  0  0  0  0  0  0  0  0
   -4.0868    0.3393    2.1880 O   0  0  0  0  0  0  0  0  0  0  0  0
   -2.4661    2.1104    2.4938 C   0  0  2  0  0  0  0  0  0  0  0  0
   -2.0100    3.3615    1.9803 O   0  0  0  0  0  0  0  0  0  0  0  0
   -1.2826    1.1302    2.6027 C   0  0  0  0  0  0  0  0  0  0  0  0
   -1.5836    0.0018    3.4667 O   0  0  0  0  0  0  0  0  0  0  0  0
   -2.0144    7.3979    5.9328 C   0  0  2  0  0  0  0  0  0  0  0  0
   -0.9707    7.7981    6.8975 N   0  0  0  0  0  0  0  0  0  0  0  0
   -2.5526    6.0071    6.2778 C   0  0  0  0  0  0  0  0  0  0  0  0
   -3.5272    5.5280    5.2084 C   0  0  2  0  0  0  0  0  0  0  0  0
   -4.1119    4.2384    5.5966 N   0  0  0  0  0  0  0  0  0  0  0  0
   -2.7713    5.4401    3.8622 C   0  0  2  0  0  0  0  0  0  0  0  0
   -2.3847    6.8230    3.4452 C   0  0  2  0  0  0  0  0  0  0  0  0
   -1.7321    6.7241    2.1926 O   0  0  0  0  0  0  0  0  0  0  0  0
   -1.4727    7.4352    4.4915 C   0  0  1  0  0  0  0  0  0  0  0  0
   -1.1423    8.7777    4.1886 O   0  0  0  0  0  0  0  0  0  0  0  0
   -0.3086    6.7010    2.1866 C   0  0  1  0  0  0  0  0  0  0  0  0
    0.1381    5.3037    2.6218 C   0  0  2  0  0  0  0  0  0  0  0  0
    1.3190    5.4092    3.3945 O   0  0  0  0  0  0  0  0  0  0  0  0
    0.3649    4.5959    1.2791 C   0  0  2  0  0  0  0  0  0  0  0  0
    1.2272    3.4633    1.3894 O   0  0  0  0  0  0  0  0  0  0  0  0
    0.9321    5.7601    0.4575 C   0  0  2  0  0  0  0  0  0  0  0  0
    0.1671    6.8877    0.8596 O   0  0  0  0  0  0  0  0  0  0  0  0
    0.8026    5.5860   -1.0601 C   0  0  0  0  0  0  0  0  0  0  0  0
    1.3236    6.6975   -1.7575 O   0  0  0  0  0  0  0  0  0  0  0  0
    0.8542    2.3510    0.5784 C   0  0  2  0  0  0  0  0  0  0  0  0
    1.5736    1.0638    1.0093 C   0  0  2  0  0  0  0  0  0  0  0  0
    1.3446    0.7857    2.4370 N   0  0  0  0  0  0  0  0  0  0  0  0
    3.0731    1.1310    0.6830 C   0  0  1  0  0  0  0  0  0  0  0  0
    3.6647   -0.1086    1.0210 O   0  0  0  0  0  0  0  0  0  0  0  0
    3.2315    1.4014   -0.8228 C   0  0  2  0  0  0  0  0  0  0  0  0
    4.5991    1.5158   -1.1705 O   0  0  0  0  0  0  0  0  0  0  0  0
    2.4612    2.6710   -1.2404 C   0  0  1  0  0  0  0  0  0  0  0  0
    1.1026    2.6280   -0.7980 O   0  0  0  0  0  0  0  0  0  0  0  0
    3.1601    3.9727   -0.8210 C   0  0  0  0  0  0  0  0  0  0  0  0
    4.4796    4.1027   -1.4600 N   0  0  0  0  0  0  0  0  0  0  0  0
  1  3  1  0  0  0  0
  1  2  1  1  0  0  0
  3  4  1  1  0  0  0
  5  6  1  6  0  0  0
  5  3  1  0  0  0  0
  7  9  1  0  0  0  0
  7  5  1  0  0  0  0
  7  8  1  1  0  0  0
  9 10  1  0  0  0  0
  9 11  1  6  0  0  0
 10  1  1  0  0  0  0
 11 12  1  0  0  0  0
 13 14  1  1  0  0  0
 13 21  1  0  0  0  0
 15 13  1  0  0  0  0
 16 15  1  0  0  0  0
 16 18  1  0  0  0  0
 16 17  1  1  0  0  0
 18  2  1  6  0  0  0
 18 19  1  0  0  0  0
 19 21  1  0  0  0  0
 19 20  1  6  0  0  0
 21 22  1  6  0  0  0
 23 20  1  6  0  0  0
 23 29  1  0  0  0  0
 23 24  1  0  0  0  0
 24 26  1  0  0  0  0
 24 25  1  1  0  0  0
 26 27  1  1  0  0  0
 28 26  1  0  0  0  0
 28 30  1  6  0  0  0
 29 28  1  0  0  0  0
 30 31  1  0  0  0  0
 32 27  1  1  0  0  0
 32 40  1  0  0  0  0
 32 33  1  0  0  0  0
 33 35  1  0  0  0  0
 33 34  1  1  0  0  0
 35 37  1  0  0  0  0
 35 36  1  6  0  0  0
 37 38  1  1  0  0  0
 39 37  1  0  0  0  0
 39 41  1  1  0  0  0
 40 39  1  0  0  0  0
 42 41  1  0  0  0  0
M  END
>  <CHROM.1>
-165.77974885,-175.09683120,-165.98092676,72.65443410,62.28316736,50.78884790
-75.54831022,-167.10437333,55.18650031,-97.10128743,76.57747859,78.89872961
82.68701455,141.63098080,-164.76775396,179.10838575,-96.47276186,39.21506137
64.63348992,155.51602692,61.96843144,-166.82681009,-0.64985797,3.99439609
1.86061917,2.49800316,0.43287010,0.41710533

>  <Name>
lig.pdb

>  <RI>
3.17932e+07

>  <Rbt.Current_Directory>
/home/itssahil/PROJECTS/Mol_Feturizer/New_Systems/rnas/2mxs

>  <Rbt.Executable>
rbdock ($Id: //depot/dev/client3/rdock/2013.1/src/exe/rbdock.cxx#4 $)

>  <Rbt.Library>
libRbt.so (2013.1, Build901 2013/11/27)

>  <Rbt.Parameter_File>
/export/apps/rDock/src/rDock_2013.1_src/data/scripts/dock_solv.prm

>  <Rbt.Receptor>
prm/blind_docking_100.prm

>  <SCORE>
64.3616

>  <SCORE.INTER>
18.942

>  <SCORE.INTER.CONST>
1

>  <SCORE.INTER.POLAR>
-4.25899

>  <SCORE.INTER.ROT>
9

>  <SCORE.INTER.SOLV>
30.6147

>  <SCORE.INTER.VDW>
7.01976

>  <SCORE.INTER.norm>
0.451001

>  <SCORE.INTRA>
14.5544

>  <SCORE.INTRA.DIHEDRAL>
-0.551929

>  <SCORE.INTRA.DIHEDRAL.0>
30.1357

>  <SCORE.INTRA.POLAR>
-0.374068

>  <SCORE.INTRA.POLAR.0>
-0.631696

>  <SCORE.INTRA.REPUL>
0

>  <SCORE.INTRA.REPUL.0>
0

>  <SCORE.INTRA.SOLV>
1.55999

>  <SCORE.INTRA.SOLV.lig_0>
-55.904

>  <SCORE.INTRA.VDW>
15.3222

>  <SCORE.INTRA.VDW.0>
-8.21197

>  <SCORE.INTRA.norm>
0.346534

>  <SCORE.RESTR>
30.8651

>  <SCORE.RESTR.CAVITY>
30.8651

>  <SCORE.RESTR.norm>
0.734883

>  <SCORE.SYSTEM>
0

>  <SCORE.SYSTEM.CONST>
0

>  <SCORE.SYSTEM.DIHEDRAL>
0

>  <SCORE.SYSTEM.SOLV>
0

>  <SCORE.SYSTEM.norm>
0

>  <SCORE.heavy>
42

>  <SCORE.norm>
1.53242

>  <RMSD>
7.720

$$$$
lig.pdb
 OpenBabel11021811453D
libRbt.so/2013.1/901 2013/11/27
 42 45  0  0  0  0  0  0  0  0999 V2000
   -2.1316    4.7787    2.4294 C   0  0  2  0  0  0  0  0  0  0  0  0
   -2.2470    6.0147    1.7218 O   0  0  0  0  0  0  0  0  0  0  0  0
   -3.5110    4.2766    2.8821 C   0  0  2  0  0  0  0  0  0  0  0  0
   -4.4387    4.1771    1.7402 N   0  0  0  0  0  0  0  0  0  0  0  0
   -4.0883    5.1740    3.9843 C   0  0  1  0  0  0  0  0  0  0  0  0
   -5.2814    4.5986    4.4816 O   0  0  0  0  0  0  0  0  0  0  0  0
   -3.0785    5.3235    5.1322 C   0  0  2  0  0  0  0  0  0  0  0  0
   -3.5614    6.2761    6.0599 O   0  0  0  0  0  0  0  0  0  0  0  0
   -1.6923    5.7564    4.6131 C   0  0  2  0  0  0  0  0  0  0  0  0
   -1.2556    4.9160    3.5454 O   0  0  0  0  0  0  0  0  0  0  0  0
   -0.6946    5.6713    5.7838 C   0  0  0  0  0  0  0  0  0  0  0  0
    0.4632    4.8563    5.4586 O   0  0  0  0  0  0  0  0  0  0  0  0
    0.4540    7.9684   -1.0019 C   0  0  2  0  0  0  0  0  0  0  0  0
    1.8055    8.3207   -1.4808 N   0  0  0  0  0  0  0  0  0  0  0  0
    0.2416    8.4892    0.4218 C   0  0  0  0  0  0  0  0  0  0  0  0
   -1.0951    8.0096    0.9751 C   0  0  2  0  0  0  0  0  0  0  0  0
   -1.3339    8.5936    2.3009 N   0  0  0  0  0  0  0  0  0  0  0  0
   -1.0807    6.4638    1.0166 C   0  0  2  0  0  0  0  0  0  0  0  0
   -1.0349    5.9529   -0.3879 C   0  0  2  0  0  0  0  0  0  0  0  0
   -1.0646    4.5387   -0.3286 O   0  0  0  0  0  0  0  0  0  0  0  0
    0.2273    6.4465   -1.0694 C   0  0  1  0  0  0  0  0  0  0  0  0
    0.2818    6.0615   -2.4303 O   0  0  0  0  0  0  0  0  0  0  0  0
   -0.6978    3.8181   -1.5004 C   0  0  1  0  0  0  0  0  0  0  0  0
    0.7932    3.4890   -1.3993 C   0  0  2  0  0  0  0  0  0  0  0  0
    1.3759    3.5570   -2.6871 O   0  0  0  0  0  0  0  0  0  0  0  0
    0.7795    2.0660   -0.8249 C   0  0  2  0  0  0  0  0  0  0  0  0
    1.9919    1.3555   -1.0778 O   0  0  0  0  0  0  0  0  0  0  0  0
   -0.4572    1.5040   -1.5368 C   0  0  2  0  0  0  0  0  0  0  0  0
   -1.3894    2.5761   -1.5342 O   0  0  0  0  0  0  0  0  0  0  0  0
   -1.0904    0.2920   -0.8435 C   0  0  0  0  0  0  0  0  0  0  0  0
   -0.3749   -0.8945   -1.1142 O   0  0  0  0  0  0  0  0  0  0  0  0
    3.0684    1.6865   -0.2028 C   0  0  2  0  0  0  0  0  0  0  0  0
    4.0789    0.5358   -0.0806 C   0  0  2  0  0  0  0  0  0  0  0  0
    4.5731    0.1266   -1.4059 N   0  0  0  0  0  0  0  0  0  0  0  0
    3.4772   -0.6513    0.6864 C   0  0  1  0  0  0  0  0  0  0  0  0
    4.4758   -1.6408    0.8425 O   0  0  0  0  0  0  0  0  0  0  0  0
    3.0053   -0.1521    2.0626 C   0  0  2  0  0  0  0  0  0  0  0  0
    2.4012   -1.2015    2.7964 O   0  0  0  0  0  0  0  0  0  0  0  0
    2.0297    1.0338    1.9157 C   0  0  1  0  0  0  0  0  0  0  0  0
    2.5743    2.0591    1.0818 O   0  0  0  0  0  0  0  0  0  0  0  0
    0.6236    0.6130    1.4634 C   0  0  0  0  0  0  0  0  0  0  0  0
   -0.3905    1.5937    1.8831 N   0  0  0  0  0  0  0  0  0  0  0  0
  1  3  1  0  0  0  0
  1  2  1  1  0  0  0
  3  4  1  6  0  0  0
  5  6  1  1  0  0  0
  5  3  1  0  0  0  0
  7  9  1  0  0  0  0
  7  5  1  0  0  0  0
  7  8  1  1  0  0  0
  9 10  1  0  0  0  0
  9 11  1  1  0  0  0
 10  1  1  0  0  0  0
 11 12  1  0  0  0  0
 13 14  1  1  0  0  0
 13 21  1  0  0  0  0
 15 13  1  0  0  0  0
 16 15  1  0  0  0  0
 16 18  1  0  0  0  0
 16 17  1  1  0  0  0
 18  2  1  6  0  0  0
 18 19  1  0  0  0  0
 19 21  1  0  0  0  0
 19 20  1  1  0  0  0
 21 22  1  6  0  0  0
 23 20  1  1  0  0  0
 23 29  1  0  0  0  0
 23 24  1  0  0  0  0
 24 26  1  0  0  0  0
 24 25  1  6  0  0  0
 26 27  1  6  0  0  0
 28 26  1  0  0  0  0
 28 30  1  1  0  0  0
 29 28  1  0  0  0  0
 30 31  1  0  0  0  0
 32 27  1  6  0  0  0
 32 40  1  0  0  0  0
 32 33  1  0  0  0  0
 33 35  1  0  0  0  0
 33 34  1  6  0  0  0
 35 37  1  0  0  0  0
 35 36  1  1  0  0  0
 37 38  1  6  0  0  0
 39 37  1  0  0  0  0
 39 41  1  6  0  0  0
 40 39  1  0  0  0  0
 42 41  1  0  0  0  0
M  END
>  <CHROM.1>
-150.28758235,-168.08160063,-52.71618051,-59.84455272,78.96249610,73.25853985
125.96360914,-58.41233110,-66.56720931,-164.62494982,93.73130058,101.26257121
-66.07533677,79.42316511,154.59185978,-78.84787685,-175.30162840,-87.30654165
-73.84339282,-166.08959829,155.24298142,-152.24209681,-0.07858633,3.65135717
1.06066808,2.81611857,0.90530975,-0.66750705

>  <Name>
lig.pdb

>  <RI>
3.17932e+07

>  <Rbt.Current_Directory>
/home/itssahil/PROJECTS/Mol_Feturizer/New_Systems/rnas/2mxs

>  <Rbt.Executable>
rbdock ($Id: //depot/dev/client3/rdock/2013.1/src/exe/rbdock.cxx#4 $)

>  <Rbt.Library>
libRbt.so (2013.1, Build901 2013/11/27)

>  <Rbt.Parameter_File>
/export/apps/rDock/src/rDock_2013.1_src/data/scripts/dock_solv.prm

>  <Rbt.Receptor>
prm/blind_docking_100.prm

>  <SCORE>
88.6786

>  <SCORE.INTER>
50.4166

>  <SCORE.INTER.CONST>
1

>  <SCORE.INTER.POLAR>
-4.23982

>  <SCORE.INTER.ROT>
9

>  <SCORE.INTER.SOLV>
34.0156

>  <SCORE.INTER.VDW>
26.8053

>  <SCORE.INTER.norm>
1.2004

>  <SCORE.INTRA>
13.975

>  <SCORE.INTRA.DIHEDRAL>
6.07789

>  <SCORE.INTRA.DIHEDRAL.0>
30.1357

>  <SCORE.INTRA.POLAR>
0.257712

>  <SCORE.INTRA.POLAR.0>
-0.631696

>  <SCORE.INTRA.REPUL>
0.000593674

>  <SCORE.INTRA.REPUL.0>
0

>  <SCORE.INTRA.SOLV>
0.497846

>  <SCORE.INTRA.SOLV.lig_0>
-55.904

>  <SCORE.INTRA.VDW>
9.80796

>  <SCORE.INTRA.VDW.0>
-8.21197

>  <SCORE.INTRA.norm>
0.332738

>  <SCORE.RESTR>
24.2869

>  <SCORE.RESTR.CAVITY>
24.2869

>  <SCORE.RESTR.norm>
0.57826

>  <SCORE.SYSTEM>
0

>  <SCORE.SYSTEM.CONST>
0

>  <SCORE.SYSTEM.DIHEDRAL>
0

>  <SCORE.SYSTEM.SOLV>
0

>  <SCORE.SYSTEM.norm>
0

>  <SCORE.heavy>
42

>  <SCORE.norm>
2.11139

>  <RMSD>
7.724

$$$$
lig.pdb
 OpenBabel11021811453D
libRbt.so/2013.1/901 2013/11/27
 42 45  0  0  0  0  0  0  0  0999 V2000
    0.1156    1.0484    4.4027 C   0  0  2  0  0  0  0  0  0  0  0  0
   -0.0018   -0.3655    4.5715 O   0  0  0  0  0  0  0  0  0  0  0  0
    1.0340    1.6531    5.4754 C   0  0  2  0  0  0  0  0  0  0  0  0
    2.3485    0.9848    5.4844 N   0  0  0  0  0  0  0  0  0  0  0  0
    0.3761    1.5931    6.8600 C   0  0  1  0  0  0  0  0  0  0  0  0
    1.1787    2.2922    7.7920 O   0  0  0  0  0  0  0  0  0  0  0  0
   -1.0212    2.2297    6.8132 C   0  0  2  0  0  0  0  0  0  0  0  0
   -1.6715    2.0239    8.0526 O   0  0  0  0  0  0  0  0  0  0  0  0
   -1.8738    1.6392    5.6718 C   0  0  2  0  0  0  0  0  0  0  0  0
   -1.1675    1.6684    4.4319 O   0  0  0  0  0  0  0  0  0  0  0  0
   -3.1632    2.4741    5.5559 C   0  0  0  0  0  0  0  0  0  0  0  0
   -4.0881    1.9213    4.5816 O   0  0  0  0  0  0  0  0  0  0  0  0
   -2.1068   -3.2723    2.1945 C   0  0  2  0  0  0  0  0  0  0  0  0
   -3.2711   -3.7285    1.4092 N   0  0  0  0  0  0  0  0  0  0  0  0
   -2.5234   -2.9679    3.6356 C   0  0  0  0  0  0  0  0  0  0  0  0
   -1.3609   -2.3637    4.4143 C   0  0  2  0  0  0  0  0  0  0  0  0
   -1.7396   -2.1666    5.8191 N   0  0  0  0  0  0  0  0  0  0  0  0
   -0.9526   -1.0371    3.7323 C   0  0  2  0  0  0  0  0  0  0  0  0
   -0.3946   -1.3516    2.3812 C   0  0  2  0  0  0  0  0  0  0  0  0
    0.0108   -0.1296    1.7921 O   0  0  0  0  0  0  0  0  0  0  0  0
   -1.4522   -2.0411    1.5403 C   0  0  1  0  0  0  0  0  0  0  0  0
   -0.9516   -2.4378    0.2773 O   0  0  0  0  0  0  0  0  0  0  0  0
   -1.0014    0.7162    1.2566 C   0  0  1  0  0  0  0  0  0  0  0  0
   -0.5460    2.1653    1.4416 C   0  0  2  0  0  0  0  0  0  0  0  0
   -1.6705    2.9770    1.7235 O   0  0  0  0  0  0  0  0  0  0  0  0
    0.0963    2.4857    0.0852 C   0  0  2  0  0  0  0  0  0  0  0  0
    0.1679    3.8877   -0.1757 O   0  0  0  0  0  0  0  0  0  0  0  0
   -0.8410    1.7045   -0.8439 C   0  0  2  0  0  0  0  0  0  0  0  0
   -1.1147    0.4988   -0.1441 O   0  0  0  0  0  0  0  0  0  0  0  0
   -0.2360    1.3610   -2.2101 C   0  0  0  0  0  0  0  0  0  0  0  0
   -0.6752    0.1010   -2.6713 O   0  0  0  0  0  0  0  0  0  0  0  0
    0.8864    4.6382    0.8014 C   0  0  2  0  0  0  0  0  0  0  0  0
    0.1642    5.9455    1.1613 C   0  0  2  0  0  0  0  0  0  0  0  0
   -1.2165    5.6806    1.5992 N   0  0  0  0  0  0  0  0  0  0  0  0
    0.2020    6.9400   -0.0087 C   0  0  1  0  0  0  0  0  0  0  0  0
   -0.3991    8.1507    0.4082 O   0  0  0  0  0  0  0  0  0  0  0  0
    1.6713    7.1823   -0.3937 C   0  0  2  0  0  0  0  0  0  0  0  0
    1.7614    8.0619   -1.4995 O   0  0  0  0  0  0  0  0  0  0  0  0
    2.3881    5.8519   -0.7036 C   0  0  1  0  0  0  0  0  0  0  0  0
    2.2133    4.9050    0.3529 O   0  0  0  0  0  0  0  0  0  0  0  0
    2.0122    5.2619   -2.0708 C   0  0  0  0  0  0  0  0  0  0  0  0
    2.2945    6.2106   -3.1601 N   0  0  0  0  0  0  0  0  0  0  0  0
  1  3  1  0  0  0  0
  1  2  1  1  0  0  0
  3  4  1  1  0  0  0
  5  6  1  1  0  0  0
  5  3  1  0  0  0  0
  7  9  1  0  0  0  0
  7  5  1  0  0  0  0
  7  8  1  1  0  0  0
  9 10  1  0  0  0  0
  9 11  1  6  0  0  0
 10  1  1  0  0  0  0
 11 12  1  0  0  0  0
 13 14  1  6  0  0  0
 13 21  1  0  0  0  0
 15 13  1  0  0  0  0
 16 15  1  0  0  0  0
 16 18  1  0  0  0  0
 16 17  1  1  0  0  0
 18  2  1  1  0  0  0
 18 19  1  0  0  0  0
 19 21  1  0  0  0  0
 19 20  1  6  0  0  0
 21 22  1  6  0  0  0
 23 20  1  6  0  0  0
 23 29  1  0  0  0  0
 23 24  1  0  0  0  0
 24 26  1  0  0  0  0
 24 25  1  6  0  0  0
 26 27  1  6  0  0  0
 28 26  1  0  0  0  0
 28 30  1  6  0  0  0
 29 28  1  0  0  0  0
 30 31  1  0  0  0  0
 32 27  1  6  0  0  0
 32 40  1  0  0  0  0
 32 33  1  0  0  0  0
 33 35  1  0  0  0  0
 33 34  1  6  0  0  0
 35 37  1  0  0  0  0
 35 36  1  1  0  0  0
 37 38  1  6  0  0  0
 39 37  1  0  0  0  0
 39 41  1  6  0  0  0
 40 39  1  0  0  0  0
 42 41  1  0  0  0  0
M  END
>  <CHROM.1>
-156.98981722,173.00837895,177.60706583,-177.28156706,174.25209486,-177.71932609
-174.93575805,-57.80115394,-66.37624729,-76.93307914,147.40581258,66.80178303
-53.80208778,57.82326026,-136.71085547,144.63792481,169.61400414,-95.76708290
-86.24757014,62.79913359,57.25222778,-148.64152085,-0.41332044,1.98359152
2.17603797,-2.72793506,-1.27121158,-1.81762304

>  <Name>
lig.pdb

>  <RI>
3.99633e+07

>  <Rbt.Current_Directory>
/home/itssahil/PROJECTS/Mol_Feturizer/New_Systems/rnas/2mxs

>  <Rbt.Executable>
rbdock ($Id: //depot/dev/client3/rdock/2013.1/src/exe/rbdock.cxx#4 $)

>  <Rbt.Library>
libRbt.so (2013.1, Build901 2013/11/27)

>  <Rbt.Parameter_File>
/export/apps/rDock/src/rDock_2013.1_src/data/scripts/dock_solv.prm

>  <Rbt.Receptor>
prm/pocket_docking_5.prm

>  <SCORE>
-33.5756

>  <SCORE.INTER>
-31.6822

>  <SCORE.INTER.CONST>
1

>  <SCORE.INTER.POLAR>
-3.49861

>  <SCORE.INTER.ROT>
9

>  <SCORE.INTER.SOLV>
19.4793

>  <SCORE.INTER.VDW>
-25.5525

>  <SCORE.INTER.norm>
-0.754337

>  <SCORE.INTRA>
-1.90355

>  <SCORE.INTRA.DIHEDRAL>
-3.58536

>  <SCORE.INTRA.DIHEDRAL.0>
30.1357

>  <SCORE.INTRA.POLAR>
-1.23791

>  <SCORE.INTRA.POLAR.0>
-0.631696

>  <SCORE.INTRA.REPUL>
0

>  <SCORE.INTRA.REPUL.0>
0

>  <SCORE.INTRA.SOLV>
0.675036

>  <SCORE.INTRA.SOLV.lig_0>
-55.904

>  <SCORE.INTRA.VDW>
3.7605

>  <SCORE.INTRA.VDW.0>
-8.21197

>  <SCORE.INTRA.norm>
-0.0453226

>  <SCORE.RESTR>
0.0100706

>  <SCORE.RESTR.CAVITY>
0.0100706

>  <SCORE.RESTR.norm>
0.000239776

>  <SCORE.SYSTEM>
0

>  <SCORE.SYSTEM.CONST>
0

>  <SCORE.SYSTEM.DIHEDRAL>
0

>  <SCORE.SYSTEM.SOLV>
0

>  <SCORE.SYSTEM.norm>
0

>  <SCORE.heavy>
42

>  <SCORE.norm>
-0.79942

>  <RMSD>
7.724

$$$$
lig.pdb
 OpenBabel11021811453D
libRbt.so/2013.1/901 2013/11/27
 42 45  0  0  0  0  0  0  0  0999 V2000
   -3.2231    4.4449    2.5870 C   0  0  2  0  0  0  0  0  0  0  0  0
   -3.1487    5.5742    1.7148 O   0  0  0  0  0  0  0  0  0  0  0  0
   -3.4746    4.8884    4.0361 C   0  0  2  0  0  0  0  0  0  0  0  0
   -4.6750    5.7398    4.1280 N   0  0  0  0  0  0  0  0  0  0  0  0
   -2.2463    5.6038    4.6133 C   0  0  1  0  0  0  0  0  0  0  0  0
   -2.4556    5.8605    5.9887 O   0  0  0  0  0  0  0  0  0  0  0  0
   -0.9936    4.7312    4.4433 C   0  0  2  0  0  0  0  0  0  0  0  0
    0.1481    5.4692    4.8350 O   0  0  0  0  0  0  0  0  0  0  0  0
   -0.8312    4.2526    2.9862 C   0  0  2  0  0  0  0  0  0  0  0  0
   -2.0357    3.6611    2.5001 O   0  0  0  0  0  0  0  0  0  0  0  0
    0.3095    3.2180    2.9463 C   0  0  0  0  0  0  0  0  0  0  0  0
    1.0947    3.3151    1.7279 O   0  0  0  0  0  0  0  0  0  0  0  0
    0.1692    7.4747   -0.2627 C   0  0  2  0  0  0  0  0  0  0  0  0
    1.6085    7.7607   -0.4268 N   0  0  0  0  0  0  0  0  0  0  0  0
   -0.3122    7.9405    1.1137 C   0  0  0  0  0  0  0  0  0  0  0  0
   -1.7595    7.5231    1.3458 C   0  0  2  0  0  0  0  0  0  0  0  0
   -2.2425    8.0583    2.6249 N   0  0  0  0  0  0  0  0  0  0  0  0
   -1.8370    5.9794    1.2969 C   0  0  2  0  0  0  0  0  0  0  0  0
   -1.5217    5.5334   -0.0949 C   0  0  2  0  0  0  0  0  0  0  0  0
   -1.6390    4.1228   -0.1278 O   0  0  0  0  0  0  0  0  0  0  0  0
   -0.1191    5.9755   -0.4670 C   0  0  1  0  0  0  0  0  0  0  0  0
    0.2022    5.6523   -1.8069 O   0  0  0  0  0  0  0  0  0  0  0  0
   -1.1285    3.4415   -1.2689 C   0  0  1  0  0  0  0  0  0  0  0  0
    0.3473    3.1329   -1.0077 C   0  0  2  0  0  0  0  0  0  0  0  0
    1.0706    3.2462   -2.2188 O   0  0  0  0  0  0  0  0  0  0  0  0
    0.2951    1.6941   -0.4763 C   0  0  2  0  0  0  0  0  0  0  0  0
    1.5414    1.0100   -0.6084 O   0  0  0  0  0  0  0  0  0  0  0  0
   -0.8423    1.1333   -1.3387 C   0  0  2  0  0  0  0  0  0  0  0  0
   -1.7886    2.1903   -1.4138 O   0  0  0  0  0  0  0  0  0  0  0  0
   -1.5272   -0.1075   -0.7540 C   0  0  0  0  0  0  0  0  0  0  0  0
   -2.5454   -0.5891   -1.6053 O   0  0  0  0  0  0  0  0  0  0  0  0
    2.5746    1.4853    0.2522 C   0  0  2  0  0  0  0  0  0  0  0  0
    3.9504    1.4419   -0.4299 C   0  0  2  0  0  0  0  0  0  0  0  0
    3.9307    2.1830   -1.7021 N   0  0  0  0  0  0  0  0  0  0  0  0
    4.4249   -0.0054   -0.6296 C   0  0  1  0  0  0  0  0  0  0  0  0
    5.7278    0.0184   -1.1797 O   0  0  0  0  0  0  0  0  0  0  0  0
    4.4399   -0.7055    0.7399 C   0  0  2  0  0  0  0  0  0  0  0  0
    4.8302   -2.0598    0.6063 O   0  0  0  0  0  0  0  0  0  0  0  0
    3.0619   -0.6069    1.4262 C   0  0  1  0  0  0  0  0  0  0  0  0
    2.5944    0.7432    1.4696 O   0  0  0  0  0  0  0  0  0  0  0  0
    2.0146   -1.5578    0.8283 C   0  0  0  0  0  0  0  0  0  0  0  0
    1.9226   -1.4038   -0.6326 N   0  0  0  0  0  0  0  0  0  0  0  0
  1  3  1  0  0  0  0
  1  2  1  6  0  0  0
  3  4  1  6  0  0  0
  5  6  1  1  0  0  0
  5  3  1  0  0  0  0
  7  9  1  0  0  0  0
  7  5  1  0  0  0  0
  7  8  1  6  0  0  0
  9 10  1  0  0  0  0
  9 11  1  1  0  0  0
 10  1  1  0  0  0  0
 11 12  1  0  0  0  0
 13 14  1  1  0  0  0
 13 21  1  0  0  0  0
 15 13  1  0  0  0  0
 16 15  1  0  0  0  0
 16 18  1  0  0  0  0
 16 17  1  1  0  0  0
 18  2  1  6  0  0  0
 18 19  1  0  0  0  0
 19 21  1  0  0  0  0
 19 20  1  1  0  0  0
 21 22  1  6  0  0  0
 23 20  1  1  0  0  0
 23 29  1  0  0  0  0
 23 24  1  0  0  0  0
 24 26  1  0  0  0  0
 24 25  1  6  0  0  0
 26 27  1  6  0  0  0
 28 26  1  0  0  0  0
 28 30  1  1  0  0  0
 29 28  1  0  0  0  0
 30 31  1  0  0  0  0
 32 27  1  6  0  0  0
 32 40  1  0  0  0  0
 32 33  1  0  0  0  0
 33 35  1  0  0  0  0
 33 34  1  6  0  0  0
 35 37  1  0  0  0  0
 35 36  1  1  0  0  0
 37 38  1  6  0  0  0
 39 37  1  0  0  0  0
 39 41  1  6  0  0  0
 40 39  1  0  0  0  0
 42 41  1  0  0  0  0
M  END
>  <CHROM.1>
-137.98140332,102.66387101,-34.07122814,-65.71402936,-165.55783720,68.62407924
-143.90815643,-86.64387925,36.63152922,-167.60530921,88.28635183,62.14971965
65.91127096,69.78245234,-143.85087567,-178.85866017,-48.35454069,-7.18751294
-48.78873270,-58.39094532,-52.24703058,65.99335720,0.15891334,3.26827873
0.83471038,2.70847802,0.85443702,-0.55010560

>  <Name>
lig.pdb

>  <RI>
3.17932e+07

>  <Rbt.Current_Directory>
/home/itssahil/PROJECTS/Mol_Feturizer/New_Systems/rnas/2mxs

>  <Rbt.Executable>
rbdock ($Id: //depot/dev/client3/rdock/2013.1/src/exe/rbdock.cxx#4 $)

>  <Rbt.Library>
libRbt.so (2013.1, Build901 2013/11/27)

>  <Rbt.Parameter_File>
/export/apps/rDock/src/rDock_2013.1_src/data/scripts/dock_solv.prm

>  <Rbt.Receptor>
prm/blind_docking_100.prm

>  <SCORE>
77.3216

>  <SCORE.INTER>
41.4698

>  <SCORE.INTER.CONST>
1

>  <SCORE.INTER.POLAR>
-5.00417

>  <SCORE.INTER.ROT>
9

>  <SCORE.INTER.SOLV>
35.0595

>  <SCORE.INTER.VDW>
23.0406

>  <SCORE.INTER.norm>
0.987377

>  <SCORE.INTRA>
15.6749

>  <SCORE.INTRA.DIHEDRAL>
5.50861

>  <SCORE.INTRA.DIHEDRAL.0>
30.1357

>  <SCORE.INTRA.POLAR>
-1.5039

>  <SCORE.INTRA.POLAR.0>
-0.631696

>  <SCORE.INTRA.REPUL>
0.0847262

>  <SCORE.INTRA.REPUL.0>
0

>  <SCORE.INTRA.SOLV>
4.9953

>  <SCORE.INTRA.SOLV.lig_0>
-55.904

>  <SCORE.INTRA.VDW>
15.1125

>  <SCORE.INTRA.VDW.0>
-8.21197

>  <SCORE.INTRA.norm>
0.373211

>  <SCORE.RESTR>
20.1769

>  <SCORE.RESTR.CAVITY>
20.1769

>  <SCORE.RESTR.norm>
0.480403

>  <SCORE.SYSTEM>
0

>  <SCORE.SYSTEM.CONST>
0

>  <SCORE.SYSTEM.DIHEDRAL>
0

>  <SCORE.SYSTEM.SOLV>
0

>  <SCORE.SYSTEM.norm>
0

>  <SCORE.heavy>
42

>  <SCORE.norm>
1.84099

>  <RMSD>
7.727

$$$$
lig.pdb
 OpenBabel11021811453D
libRbt.so/2013.1/901 2013/11/27
 42 45  0  0  0  0  0  0  0  0999 V2000
   -3.0253    5.8240    4.7615 C   0  0  2  0  0  0  0  0  0  0  0  0
   -2.6132    4.5882    4.1746 O   0  0  0  0  0  0  0  0  0  0  0  0
   -2.6595    7.0090    3.8551 C   0  0  2  0  0  0  0  0  0  0  0  0
   -3.2107    6.8281    2.4994 N   0  0  0  0  0  0  0  0  0  0  0  0
   -1.1403    7.2174    3.8088 C   0  0  1  0  0  0  0  0  0  0  0  0
   -0.8505    8.4028    3.0930 O   0  0  0  0  0  0  0  0  0  0  0  0
   -0.5752    7.3317    5.2326 C   0  0  2  0  0  0  0  0  0  0  0  0
    0.8380    7.3639    5.1746 O   0  0  0  0  0  0  0  0  0  0  0  0
   -1.0346    6.1565    6.1194 C   0  0  2  0  0  0  0  0  0  0  0  0
   -2.4500    5.9847    6.0557 O   0  0  0  0  0  0  0  0  0  0  0  0
   -0.6117    6.4573    7.5699 C   0  0  0  0  0  0  0  0  0  0  0  0
   -1.1819    7.7001    8.0603 O   0  0  0  0  0  0  0  0  0  0  0  0
   -4.8057    1.7152    1.8358 C   0  0  2  0  0  0  0  0  0  0  0  0
   -5.9357    1.3152    0.9736 N   0  0  0  0  0  0  0  0  0  0  0  0
   -5.3183    2.1940    3.1964 C   0  0  0  0  0  0  0  0  0  0  0  0
   -4.1724    2.7403    4.0399 C   0  0  2  0  0  0  0  0  0  0  0  0
   -4.6566    3.1054    5.3771 N   0  0  0  0  0  0  0  0  0  0  0  0
   -3.5517    3.9471    3.2985 C   0  0  2  0  0  0  0  0  0  0  0  0
   -2.9089    3.4517    2.0428 C   0  0  2  0  0  0  0  0  0  0  0  0
   -2.3118    4.5638    1.4016 O   0  0  0  0  0  0  0  0  0  0  0  0
   -3.9550    2.8040    1.1553 C   0  0  1  0  0  0  0  0  0  0  0  0
   -3.3867    2.2414   -0.0124 O   0  0  0  0  0  0  0  0  0  0  0  0
   -1.0484    5.0081    1.8846 C   0  0  1  0  0  0  0  0  0  0  0  0
    0.0210    4.0604    1.3372 C   0  0  2  0  0  0  0  0  0  0  0  0
    1.0351    3.8876    2.3091 O   0  0  0  0  0  0  0  0  0  0  0  0
    0.5125    4.8030    0.0874 C   0  0  2  0  0  0  0  0  0  0  0  0
    1.8117    4.3833   -0.3304 O   0  0  0  0  0  0  0  0  0  0  0  0
    0.4334    6.2499    0.5897 C   0  0  2  0  0  0  0  0  0  0  0  0
   -0.7612    6.2971    1.3573 O   0  0  0  0  0  0  0  0  0  0  0  0
    0.3527    7.3024   -0.5221 C   0  0  0  0  0  0  0  0  0  0  0  0
   -0.2775    8.4839   -0.0751 O   0  0  0  0  0  0  0  0  0  0  0  0
    1.8360    3.6600   -1.5594 C   0  0  2  0  0  0  0  0  0  0  0  0
    2.6589    2.3678   -1.4448 C   0  0  2  0  0  0  0  0  0  0  0  0
    2.1685    1.5279   -0.3393 N   0  0  0  0  0  0  0  0  0  0  0  0
    4.1565    2.6756   -1.2955 C   0  0  1  0  0  0  0  0  0  0  0  0
    4.8693    1.4539   -1.2818 O   0  0  0  0  0  0  0  0  0  0  0  0
    4.5982    3.5341   -2.4930 C   0  0  2  0  0  0  0  0  0  0  0  0
    5.9657    3.8833   -2.3821 O   0  0  0  0  0  0  0  0  0  0  0  0
    3.7267    4.8009   -2.6161 C   0  0  1  0  0  0  0  0  0  0  0  0
    2.3337    4.4800   -2.6143 O   0  0  0  0  0  0  0  0  0  0  0  0
    4.0685    5.8784   -1.5765 C   0  0  0  0  0  0  0  0  0  0  0  0
    3.1559    7.0288   -1.6765 N   0  0  0  0  0  0  0  0  0  0  0  0
  1  3  1  0  0  0  0
  1  2  1  6  0  0  0
  3  4  1  6  0  0  0
  5  6  1  6  0  0  0
  5  3  1  0  0  0  0
  7  9  1  0  0  0  0
  7  5  1  0  0  0  0
  7  8  1  6  0  0  0
  9 10  1  0  0  0  0
  9 11  1  1  0  0  0
 10  1  1  0  0  0  0
 11 12  1  0  0  0  0
 13 14  1  6  0  0  0
 13 21  1  0  0  0  0
 15 13  1  0  0  0  0
 16 15  1  0  0  0  0
 16 18  1  0  0  0  0
 16 17  1  1  0  0  0
 18  2  1  1  0  0  0
 18 19  1  0  0  0  0
 19 21  1  0  0  0  0
 19 20  1  6  0  0  0
 21 22  1  6  0  0  0
 23 20  1  6  0  0  0
 23 29  1  0  0  0  0
 23 24  1  0  0  0  0
 24 26  1  0  0  0  0
 24 25  1  1  0  0  0
 26 27  1  1  0  0  0
 28 26  1  0  0  0  0
 28 30  1  6  0  0  0
 29 28  1  0  0  0  0
 30 31  1  0  0  0  0
 32 27  1  1  0  0  0
 32 40  1  0  0  0  0
 32 33  1  0  0  0  0
 33 35  1  0  0  0  0
 33 34  1  1  0  0  0
 35 37  1  0  0  0  0
 35 36  1  6  0  0  0
 37 38  1  1  0  0  0
 39 37  1  0  0  0  0
 39 41  1  1  0  0  0
 40 39  1  0  0  0  0
 42 41  1  0  0  0  0
M  END
>  <CHROM.1>
-105.01075469,-88.65578858,-151.23937384,-149.95125548,-72.43860192,-55.38686420
58.64125753,79.49185873,-54.59686025,79.95337971,78.21460372,-176.65103848
-27.61909871,110.99948751,-131.38856332,154.49765195,51.01684256,61.38170146
-70.07497362,-46.48483581,-176.30526269,-81.54353563,-0.40701504,4.80033231
1.69551849,-2.53487662,-0.50427233,-2.34714823

>  <Name>
lig.pdb

>  <RI>
3.17932e+07

>  <Rbt.Current_Directory>
/home/itssahil/PROJECTS/Mol_Feturizer/New_Systems/rnas/2mxs

>  <Rbt.Executable>
rbdock ($Id: //depot/dev/client3/rdock/2013.1/src/exe/rbdock.cxx#4 $)

>  <Rbt.Library>
libRbt.so (2013.1, Build901 2013/11/27)

>  <Rbt.Parameter_File>
/export/apps/rDock/src/rDock_2013.1_src/data/scripts/dock_solv.prm

>  <Rbt.Receptor>
prm/blind_docking_100.prm

>  <SCORE>
48.5409

>  <SCORE.INTER>
7.56637

>  <SCORE.INTER.CONST>
1

>  <SCORE.INTER.POLAR>
-3.79801

>  <SCORE.INTER.ROT>
9

>  <SCORE.INTER.SOLV>
30.1061

>  <SCORE.INTER.VDW>
-1.93109

>  <SCORE.INTER.norm>
0.180152

>  <SCORE.INTRA>
13.0031

>  <SCORE.INTRA.DIHEDRAL>
12.3536

>  <SCORE.INTRA.DIHEDRAL.0>
30.1357

>  <SCORE.INTRA.POLAR>
-0.128931

>  <SCORE.INTRA.POLAR.0>
-0.631696

>  <SCORE.INTRA.REPUL>
0

>  <SCORE.INTRA.REPUL.0>
0

>  <SCORE.INTRA.SOLV>
1.82052

>  <SCORE.INTRA.SOLV.lig_0>
-55.904

>  <SCORE.INTRA.VDW>
6.35442

>  <SCORE.INTRA.VDW.0>
-8.21197

>  <SCORE.INTRA.norm>
0.309598

>  <SCORE.RESTR>
27.9714

>  <SCORE.RESTR.CAVITY>
27.9714

>  <SCORE.RESTR.norm>
0.665985

>  <SCORE.SYSTEM>
0

>  <SCORE.SYSTEM.CONST>
0

>  <SCORE.SYSTEM.DIHEDRAL>
0

>  <SCORE.SYSTEM.SOLV>
0

>  <SCORE.SYSTEM.norm>
0

>  <SCORE.heavy>
42

>  <SCORE.norm>
1.15573

>  <RMSD>
7.727

$$$$
lig.pdb
 OpenBabel11021811453D
libRbt.so/2013.1/901 2013/11/27
 42 45  0  0  0  0  0  0  0  0999 V2000
    0.0139   -1.5475    3.8314 C   0  0  2  0  0  0  0  0  0  0  0  0
   -0.8731   -0.6175    4.4558 O   0  0  0  0  0  0  0  0  0  0  0  0
    1.2834   -0.8417    3.3316 C   0  0  2  0  0  0  0  0  0  0  0  0
    1.9391   -0.0971    4.4225 N   0  0  0  0  0  0  0  0  0  0  0  0
    0.9696    0.0803    2.1463 C   0  0  1  0  0  0  0  0  0  0  0  0
    2.1775    0.5926    1.6172 O   0  0  0  0  0  0  0  0  0  0  0  0
    0.2231   -0.6962    1.0511 C   0  0  2  0  0  0  0  0  0  0  0  0
   -0.1951    0.2025    0.0418 O   0  0  0  0  0  0  0  0  0  0  0  0
   -0.9981   -1.4456    1.6216 C   0  0  2  0  0  0  0  0  0  0  0  0
   -0.6384   -2.2262    2.7611 O   0  0  0  0  0  0  0  0  0  0  0  0
   -1.5557   -2.3634    0.5171 C   0  0  0  0  0  0  0  0  0  0  0  0
   -2.0928   -1.6093   -0.6023 O   0  0  0  0  0  0  0  0  0  0  0  0
   -0.7303    1.0864    8.4064 C   0  0  2  0  0  0  0  0  0  0  0  0
   -0.0093    1.5536    9.6073 N   0  0  0  0  0  0  0  0  0  0  0  0
   -0.4606   -0.4016    8.1692 C   0  0  0  0  0  0  0  0  0  0  0  0
   -1.0854   -0.8578    6.8561 C   0  0  2  0  0  0  0  0  0  0  0  0
   -0.9062   -2.3051    6.6853 N   0  0  0  0  0  0  0  0  0  0  0  0
   -0.4411   -0.0539    5.7028 C   0  0  2  0  0  0  0  0  0  0  0  0
   -0.8389    1.3803    5.8456 C   0  0  2  0  0  0  0  0  0  0  0  0
   -0.2741    2.0900    4.7585 O   0  0  0  0  0  0  0  0  0  0  0  0
   -0.3373    1.9194    7.1718 C   0  0  1  0  0  0  0  0  0  0  0  0
   -0.7583    3.2516    7.3976 O   0  0  0  0  0  0  0  0  0  0  0  0
   -1.0020    3.1984    4.2403 C   0  0  1  0  0  0  0  0  0  0  0  0
   -0.0574    3.9991    3.3415 C   0  0  2  0  0  0  0  0  0  0  0  0
   -0.3474    5.3784    3.4687 O   0  0  0  0  0  0  0  0  0  0  0  0
   -0.3814    3.4474    1.9466 C   0  0  2  0  0  0  0  0  0  0  0  0
   -0.0004    4.3377    0.8972 O   0  0  0  0  0  0  0  0  0  0  0  0
   -1.8928    3.2309    2.0909 C   0  0  2  0  0  0  0  0  0  0  0  0
   -2.0580    2.7310    3.4104 O   0  0  0  0  0  0  0  0  0  0  0  0
   -2.4854    2.2233    1.0989 C   0  0  0  0  0  0  0  0  0  0  0  0
   -3.8572    1.9972    1.3443 O   0  0  0  0  0  0  0  0  0  0  0  0
   -0.0594    3.7738   -0.4114 C   0  0  2  0  0  0  0  0  0  0  0  0
    1.3308    3.3608   -0.9181 C   0  0  2  0  0  0  0  0  0  0  0  0
    1.9858    2.4445    0.0302 N   0  0  0  0  0  0  0  0  0  0  0  0
    2.2043    4.5914   -1.2053 C   0  0  1  0  0  0  0  0  0  0  0  0
    3.4352    4.1546   -1.7482 O   0  0  0  0  0  0  0  0  0  0  0  0
    1.4666    5.4862   -2.2158 C   0  0  2  0  0  0  0  0  0  0  0  0
    2.2117    6.6599   -2.4835 O   0  0  0  0  0  0  0  0  0  0  0  0
    0.0558    5.8476   -1.7072 C   0  0  1  0  0  0  0  0  0  0  0  0
   -0.6760    4.6818   -1.3216 O   0  0  0  0  0  0  0  0  0  0  0  0
    0.0620    6.9131   -0.6010 C   0  0  0  0  0  0  0  0  0  0  0  0
    1.0827    6.6216    0.4185 N   0  0  0  0  0  0  0  0  0  0  0  0
  1  3  1  0  0  0  0
  1  2  1  6  0  0  0
  3  4  1  1  0  0  0
  5  6  1  6  0  0  0
  5  3  1  0  0  0  0
  7  9  1  0  0  0  0
  7  5  1  0  0  0  0
  7  8  1  6  0  0  0
  9 10  1  0  0  0  0
  9 11  1  6  0  0  0
 10  1  1  0  0  0  0
 11 12  1  0  0  0  0
 13 14  1  1  0  0  0
 13 21  1  0  0  0  0
 15 13  1  0  0  0  0
 16 15  1  0  0  0  0
 16 18  1  0  0  0  0
 16 17  1  6  0  0  0
 18  2  1  6  0  0  0
 18 19  1  0  0  0  0
 19 21  1  0  0  0  0
 19 20  1  6  0  0  0
 21 22  1  1  0  0  0
 23 20  1  6  0  0  0
 23 29  1  0  0  0  0
 23 24  1  0  0  0  0
 24 26  1  0  0  0  0
 24 25  1  6  0  0  0
 26 27  1  6  0  0  0
 28 26  1  0  0  0  0
 28 30  1  6  0  0  0
 29 28  1  0  0  0  0
 30 31  1  0  0  0  0
 32 27  1  1  0  0  0
 32 40  1  0  0  0  0
 32 33  1  0  0  0  0
 33 35  1  0  0  0  0
 33 34  1  1  0  0  0
 35 37  1  0  0  0  0
 35 36  1  6  0  0  0
 37 38  1  1  0  0  0
 39 37  1  0  0  0  0
 39 41  1  1  0  0  0
 40 39  1  0  0  0  0
 42 41  1  0  0  0  0
M  END
>  <CHROM.1>
-97.00287531,-68.48697336,161.42074698,-65.29159584,177.98555442,-65.21794454
-65.73790865,-48.90959393,46.00111199,147.00350369,165.92980796,-58.13817021
-56.90364427,169.29917614,-101.02595868,175.79054119,-178.73341871,59.87769701
-177.95993804,-179.93400167,-45.74522269,65.59319731,-0.09585867,1.97312901
2.49620633,2.76909490,1.39017791,0.97041820

>  <Name>
lig.pdb

>  <RI>
0

>  <Rbt.Current_Directory>
/home/itssahil/PROJECTS/Mol_Feturizer/New_Systems/rnas/2mxs

>  <Rbt.Executable>
rbdock ($Id: //depot/dev/client3/rdock/2013.1/src/exe/rbdock.cxx#4 $)

>  <Rbt.Library>
libRbt.so (2013.1, Build901 2013/11/27)

>  <Rbt.Parameter_File>
/export/apps/rDock/src/rDock_2013.1_src/data/scripts/dock_solv.prm

>  <Rbt.Receptor>
prm/pocket_docking_4.prm

>  <SCORE>
-42.9846

>  <SCORE.INTER>
-32.1567

>  <SCORE.INTER.CONST>
1

>  <SCORE.INTER.POLAR>
-3.52092

>  <SCORE.INTER.ROT>
9

>  <SCORE.INTER.SOLV>
19.4924

>  <SCORE.INTER.VDW>
-25.7988

>  <SCORE.INTER.norm>
-0.765635

>  <SCORE.INTRA>
-11.3669

>  <SCORE.INTRA.DIHEDRAL>
-10.0687

>  <SCORE.INTRA.DIHEDRAL.0>
30.1357

>  <SCORE.INTRA.POLAR>
-2.8068

>  <SCORE.INTRA.POLAR.0>
-0.631696

>  <SCORE.INTRA.REPUL>
0

>  <SCORE.INTRA.REPUL.0>
0

>  <SCORE.INTRA.SOLV>
3.51376

>  <SCORE.INTRA.SOLV.lig_0>
-55.904

>  <SCORE.INTRA.VDW>
1.45362

>  <SCORE.INTRA.VDW.0>
-8.21197

>  <SCORE.INTRA.norm>
-0.270642

>  <SCORE.RESTR>
0.53902

>  <SCORE.RESTR.CAVITY>
0.53902

>  <SCORE.RESTR.norm>
0.0128338

>  <SCORE.SYSTEM>
0

>  <SCORE.SYSTEM.CONST>
0

>  <SCORE.SYSTEM.DIHEDRAL>
0

>  <SCORE.SYSTEM.SOLV>
0

>  <SCORE.SYSTEM.norm>
0

>  <SCORE.heavy>
42

>  <SCORE.norm>
-1.02344

>  <RMSD>
7.743

$$$$
lig.pdb
 OpenBabel11021811453D
libRbt.so/2013.1/901 2013/11/27
 42 45  0  0  0  0  0  0  0  0999 V2000
   -2.0852    4.8039    1.9716 C   0  0  2  0  0  0  0  0  0  0  0  0
   -2.1122    6.0454    1.2649 O   0  0  0  0  0  0  0  0  0  0  0  0
   -3.4179    4.5567    2.6945 C   0  0  2  0  0  0  0  0  0  0  0  0
   -4.5518    4.6353    1.7551 N   0  0  0  0  0  0  0  0  0  0  0  0
   -3.6003    5.5357    3.8614 C   0  0  1  0  0  0  0  0  0  0  0  0
   -4.7577    5.1824    4.5943 O   0  0  0  0  0  0  0  0  0  0  0  0
   -2.3770    5.4914    4.7894 C   0  0  2  0  0  0  0  0  0  0  0  0
   -2.4923    6.5089    5.7655 O   0  0  0  0  0  0  0  0  0  0  0  0
   -1.0630    5.6698    4.0020 C   0  0  2  0  0  0  0  0  0  0  0  0
   -0.9993    4.7720    2.8944 O   0  0  0  0  0  0  0  0  0  0  0  0
    0.1110    5.3968    4.9613 C   0  0  0  0  0  0  0  0  0  0  0  0
    0.2417    3.9853    5.2793 O   0  0  0  0  0  0  0  0  0  0  0  0
    0.8289    7.9412   -1.2425 C   0  0  2  0  0  0  0  0  0  0  0  0
    2.2207    8.2411   -1.6339 N   0  0  0  0  0  0  0  0  0  0  0  0
    0.5594    8.4322    0.1821 C   0  0  0  0  0  0  0  0  0  0  0  0
   -0.8278    8.0024    0.6447 C   0  0  2  0  0  0  0  0  0  0  0  0
   -1.1150    8.5605    1.9720 N   0  0  0  0  0  0  0  0  0  0  0  0
   -0.8877    6.4571    0.6401 C   0  0  2  0  0  0  0  0  0  0  0  0
   -0.7850    5.9835   -0.7744 C   0  0  2  0  0  0  0  0  0  0  0  0
   -0.8837    4.5713   -0.7597 O   0  0  0  0  0  0  0  0  0  0  0  0
    0.5360    6.4343   -1.3687 C   0  0  1  0  0  0  0  0  0  0  0  0
    0.6507    6.0848   -2.7354 O   0  0  0  0  0  0  0  0  0  0  0  0
   -0.3940    3.8606   -1.8919 C   0  0  1  0  0  0  0  0  0  0  0  0
    1.0420    3.4286   -1.5876 C   0  0  2  0  0  0  0  0  0  0  0  0
    1.8115    3.4929   -2.7736 O   0  0  0  0  0  0  0  0  0  0  0  0
    0.8542    1.9943   -1.0752 C   0  0  2  0  0  0  0  0  0  0  0  0
    2.0436    1.2107   -1.1757 O   0  0  0  0  0  0  0  0  0  0  0  0
   -0.2968    1.5374   -1.9799 C   0  0  2  0  0  0  0  0  0  0  0  0
   -1.1498    2.6696   -2.0726 O   0  0  0  0  0  0  0  0  0  0  0  0
   -1.1003    0.3521   -1.4321 C   0  0  0  0  0  0  0  0  0  0  0  0
   -0.5979   -0.8796   -1.9049 O   0  0  0  0  0  0  0  0  0  0  0  0
    3.0761    1.5777   -0.2629 C   0  0  2  0  0  0  0  0  0  0  0  0
    4.1983    0.5295   -0.2191 C   0  0  2  0  0  0  0  0  0  0  0  0
    4.7386    0.2803   -1.5660 N   0  0  0  0  0  0  0  0  0  0  0  0
    3.7172   -0.7704    0.4430 C   0  0  1  0  0  0  0  0  0  0  0  0
    4.8109   -1.6629    0.5332 O   0  0  0  0  0  0  0  0  0  0  0  0
    3.1897   -0.4340    1.8482 C   0  0  2  0  0  0  0  0  0  0  0  0
    2.6923   -1.5949    2.4881 O   0  0  0  0  0  0  0  0  0  0  0  0
    2.0988    0.6547    1.7831 C   0  0  1  0  0  0  0  0  0  0  0  0
    2.5400    1.7937    1.0406 O   0  0  0  0  0  0  0  0  0  0  0  0
    0.7454    0.1311    1.2801 C   0  0  0  0  0  0  0  0  0  0  0  0
   -0.3549    1.0273    1.6707 N   0  0  0  0  0  0  0  0  0  0  0  0
  1  3  1  0  0  0  0
  1  2  1  1  0  0  0
  3  4  1  6  0  0  0
  5  6  1  1  0  0  0
  5  3  1  0  0  0  0
  7  9  1  0  0  0  0
  7  5  1  0  0  0  0
  7  8  1  1  0  0  0
  9 10  1  0  0  0  0
  9 11  1  1  0  0  0
 10  1  1  0  0  0  0
 11 12  1  0  0  0  0
 13 14  1  1  0  0  0
 13 21  1  0  0  0  0
 15 13  1  0  0  0  0
 16 15  1  0  0  0  0
 16 18  1  0  0  0  0
 16 17  1  1  0  0  0
 18  2  1  6  0  0  0
 18 19  1  0  0  0  0
 19 21  1  0  0  0  0
 19 20  1  1  0  0  0
 21 22  1  6  0  0  0
 23 20  1  1  0  0  0
 23 29  1  0  0  0  0
 23 24  1  0  0  0  0
 24 26  1  0  0  0  0
 24 25  1  6  0  0  0
 26 27  1  6  0  0  0
 28 26  1  0  0  0  0
 28 30  1  1  0  0  0
 29 28  1  0  0  0  0
 30 31  1  0  0  0  0
 32 27  1  6  0  0  0
 32 40  1  0  0  0  0
 32 33  1  0  0  0  0
 33 35  1  0  0  0  0
 33 34  1  6  0  0  0
 35 37  1  0  0  0  0
 35 36  1  1  0  0  0
 37 38  1  6  0  0  0
 39 37  1  0  0  0  0
 39 41  1  6  0  0  0
 40 39  1  0  0  0  0
 42 41  1  0  0  0  0
M  END
>  <CHROM.1>
-148.60756455,174.69784179,-50.26533440,68.97008365,58.69603283,-72.73690996
72.50002734,61.47429188,-47.16059074,-160.16990867,95.16593662,-98.25789683
90.48766857,70.70222727,168.19711423,-92.59692271,65.35231790,-82.51715093
-24.80793204,62.94814506,159.87008125,82.48254393,0.16296392,3.60565617,0.76986646
2.80225792,0.93604123,-0.71999882

>  <Name>
lig.pdb

>  <RI>
3.17932e+07

>  <Rbt.Current_Directory>
/home/itssahil/PROJECTS/Mol_Feturizer/New_Systems/rnas/2mxs

>  <Rbt.Executable>
rbdock ($Id: //depot/dev/client3/rdock/2013.1/src/exe/rbdock.cxx#4 $)

>  <Rbt.Library>
libRbt.so (2013.1, Build901 2013/11/27)

>  <Rbt.Parameter_File>
/export/apps/rDock/src/rDock_2013.1_src/data/scripts/dock_solv.prm

>  <Rbt.Receptor>
prm/blind_docking_100.prm

>  <SCORE>
145.36

>  <SCORE.INTER>
116.576

>  <SCORE.INTER.CONST>
1

>  <SCORE.INTER.POLAR>
-2.31072

>  <SCORE.INTER.ROT>
9

>  <SCORE.INTER.SOLV>
35.8753

>  <SCORE.INTER.VDW>
63.8612

>  <SCORE.INTER.norm>
2.77561

>  <SCORE.INTRA>
9.6397

>  <SCORE.INTRA.DIHEDRAL>
4.16357

>  <SCORE.INTRA.DIHEDRAL.0>
30.1357

>  <SCORE.INTRA.POLAR>
0.427787

>  <SCORE.INTRA.POLAR.0>
-0.631696

>  <SCORE.INTRA.REPUL>
0

>  <SCORE.INTRA.REPUL.0>
0

>  <SCORE.INTRA.SOLV>
0.122531

>  <SCORE.INTRA.SOLV.lig_0>
-55.904

>  <SCORE.INTRA.VDW>
6.04217

>  <SCORE.INTRA.VDW.0>
-8.21197

>  <SCORE.INTRA.norm>
0.229517

>  <SCORE.RESTR>
19.1449

>  <SCORE.RESTR.CAVITY>
19.1449

>  <SCORE.RESTR.norm>
0.455831

>  <SCORE.SYSTEM>
0

>  <SCORE.SYSTEM.CONST>
0

>  <SCORE.SYSTEM.DIHEDRAL>
0

>  <SCORE.SYSTEM.SOLV>
0

>  <SCORE.SYSTEM.norm>
0

>  <SCORE.heavy>
42

>  <SCORE.norm>
3.46096

>  <RMSD>
7.759

$$$$
lig.pdb
 OpenBabel11021811453D
libRbt.so/2013.1/901 2013/11/27
 42 45  0  0  0  0  0  0  0  0999 V2000
   -2.0075    3.5375    6.9402 C   0  0  2  0  0  0  0  0  0  0  0  0
   -1.7750    2.3723    6.1466 O   0  0  0  0  0  0  0  0  0  0  0  0
   -2.6038    4.6690    6.0894 C   0  0  2  0  0  0  0  0  0  0  0  0
   -3.8235    4.2205    5.3926 N   0  0  0  0  0  0  0  0  0  0  0  0
   -1.5698    5.2129    5.0952 C   0  0  1  0  0  0  0  0  0  0  0  0
   -2.1011    6.3480    4.4389 O   0  0  0  0  0  0  0  0  0  0  0  0
   -0.2803    5.6074    5.8310 C   0  0  2  0  0  0  0  0  0  0  0  0
    0.7116    5.9554    4.8841 O   0  0  0  0  0  0  0  0  0  0  0  0
    0.2324    4.4620    6.7273 C   0  0  2  0  0  0  0  0  0  0  0  0
   -0.8042    3.9652    7.5733 O   0  0  0  0  0  0  0  0  0  0  0  0
    1.3888    5.0074    7.5867 C   0  0  0  0  0  0  0  0  0  0  0  0
    0.9590    6.0812    8.4656 O   0  0  0  0  0  0  0  0  0  0  0  0
   -4.4064   -0.9357    5.3320 C   0  0  2  0  0  0  0  0  0  0  0  0
   -5.7425   -1.5250    5.1131 N   0  0  0  0  0  0  0  0  0  0  0  0
   -4.3244   -0.3059    6.7247 C   0  0  0  0  0  0  0  0  0  0  0  0
   -3.0000    0.4262    6.9058 C   0  0  2  0  0  0  0  0  0  0  0  0
   -2.8892    0.9424    8.2759 N   0  0  0  0  0  0  0  0  0  0  0  0
   -2.9176    1.5554    5.8524 C   0  0  2  0  0  0  0  0  0  0  0  0
   -2.8356    0.9323    4.4958 C   0  0  2  0  0  0  0  0  0  0  0  0
   -2.7189    1.9804    3.5511 O   0  0  0  0  0  0  0  0  0  0  0  0
   -4.0782    0.1003    4.2405 C   0  0  1  0  0  0  0  0  0  0  0  0
   -4.0159   -0.5819    3.0020 O   0  0  0  0  0  0  0  0  0  0  0  0
   -2.3252    1.6382    2.2264 C   0  0  1  0  0  0  0  0  0  0  0  0
   -2.1748    2.9379    1.4330 C   0  0  2  0  0  0  0  0  0  0  0  0
   -2.5967    2.7237    0.0993 O   0  0  0  0  0  0  0  0  0  0  0  0
   -0.6707    3.2213    1.5447 C   0  0  2  0  0  0  0  0  0  0  0  0
   -0.1932    4.0893    0.5165 O   0  0  0  0  0  0  0  0  0  0  0  0
   -0.1252    1.7892    1.4838 C   0  0  2  0  0  0  0  0  0  0  0  0
   -1.0429    1.0240    2.2522 O   0  0  0  0  0  0  0  0  0  0  0  0
    1.2798    1.6214    2.0740 C   0  0  0  0  0  0  0  0  0  0  0  0
    1.7532    0.3001    1.9222 O   0  0  0  0  0  0  0  0  0  0  0  0
    0.9509    4.8618    0.8744 C   0  0  2  0  0  0  0  0  0  0  0  0
    0.8083    6.3283    0.4394 C   0  0  2  0  0  0  0  0  0  0  0  0
   -0.4270    6.9198    0.9799 N   0  0  0  0  0  0  0  0  0  0  0  0
    0.8735    6.4618   -1.0895 C   0  0  1  0  0  0  0  0  0  0  0  0
    0.8241    7.8349   -1.4254 O   0  0  0  0  0  0  0  0  0  0  0  0
    2.1955    5.8439   -1.5757 C   0  0  2  0  0  0  0  0  0  0  0  0
    2.2870    5.9023   -2.9873 O   0  0  0  0  0  0  0  0  0  0  0  0
    2.3382    4.3880   -1.0862 C   0  0  1  0  0  0  0  0  0  0  0  0
    2.1352    4.2883    0.3252 O   0  0  0  0  0  0  0  0  0  0  0  0
    1.4608    3.3957   -1.8635 C   0  0  0  0  0  0  0  0  0  0  0  0
    1.5031    2.0546   -1.2584 N   0  0  0  0  0  0  0  0  0  0  0  0
  1  3  1  0  0  0  0
  1  2  1  6  0  0  0
  3  4  1  6  0  0  0
  5  6  1  1  0  0  0
  5  3  1  0  0  0  0
  7  9  1  0  0  0  0
  7  5  1  0  0  0  0
  7  8  1  6  0  0  0
  9 10  1  0  0  0  0
  9 11  1  1  0  0  0
 10  1  1  0  0  0  0
 11 12  1  0  0  0  0
 13 14  1  6  0  0  0
 13 21  1  0  0  0  0
 15 13  1  0  0  0  0
 16 15  1  0  0  0  0
 16 18  1  0  0  0  0
 16 17  1  1  0  0  0
 18  2  1  1  0  0  0
 18 19  1  0  0  0  0
 19 21  1  0  0  0  0
 19 20  1  6  0  0  0
 21 22  1  6  0  0  0
 23 20  1  1  0  0  0
 23 29  1  0  0  0  0
 23 24  1  0  0  0  0
 24 26  1  0  0  0  0
 24 25  1  6  0  0  0
 26 27  1  6  0  0  0
 28 26  1  0  0  0  0
 28 30  1  1  0  0  0
 29 28  1  0  0  0  0
 30 31  1  0  0  0  0
 32 27  1  6  0  0  0
 32 40  1  0  0  0  0
 32 33  1  0  0  0  0
 33 35  1  0  0  0  0
 33 34  1  6  0  0  0
 35 37  1  0  0  0  0
 35 36  1  1  0  0  0
 37 38  1  6  0  0  0
 39 37  1  0  0  0  0
 39 41  1  6  0  0  0
 40 39  1  0  0  0  0
 42 41  1  0  0  0  0
M  END
>  <CHROM.1>
-94.43897475,-78.74145534,50.97669004,-175.90057123,-68.08950434,-174.69634097
62.02005988,-56.32890257,64.10698820,166.14098791,-176.00777531,163.69813070
-172.54746329,152.46759366,-135.15511713,-176.77583572,-56.92690255,118.11925400
61.64285930,165.91744666,-173.00752530,107.53330841,-0.94228766,3.29214249
3.16018956,-2.57134405,-0.96221782,-1.99280918

>  <Name>
lig.pdb

>  <RI>
0

>  <Rbt.Current_Directory>
/home/itssahil/PROJECTS/Mol_Feturizer/New_Systems/rnas/2mxs

>  <Rbt.Executable>
rbdock ($Id: //depot/dev/client3/rdock/2013.1/src/exe/rbdock.cxx#4 $)

>  <Rbt.Library>
libRbt.so (2013.1, Build901 2013/11/27)

>  <Rbt.Parameter_File>
/export/apps/rDock/src/rDock_2013.1_src/data/scripts/dock_solv.prm

>  <Rbt.Receptor>
prm/pocket_docking_4.prm

>  <SCORE>
-25.2203

>  <SCORE.INTER>
-25.2906

>  <SCORE.INTER.CONST>
1

>  <SCORE.INTER.POLAR>
-3.86186

>  <SCORE.INTER.ROT>
9

>  <SCORE.INTER.SOLV>
15.0238

>  <SCORE.INTER.VDW>
-18.5954

>  <SCORE.INTER.norm>
-0.602156

>  <SCORE.INTRA>
-0.493792

>  <SCORE.INTRA.DIHEDRAL>
-2.99306

>  <SCORE.INTRA.DIHEDRAL.0>
30.1357

>  <SCORE.INTRA.POLAR>
-0.369713

>  <SCORE.INTRA.POLAR.0>
-0.631696

>  <SCORE.INTRA.REPUL>
0

>  <SCORE.INTRA.REPUL.0>
0

>  <SCORE.INTRA.SOLV>
-0.239398

>  <SCORE.INTRA.SOLV.lig_0>
-55.904

>  <SCORE.INTRA.VDW>
2.37946

>  <SCORE.INTRA.VDW.0>
-8.21197

>  <SCORE.INTRA.norm>
-0.0117569

>  <SCORE.RESTR>
0.56406

>  <SCORE.RESTR.CAVITY>
0.56406

>  <SCORE.RESTR.norm>
0.01343

>  <SCORE.SYSTEM>
0

>  <SCORE.SYSTEM.CONST>
0

>  <SCORE.SYSTEM.DIHEDRAL>
0

>  <SCORE.SYSTEM.SOLV>
0

>  <SCORE.SYSTEM.norm>
0

>  <SCORE.heavy>
42

>  <SCORE.norm>
-0.600483

>  <RMSD>
7.775

$$$$
lig.pdb
 OpenBabel11021811453D
libRbt.so/2013.1/901 2013/11/27
 42 45  0  0  0  0  0  0  0  0999 V2000
    0.7602    6.0244    4.2612 C   0  0  2  0  0  0  0  0  0  0  0  0
    0.1062    4.7657    4.0889 O   0  0  0  0  0  0  0  0  0  0  0  0
    1.0053    6.3144    5.7497 C   0  0  2  0  0  0  0  0  0  0  0  0
    1.7477    5.2119    6.3883 N   0  0  0  0  0  0  0  0  0  0  0  0
   -0.3153    6.5859    6.4818 C   0  0  1  0  0  0  0  0  0  0  0  0
   -0.0414    6.9973    7.8074 O   0  0  0  0  0  0  0  0  0  0  0  0
   -1.1070    7.6871    5.7604 C   0  0  2  0  0  0  0  0  0  0  0  0
   -2.3847    7.8114    6.3549 O   0  0  0  0  0  0  0  0  0  0  0  0
   -1.2584    7.3818    4.2563 C   0  0  2  0  0  0  0  0  0  0  0  0
    0.0023    7.0729    3.6630 O   0  0  0  0  0  0  0  0  0  0  0  0
   -1.8643    8.6231    3.5743 C   0  0  0  0  0  0  0  0  0  0  0  0
   -0.9675    9.1980    2.5866 O   0  0  0  0  0  0  0  0  0  0  0  0
   -4.0648    3.7110    3.9439 C   0  0  2  0  0  0  0  0  0  0  0  0
   -5.4849    3.9297    4.2842 N   0  0  0  0  0  0  0  0  0  0  0  0
   -3.2367    3.5167    5.2165 C   0  0  0  0  0  0  0  0  0  0  0  0
   -1.7519    3.4313    4.8831 C   0  0  2  0  0  0  0  0  0  0  0  0
   -0.9754    3.1470    6.0963 N   0  0  0  0  0  0  0  0  0  0  0  0
   -1.3230    4.7600    4.2183 C   0  0  2  0  0  0  0  0  0  0  0  0
   -2.0129    4.8724    2.8966 C   0  0  2  0  0  0  0  0  0  0  0  0
   -1.5749    6.0731    2.2874 O   0  0  0  0  0  0  0  0  0  0  0  0
   -3.5156    4.8798    3.1044 C   0  0  1  0  0  0  0  0  0  0  0  0
   -4.2217    4.9001    1.8780 O   0  0  0  0  0  0  0  0  0  0  0  0
   -0.9291    5.9775    1.0223 C   0  0  1  0  0  0  0  0  0  0  0  0
    0.4788    5.4260    1.2566 C   0  0  2  0  0  0  0  0  0  0  0  0
    1.3766    6.0323    0.3459 O   0  0  0  0  0  0  0  0  0  0  0  0
    0.2926    3.9244    1.0005 C   0  0  2  0  0  0  0  0  0  0  0  0
    1.5169    3.2608    0.6851 O   0  0  0  0  0  0  0  0  0  0  0  0
   -0.7266    3.9744   -0.1444 C   0  0  2  0  0  0  0  0  0  0  0  0
   -1.6093    5.0302    0.2085 O   0  0  0  0  0  0  0  0  0  0  0  0
   -1.5383    2.6866   -0.3260 C   0  0  0  0  0  0  0  0  0  0  0  0
   -1.0831    1.9365   -1.4321 O   0  0  0  0  0  0  0  0  0  0  0  0
    1.4323    2.3429   -0.4032 C   0  0  2  0  0  0  0  0  0  0  0  0
    2.5813    1.3235   -0.3806 C   0  0  2  0  0  0  0  0  0  0  0  0
    2.6339    0.6184    0.9110 N   0  0  0  0  0  0  0  0  0  0  0  0
    3.9235    1.9936   -0.7105 C   0  0  1  0  0  0  0  0  0  0  0  0
    4.9258    0.9967   -0.7600 O   0  0  0  0  0  0  0  0  0  0  0  0
    3.7976    2.6875   -2.0774 C   0  0  2  0  0  0  0  0  0  0  0  0
    4.9982    3.3596   -2.4109 O   0  0  0  0  0  0  0  0  0  0  0  0
    2.6084    3.6699   -2.0911 C   0  0  1  0  0  0  0  0  0  0  0  0
    1.4045    3.0403   -1.6466 O   0  0  0  0  0  0  0  0  0  0  0  0
    2.8879    4.9748   -1.3308 C   0  0  0  0  0  0  0  0  0  0  0  0
    4.0839    5.6545   -1.8541 N   0  0  0  0  0  0  0  0  0  0  0  0
  1  3  1  0  0  0  0
  1  2  1  1  0  0  0
  3  4  1  1  0  0  0
  5  6  1  1  0  0  0
  5  3  1  0  0  0  0
  7  9  1  0  0  0  0
  7  5  1  0  0  0  0
  7  8  1  1  0  0  0
  9 10  1  0  0  0  0
  9 11  1  6  0  0  0
 10  1  1  0  0  0  0
 11 12  1  0  0  0  0
 13 14  1  1  0  0  0
 13 21  1  0  0  0  0
 15 13  1  0  0  0  0
 16 15  1  0  0  0  0
 16 18  1  0  0  0  0
 16 17  1  1  0  0  0
 18  2  1  6  0  0  0
 18 19  1  0  0  0  0
 19 21  1  0  0  0  0
 19 20  1  1  0  0  0
 21 22  1  6  0  0  0
 23 20  1  1  0  0  0
 23 29  1  0  0  0  0
 23 24  1  0  0  0  0
 24 26  1  0  0  0  0
 24 25  1  6  0  0  0
 26 27  1  6  0  0  0
 28 26  1  0  0  0  0
 28 30  1  1  0  0  0
 29 28  1  0  0  0  0
 30 31  1  0  0  0  0
 32 27  1  1  0  0  0
 32 40  1  0  0  0  0
 32 33  1  0  0  0  0
 33 35  1  0  0  0  0
 33 34  1  1  0  0  0
 35 37  1  0  0  0  0
 35 36  1  6  0  0  0
 37 38  1  1  0  0  0
 39 37  1  0  0  0  0
 39 41  1  1  0  0  0
 40 39  1  0  0  0  0
 42 41  1  0  0  0  0
M  END
>  <CHROM.1>
-144.42953829,83.99144063,-64.92821400,-52.93002361,-52.80341355,-88.71795835
117.53216144,-43.89153022,54.32386013,120.70125282,-74.21450980,-47.91953082
79.39383228,-135.99433614,-159.72120392,-103.74082096,-168.75795244,-53.60656633
-175.23577578,64.74313109,56.36473637,-127.21662795,0.03962616,4.66040649
2.13481882,-2.18077374,-0.24221298,-2.20731867

>  <Name>
lig.pdb

>  <RI>
3.17932e+07

>  <Rbt.Current_Directory>
/home/itssahil/PROJECTS/Mol_Feturizer/New_Systems/rnas/2mxs

>  <Rbt.Executable>
rbdock ($Id: //depot/dev/client3/rdock/2013.1/src/exe/rbdock.cxx#4 $)

>  <Rbt.Library>
libRbt.so (2013.1, Build901 2013/11/27)

>  <Rbt.Parameter_File>
/export/apps/rDock/src/rDock_2013.1_src/data/scripts/dock_solv.prm

>  <Rbt.Receptor>
prm/blind_docking_100.prm

>  <SCORE>
34.2252

>  <SCORE.INTER>
-14.1633

>  <SCORE.INTER.CONST>
1

>  <SCORE.INTER.POLAR>
-5.07658

>  <SCORE.INTER.ROT>
9

>  <SCORE.INTER.SOLV>
28.7366

>  <SCORE.INTER.VDW>
-11.6991

>  <SCORE.INTER.norm>
-0.337222

>  <SCORE.INTRA>
27.5718

>  <SCORE.INTRA.DIHEDRAL>
14.5439

>  <SCORE.INTRA.DIHEDRAL.0>
30.1357

>  <SCORE.INTRA.POLAR>
0.0204713

>  <SCORE.INTRA.POLAR.0>
-0.631696

>  <SCORE.INTRA.REPUL>
0.276541

>  <SCORE.INTRA.REPUL.0>
0

>  <SCORE.INTRA.SOLV>
3.81265

>  <SCORE.INTRA.SOLV.lig_0>
-55.904

>  <SCORE.INTRA.VDW>
16.9412

>  <SCORE.INTRA.VDW.0>
-8.21197

>  <SCORE.INTRA.norm>
0.65647

>  <SCORE.RESTR>
20.8168

>  <SCORE.RESTR.CAVITY>
20.8168

>  <SCORE.RESTR.norm>
0.495637

>  <SCORE.SYSTEM>
0

>  <SCORE.SYSTEM.CONST>
0

>  <SCORE.SYSTEM.DIHEDRAL>
0

>  <SCORE.SYSTEM.SOLV>
0

>  <SCORE.SYSTEM.norm>
0

>  <SCORE.heavy>
42

>  <SCORE.norm>
0.814886

>  <RMSD>
7.776

$$$$
lig.pdb
 OpenBabel11021811453D
libRbt.so/2013.1/901 2013/11/27
 42 45  0  0  0  0  0  0  0  0999 V2000
   -2.6955    4.9626    2.1721 C   0  0  2  0  0  0  0  0  0  0  0  0
   -2.4405    6.2824    1.6878 O   0  0  0  0  0  0  0  0  0  0  0  0
   -3.8893    4.9556    3.1387 C   0  0  2  0  0  0  0  0  0  0  0  0
   -5.0814    5.5559    2.5117 N   0  0  0  0  0  0  0  0  0  0  0  0
   -3.5387    5.6691    4.4508 C   0  0  1  0  0  0  0  0  0  0  0  0
   -4.6023    5.5108    5.3702 O   0  0  0  0  0  0  0  0  0  0  0  0
   -2.2545    5.0776    5.0514 C   0  0  2  0  0  0  0  0  0  0  0  0
   -1.8621    5.8493    6.1704 O   0  0  0  0  0  0  0  0  0  0  0  0
   -1.1116    5.0397    4.0167 C   0  0  2  0  0  0  0  0  0  0  0  0
   -1.5359    4.4231    2.8015 O   0  0  0  0  0  0  0  0  0  0  0  0
    0.0581    4.2421    4.6241 C   0  0  0  0  0  0  0  0  0  0  0  0
   -0.2511    2.8284    4.7523 O   0  0  0  0  0  0  0  0  0  0  0  0
    0.7082    7.6906   -0.8877 C   0  0  2  0  0  0  0  0  0  0  0  0
    2.1215    7.7688   -1.3083 N   0  0  0  0  0  0  0  0  0  0  0  0
    0.5478    8.2207    0.5393 C   0  0  0  0  0  0  0  0  0  0  0  0
   -0.8796    8.0136    1.0317 C   0  0  2  0  0  0  0  0  0  0  0  0
   -1.0490    8.6126    2.3615 N   0  0  0  0  0  0  0  0  0  0  0  0
   -1.1798    6.4966    1.0366 C   0  0  2  0  0  0  0  0  0  0  0  0
   -1.1812    6.0097   -0.3770 C   0  0  2  0  0  0  0  0  0  0  0  0
   -1.4987    4.6302   -0.3528 O   0  0  0  0  0  0  0  0  0  0  0  0
    0.1814    6.2476   -0.9999 C   0  0  1  0  0  0  0  0  0  0  0  0
    0.2122    5.8814   -2.3667 O   0  0  0  0  0  0  0  0  0  0  0  0
   -0.7925    3.7716   -1.2421 C   0  0  1  0  0  0  0  0  0  0  0  0
    0.5264    3.3846   -0.5695 C   0  0  2  0  0  0  0  0  0  0  0  0
    1.5411    3.2863   -1.5510 O   0  0  0  0  0  0  0  0  0  0  0  0
    0.1855    2.0336    0.0737 C   0  0  2  0  0  0  0  0  0  0  0  0
    1.3428    1.2431    0.3469 O   0  0  0  0  0  0  0  0  0  0  0  0
   -0.7499    1.4580   -0.9967 C   0  0  2  0  0  0  0  0  0  0  0  0
   -1.5258    2.5674   -1.4275 O   0  0  0  0  0  0  0  0  0  0  0  0
   -1.6910    0.3588   -0.4902 C   0  0  0  0  0  0  0  0  0  0  0  0
   -2.7306    0.8896    0.3040 O   0  0  0  0  0  0  0  0  0  0  0  0
    1.6406    0.2627   -0.6452 C   0  0  2  0  0  0  0  0  0  0  0  0
    2.4029   -0.9333   -0.0547 C   0  0  2  0  0  0  0  0  0  0  0  0
    1.6645   -1.5223    1.0748 N   0  0  0  0  0  0  0  0  0  0  0  0
    3.8295   -0.5350    0.3525 C   0  0  1  0  0  0  0  0  0  0  0  0
    4.5085   -1.6898    0.8065 O   0  0  0  0  0  0  0  0  0  0  0  0
    4.5417    0.0492   -0.8793 C   0  0  2  0  0  0  0  0  0  0  0  0
    5.8509    0.4735   -0.5471 O   0  0  0  0  0  0  0  0  0  0  0  0
    3.7338    1.2165   -1.4829 C   0  0  1  0  0  0  0  0  0  0  0  0
    2.3744    0.8441   -1.7206 O   0  0  0  0  0  0  0  0  0  0  0  0
    3.8392    2.5148   -0.6692 C   0  0  0  0  0  0  0  0  0  0  0  0
    4.5613    3.5580   -1.4151 N   0  0  0  0  0  0  0  0  0  0  0  0
  1  3  1  0  0  0  0
  1  2  1  1  0  0  0
  3  4  1  6  0  0  0
  5  6  1  1  0  0  0
  5  3  1  0  0  0  0
  7  9  1  0  0  0  0
  7  5  1  0  0  0  0
  7  8  1  1  0  0  0
  9 10  1  0  0  0  0
  9 11  1  1  0  0  0
 10  1  1  0  0  0  0
 11 12  1  0  0  0  0
 13 14  1  1  0  0  0
 13 21  1  0  0  0  0
 15 13  1  0  0  0  0
 16 15  1  0  0  0  0
 16 18  1  0  0  0  0
 16 17  1  1  0  0  0
 18  2  1  6  0  0  0
 18 19  1  0  0  0  0
 19 21  1  0  0  0  0
 19 20  1  1  0  0  0
 21 22  1  6  0  0  0
 23 20  1  1  0  0  0
 23 29  1  0  0  0  0
 23 24  1  0  0  0  0
 24 26  1  0  0  0  0
 24 25  1  6  0  0  0
 26 27  1  6  0  0  0
 28 26  1  0  0  0  0
 28 30  1  1  0  0  0
 29 28  1  0  0  0  0
 30 31  1  0  0  0  0
 32 27  1  1  0  0  0
 32 40  1  0  0  0  0
 32 33  1  0  0  0  0
 33 35  1  0  0  0  0
 33 34  1  1  0  0  0
 35 37  1  0  0  0  0
 35 36  1  6  0  0  0
 37 38  1  1  0  0  0
 39 37  1  0  0  0  0
 39 41  1  1  0  0  0
 40 39  1  0  0  0  0
 42 41  1  0  0  0  0
M  END
>  <CHROM.1>
-160.58056480,165.68594747,135.76959539,63.76028908,-179.99777484,69.58355124
69.36610899,-65.77454143,-45.27468992,-139.97868863,84.43959803,-30.58068034
54.99326558,-97.24667822,-152.98488376,73.76898807,-54.59902867,99.83710690
57.57739141,67.20207783,112.94699421,-49.64564053,0.10291874,3.63727009,0.84363268
2.68833237,0.76920109,-0.38043473

>  <Name>
lig.pdb

>  <RI>
3.17932e+07

>  <Rbt.Current_Directory>
/home/itssahil/PROJECTS/Mol_Feturizer/New_Systems/rnas/2mxs

>  <Rbt.Executable>
rbdock ($Id: //depot/dev/client3/rdock/2013.1/src/exe/rbdock.cxx#4 $)

>  <Rbt.Library>
libRbt.so (2013.1, Build901 2013/11/27)

>  <Rbt.Parameter_File>
/export/apps/rDock/src/rDock_2013.1_src/data/scripts/dock_solv.prm

>  <Rbt.Receptor>
prm/blind_docking_100.prm

>  <SCORE>
109.343

>  <SCORE.INTER>
73.3379

>  <SCORE.INTER.CONST>
1

>  <SCORE.INTER.POLAR>
-4.46791

>  <SCORE.INTER.ROT>
9

>  <SCORE.INTER.SOLV>
34.0743

>  <SCORE.INTER.VDW>
42.8269

>  <SCORE.INTER.norm>
1.74614

>  <SCORE.INTRA>
15.0427

>  <SCORE.INTRA.DIHEDRAL>
5.73168

>  <SCORE.INTRA.DIHEDRAL.0>
30.1357

>  <SCORE.INTRA.POLAR>
0.0213687

>  <SCORE.INTRA.POLAR.0>
-0.631696

>  <SCORE.INTRA.REPUL>
0

>  <SCORE.INTRA.REPUL.0>
0

>  <SCORE.INTRA.SOLV>
1.49015

>  <SCORE.INTRA.SOLV.lig_0>
-55.904

>  <SCORE.INTRA.VDW>
11.3591

>  <SCORE.INTRA.VDW.0>
-8.21197

>  <SCORE.INTRA.norm>
0.358159

>  <SCORE.RESTR>
20.9627

>  <SCORE.RESTR.CAVITY>
20.9627

>  <SCORE.RESTR.norm>
0.499112

>  <SCORE.SYSTEM>
0

>  <SCORE.SYSTEM.CONST>
0

>  <SCORE.SYSTEM.DIHEDRAL>
0

>  <SCORE.SYSTEM.SOLV>
0

>  <SCORE.SYSTEM.norm>
0

>  <SCORE.heavy>
42

>  <SCORE.norm>
2.60341

>  <RMSD>
7.782

$$$$
lig.pdb
 OpenBabel11021811453D
libRbt.so/2013.1/901 2013/11/27
 42 45  0  0  0  0  0  0  0  0999 V2000
   -2.5771    4.9738    3.5618 C   0  0  2  0  0  0  0  0  0  0  0  0
   -2.2834    6.2913    3.0934 O   0  0  0  0  0  0  0  0  0  0  0  0
   -3.8428    4.9720    4.4323 C   0  0  2  0  0  0  0  0  0  0  0  0
   -4.9814    5.5708    3.7116 N   0  0  0  0  0  0  0  0  0  0  0  0
   -3.5948    5.6909    5.7647 C   0  0  1  0  0  0  0  0  0  0  0  0
   -4.7271    5.5375    6.5990 O   0  0  0  0  0  0  0  0  0  0  0  0
   -2.3621    5.1009    6.4663 C   0  0  2  0  0  0  0  0  0  0  0  0
   -2.0573    5.8769    7.6092 O   0  0  0  0  0  0  0  0  0  0  0  0
   -1.1419    5.0574    5.5241 C   0  0  2  0  0  0  0  0  0  0  0  0
   -1.4709    4.4360    4.2821 O   0  0  0  0  0  0  0  0  0  0  0  0
   -0.0243    4.2613    6.2244 C   0  0  0  0  0  0  0  0  0  0  0  0
   -0.0030    2.8686    5.8120 O   0  0  0  0  0  0  0  0  0  0  0  0
   -0.3043    7.1233   -0.6378 C   0  0  2  0  0  0  0  0  0  0  0  0
    0.8893    7.1758   -1.5055 N   0  0  0  0  0  0  0  0  0  0  0  0
   -0.1132    8.0244    0.5848 C   0  0  0  0  0  0  0  0  0  0  0  0
   -1.2787    7.8681    1.5544 C   0  0  2  0  0  0  0  0  0  0  0  0
   -1.1358    8.8067    2.6743 N   0  0  0  0  0  0  0  0  0  0  0  0
   -1.3233    6.3980    2.0322 C   0  0  2  0  0  0  0  0  0  0  0  0
   -1.6695    5.5309    0.8643 C   0  0  2  0  0  0  0  0  0  0  0  0
   -1.7462    4.1966    1.3314 O   0  0  0  0  0  0  0  0  0  0  0  0
   -0.6088    5.6752   -0.2105 C   0  0  1  0  0  0  0  0  0  0  0  0
   -0.9295    4.9392   -1.3760 O   0  0  0  0  0  0  0  0  0  0  0  0
   -2.1078    3.1863    0.3958 C   0  0  1  0  0  0  0  0  0  0  0  0
   -1.4100    1.8903    0.8141 C   0  0  2  0  0  0  0  0  0  0  0  0
   -1.0304    1.1687   -0.3426 O   0  0  0  0  0  0  0  0  0  0  0  0
   -2.4967    1.1787    1.6313 C   0  0  2  0  0  0  0  0  0  0  0  0
   -2.2820   -0.2295    1.7296 O   0  0  0  0  0  0  0  0  0  0  0  0
   -3.7404    1.5866    0.8320 C   0  0  2  0  0  0  0  0  0  0  0  0
   -3.5064    2.9412    0.4733 O   0  0  0  0  0  0  0  0  0  0  0  0
   -5.0542    1.4993    1.6173 C   0  0  0  0  0  0  0  0  0  0  0  0
   -6.1533    1.2528    0.7662 O   0  0  0  0  0  0  0  0  0  0  0  0
   -2.7739   -0.8235    2.9293 C   0  0  2  0  0  0  0  0  0  0  0  0
   -1.9355   -2.0406    3.3488 C   0  0  2  0  0  0  0  0  0  0  0  0
   -0.5129   -1.6819    3.4737 N   0  0  0  0  0  0  0  0  0  0  0  0
   -2.1365   -3.2136    2.3776 C   0  0  1  0  0  0  0  0  0  0  0  0
   -1.4115   -4.3283    2.8598 O   0  0  0  0  0  0  0  0  0  0  0  0
   -3.6377   -3.5430    2.3170 C   0  0  2  0  0  0  0  0  0  0  0  0
   -3.8839   -4.5930    1.3998 O   0  0  0  0  0  0  0  0  0  0  0  0
   -4.4628   -2.2948    1.9414 C   0  0  1  0  0  0  0  0  0  0  0  0
   -4.1456   -1.1848    2.7843 O   0  0  0  0  0  0  0  0  0  0  0  0
   -4.3703   -1.9294    0.4525 C   0  0  0  0  0  0  0  0  0  0  0  0
   -5.1242   -2.8800   -0.3807 N   0  0  0  0  0  0  0  0  0  0  0  0
  1  3  1  0  0  0  0
  1  2  1  1  0  0  0
  3  4  1  6  0  0  0
  5  6  1  1  0  0  0
  5  3  1  0  0  0  0
  7  9  1  0  0  0  0
  7  5  1  0  0  0  0
  7  8  1  1  0  0  0
  9 10  1  0  0  0  0
  9 11  1  1  0  0  0
 10  1  1  0  0  0  0
 11 12  1  0  0  0  0
 13 14  1  6  0  0  0
 13 21  1  0  0  0  0
 15 13  1  0  0  0  0
 16 15  1  0  0  0  0
 16 18  1  0  0  0  0
 16 17  1  1  0  0  0
 18  2  1  1  0  0  0
 18 19  1  0  0  0  0
 19 21  1  0  0  0  0
 19 20  1  1  0  0  0
 21 22  1  6  0  0  0
 23 20  1  1  0  0  0
 23 29  1  0  0  0  0
 23 24  1  0  0  0  0
 24 26  1  0  0  0  0
 24 25  1  6  0  0  0
 26 27  1  6  0  0  0
 28 26  1  0  0  0  0
 28 30  1  1  0  0  0
 29 28  1  0  0  0  0
 30 31  1  0  0  0  0
 32 27  1  6  0  0  0
 32 40  1  0  0  0  0
 32 33  1  0  0  0  0
 33 35  1  0  0  0  0
 33 34  1  6  0  0  0
 35 37  1  0  0  0  0
 35 36  1  1  0  0  0
 37 38  1  6  0  0  0
 39 37  1  0  0  0  0
 39 41  1  6  0  0  0
 40 39  1  0  0  0  0
 42 41  1  0  0  0  0
M  END
>  <CHROM.1>
173.02510398,-166.08035669,-43.05100858,57.28446303,-59.89651315,175.75962717
96.18218630,-126.93499218,-175.27308020,178.05906155,148.88990835,65.27195800
-179.08622808,149.73931614,-149.51966834,-151.91064469,-170.47736252,-161.89895798
-154.89302126,72.84970666,72.63123249,-12.05072540,-2.37225823,2.64269841
2.37400686,0.72685487,1.30430850,0.93955222

>  <Name>
lig.pdb

>  <RI>
0

>  <Rbt.Current_Directory>
/home/itssahil/PROJECTS/Mol_Feturizer/New_Systems/rnas/2mxs

>  <Rbt.Executable>
rbdock ($Id: //depot/dev/client3/rdock/2013.1/src/exe/rbdock.cxx#4 $)

>  <Rbt.Library>
libRbt.so (2013.1, Build901 2013/11/27)

>  <Rbt.Parameter_File>
/export/apps/rDock/src/rDock_2013.1_src/data/scripts/dock_solv.prm

>  <Rbt.Receptor>
prm/pocket_docking_7.prm

>  <SCORE>
-27.8436

>  <SCORE.INTER>
-33.8679

>  <SCORE.INTER.CONST>
1

>  <SCORE.INTER.POLAR>
-5.38577

>  <SCORE.INTER.ROT>
9

>  <SCORE.INTER.SOLV>
24.0678

>  <SCORE.INTER.VDW>
-22.2486

>  <SCORE.INTER.norm>
-0.806379

>  <SCORE.INTRA>
6.02431

>  <SCORE.INTRA.DIHEDRAL>
1.44249

>  <SCORE.INTRA.DIHEDRAL.0>
30.1357

>  <SCORE.INTRA.POLAR>
0.160028

>  <SCORE.INTRA.POLAR.0>
-0.631696

>  <SCORE.INTRA.REPUL>
0

>  <SCORE.INTRA.REPUL.0>
0

>  <SCORE.INTRA.SOLV>
-1.10635

>  <SCORE.INTRA.SOLV.lig_0>
-55.904

>  <SCORE.INTRA.VDW>
5.31215

>  <SCORE.INTRA.VDW.0>
-8.21197

>  <SCORE.INTRA.norm>
0.143436

>  <SCORE.RESTR>
0

>  <SCORE.RESTR.CAVITY>
0

>  <SCORE.RESTR.norm>
0

>  <SCORE.SYSTEM>
0

>  <SCORE.SYSTEM.CONST>
0

>  <SCORE.SYSTEM.DIHEDRAL>
0

>  <SCORE.SYSTEM.SOLV>
0

>  <SCORE.SYSTEM.norm>
0

>  <SCORE.heavy>
42

>  <SCORE.norm>
-0.662943

>  <RMSD>
7.799

$$$$
lig.pdb
 OpenBabel11021811453D
libRbt.so/2013.1/901 2013/11/27
 42 45  0  0  0  0  0  0  0  0999 V2000
   -2.7929    6.5000    4.3291 C   0  0  2  0  0  0  0  0  0  0  0  0
   -2.9181    6.7837    2.9343 O   0  0  0  0  0  0  0  0  0  0  0  0
   -1.4493    7.0091    4.8725 C   0  0  2  0  0  0  0  0  0  0  0  0
   -1.2696    8.4432    4.5802 N   0  0  0  0  0  0  0  0  0  0  0  0
   -0.2825    6.1831    4.3159 C   0  0  1  0  0  0  0  0  0  0  0  0
    0.9179    6.5780    4.9520 O   0  0  0  0  0  0  0  0  0  0  0  0
   -0.5227    4.6866    4.5665 C   0  0  2  0  0  0  0  0  0  0  0  0
    0.4800    3.9349    3.9101 O   0  0  0  0  0  0  0  0  0  0  0  0
   -1.9147    4.2463    4.0696 C   0  0  2  0  0  0  0  0  0  0  0  0
   -2.9379    5.1034    4.5750 O   0  0  0  0  0  0  0  0  0  0  0  0
   -2.1603    2.8034    4.5500 C   0  0  0  0  0  0  0  0  0  0  0  0
   -2.3471    1.8817    3.4427 O   0  0  0  0  0  0  0  0  0  0  0  0
   -4.3400    3.0442    1.3451 C   0  0  2  0  0  0  0  0  0  0  0  0
   -5.1213    2.2408    0.3836 N   0  0  0  0  0  0  0  0  0  0  0  0
   -5.2629    3.9798    2.1301 C   0  0  0  0  0  0  0  0  0  0  0  0
   -4.4505    4.9107    3.0225 C   0  0  2  0  0  0  0  0  0  0  0  0
   -5.3462    5.7354    3.8432 N   0  0  0  0  0  0  0  0  0  0  0  0
   -3.5315    5.7706    2.1240 C   0  0  2  0  0  0  0  0  0  0  0  0
   -2.5247    4.8725    1.4795 C   0  0  2  0  0  0  0  0  0  0  0  0
   -1.6691    5.6838    0.6957 O   0  0  0  0  0  0  0  0  0  0  0  0
   -3.2351    3.8399    0.6250 C   0  0  1  0  0  0  0  0  0  0  0  0
   -2.3332    2.9091    0.0564 O   0  0  0  0  0  0  0  0  0  0  0  0
   -0.3665    5.9559    1.2016 C   0  0  1  0  0  0  0  0  0  0  0  0
    0.5794    4.8825    0.6589 C   0  0  2  0  0  0  0  0  0  0  0  0
    1.5474    4.5706    1.6430 O   0  0  0  0  0  0  0  0  0  0  0  0
    1.1824    5.5667   -0.5754 C   0  0  2  0  0  0  0  0  0  0  0  0
    2.4226    4.9859   -0.9794 O   0  0  0  0  0  0  0  0  0  0  0  0
    1.2837    7.0069   -0.0580 C   0  0  2  0  0  0  0  0  0  0  0  0
    0.0936    7.2016    0.6930 O   0  0  0  0  0  0  0  0  0  0  0  0
    1.3575    8.0713   -1.1589 C   0  0  0  0  0  0  0  0  0  0  0  0
    0.1592    8.1341   -1.9027 O   0  0  0  0  0  0  0  0  0  0  0  0
    2.3145    4.0195   -2.0228 C   0  0  2  0  0  0  0  0  0  0  0  0
    2.5838    2.5959   -1.5121 C   0  0  2  0  0  0  0  0  0  0  0  0
    1.6983    2.2655   -0.3831 N   0  0  0  0  0  0  0  0  0  0  0  0
    4.0625    2.4109   -1.1399 C   0  0  1  0  0  0  0  0  0  0  0  0
    4.2676    1.0637   -0.7607 O   0  0  0  0  0  0  0  0  0  0  0  0
    4.9201    2.7521   -2.3704 C   0  0  2  0  0  0  0  0  0  0  0  0
    6.2985    2.6389   -2.0677 O   0  0  0  0  0  0  0  0  0  0  0  0
    4.5976    4.1668   -2.8938 C   0  0  1  0  0  0  0  0  0  0  0  0
    3.1937    4.3417   -3.0981 O   0  0  0  0  0  0  0  0  0  0  0  0
    5.1955    5.2867   -2.0294 C   0  0  0  0  0  0  0  0  0  0  0  0
    4.3170    6.4673   -1.9987 N   0  0  0  0  0  0  0  0  0  0  0  0
  1  3  1  0  0  0  0
  1  2  1  6  0  0  0
  3  4  1  6  0  0  0
  5  6  1  1  0  0  0
  5  3  1  0  0  0  0
  7  9  1  0  0  0  0
  7  5  1  0  0  0  0
  7  8  1  6  0  0  0
  9 10  1  0  0  0  0
  9 11  1  1  0  0  0
 10  1  1  0  0  0  0
 11 12  1  0  0  0  0
 13 14  1  6  0  0  0
 13 21  1  0  0  0  0
 15 13  1  0  0  0  0
 16 15  1  0  0  0  0
 16 18  1  0  0  0  0
 16 17  1  6  0  0  0
 18  2  1  1  0  0  0
 18 19  1  0  0  0  0
 19 21  1  0  0  0  0
 19 20  1  6  0  0  0
 21 22  1  1  0  0  0
 23 20  1  6  0  0  0
 23 29  1  0  0  0  0
 23 24  1  0  0  0  0
 24 26  1  0  0  0  0
 24 25  1  1  0  0  0
 26 27  1  1  0  0  0
 28 26  1  0  0  0  0
 28 30  1  6  0  0  0
 29 28  1  0  0  0  0
 30 31  1  0  0  0  0
 32 27  1  1  0  0  0
 32 40  1  0  0  0  0
 32 33  1  0  0  0  0
 33 35  1  0  0  0  0
 33 34  1  1  0  0  0
 35 37  1  0  0  0  0
 35 36  1  6  0  0  0
 37 38  1  1  0  0  0
 39 37  1  0  0  0  0
 39 41  1  1  0  0  0
 40 39  1  0  0  0  0
 42 41  1  0  0  0  0
M  END
>  <CHROM.1>
24.91752209,140.87193556,-68.43092474,61.81444935,-176.56148112,-164.13379378
-118.90532694,-80.20378194,41.29347156,104.26103053,91.74666740,131.83738955
61.90027523,96.50689333,-109.40238726,66.01872845,49.30079920,171.94225530
-56.15424786,-174.80861054,-146.01432426,59.61092731,-0.06520689,4.78920617
1.09931779,-2.76551616,-0.53034468,-2.67764669

>  <Name>
lig.pdb

>  <RI>
3.31443e+07

>  <Rbt.Current_Directory>
/home/itssahil/PROJECTS/Mol_Feturizer/New_Systems/rnas/2mxs

>  <Rbt.Executable>
rbdock ($Id: //depot/dev/client3/rdock/2013.1/src/exe/rbdock.cxx#4 $)

>  <Rbt.Library>
libRbt.so (2013.1, Build901 2013/11/27)

>  <Rbt.Parameter_File>
/export/apps/rDock/src/rDock_2013.1_src/data/scripts/dock_solv.prm

>  <Rbt.Receptor>
prm/blind_docking_40.prm

>  <SCORE>
86.212

>  <SCORE.INTER>
36.4448

>  <SCORE.INTER.CONST>
1

>  <SCORE.INTER.POLAR>
-3.69094

>  <SCORE.INTER.ROT>
9

>  <SCORE.INTER.SOLV>
34.4536

>  <SCORE.INTER.VDW>
15.5151

>  <SCORE.INTER.norm>
0.867734

>  <SCORE.INTRA>
30.3241

>  <SCORE.INTRA.DIHEDRAL>
20.2807

>  <SCORE.INTRA.DIHEDRAL.0>
30.1357

>  <SCORE.INTRA.POLAR>
-1.79487

>  <SCORE.INTRA.POLAR.0>
-0.631696

>  <SCORE.INTRA.REPUL>
0

>  <SCORE.INTRA.REPUL.0>
0

>  <SCORE.INTRA.SOLV>
4.31458

>  <SCORE.INTRA.SOLV.lig_0>
-55.904

>  <SCORE.INTRA.VDW>
24.129

>  <SCORE.INTRA.VDW.0>
-8.21197

>  <SCORE.INTRA.norm>
0.722001

>  <SCORE.RESTR>
19.4431

>  <SCORE.RESTR.CAVITY>
19.4431

>  <SCORE.RESTR.norm>
0.462931

>  <SCORE.SYSTEM>
0

>  <SCORE.SYSTEM.CONST>
0

>  <SCORE.SYSTEM.DIHEDRAL>
0

>  <SCORE.SYSTEM.SOLV>
0

>  <SCORE.SYSTEM.norm>
0

>  <SCORE.heavy>
42

>  <SCORE.norm>
2.05267

>  <RMSD>
7.802

$$$$
lig.pdb
 OpenBabel11021811453D
libRbt.so/2013.1/901 2013/11/27
 42 45  0  0  0  0  0  0  0  0999 V2000
   -1.3681    5.8627    2.2884 C   0  0  2  0  0  0  0  0  0  0  0  0
   -1.1517    5.5246    0.9171 O   0  0  0  0  0  0  0  0  0  0  0  0
   -0.9279    4.7159    3.2107 C   0  0  2  0  0  0  0  0  0  0  0  0
    0.4718    4.3334    2.9483 N   0  0  0  0  0  0  0  0  0  0  0  0
   -1.8641    3.5085    3.0721 C   0  0  1  0  0  0  0  0  0  0  0  0
   -1.5224    2.5356    4.0407 O   0  0  0  0  0  0  0  0  0  0  0  0
   -3.3238    3.9406    3.2778 C   0  0  2  0  0  0  0  0  0  0  0  0
   -4.1797    2.8513    2.9908 O   0  0  0  0  0  0  0  0  0  0  0  0
   -3.6895    5.1419    2.3824 C   0  0  2  0  0  0  0  0  0  0  0  0
   -2.7353    6.1948    2.5166 O   0  0  0  0  0  0  0  0  0  0  0  0
   -5.0832    5.6459    2.8030 C   0  0  0  0  0  0  0  0  0  0  0  0
   -5.2643    5.6168    4.2440 O   0  0  0  0  0  0  0  0  0  0  0  0
    1.2452    7.9014   -1.7543 C   0  0  2  0  0  0  0  0  0  0  0  0
    2.5191    8.5183   -2.1749 N   0  0  0  0  0  0  0  0  0  0  0  0
    0.8308    8.4234   -0.3762 C   0  0  0  0  0  0  0  0  0  0  0  0
   -0.4062    7.6887    0.1265 C   0  0  2  0  0  0  0  0  0  0  0  0
   -0.8533    8.2625    1.4019 N   0  0  0  0  0  0  0  0  0  0  0  0
   -0.0639    6.1861    0.2550 C   0  0  2  0  0  0  0  0  0  0  0  0
    0.1847    5.6384   -1.1139 C   0  0  2  0  0  0  0  0  0  0  0  0
    0.4546    4.2553   -0.9775 O   0  0  0  0  0  0  0  0  0  0  0  0
    1.3549    6.3651   -1.7494 C   0  0  1  0  0  0  0  0  0  0  0  0
    1.5821    5.9439   -3.0813 O   0  0  0  0  0  0  0  0  0  0  0  0
    1.4904    3.8671   -0.0812 C   0  0  1  0  0  0  0  0  0  0  0  0
    1.3371    2.3689    0.1898 C   0  0  2  0  0  0  0  0  0  0  0  0
    1.6889    2.0979    1.5335 O   0  0  0  0  0  0  0  0  0  0  0  0
    2.3130    1.7488   -0.8192 C   0  0  2  0  0  0  0  0  0  0  0  0
    2.7158    0.4272   -0.4590 O   0  0  0  0  0  0  0  0  0  0  0  0
    3.4330    2.7959   -0.7837 C   0  0  2  0  0  0  0  0  0  0  0  0
    2.7551    4.0421   -0.7074 O   0  0  0  0  0  0  0  0  0  0  0  0
    4.3384    2.7966   -2.0210 C   0  0  0  0  0  0  0  0  0  0  0  0
    4.9660    1.5457   -2.2068 O   0  0  0  0  0  0  0  0  0  0  0  0
    1.7983   -0.5975   -0.8363 C   0  0  2  0  0  0  0  0  0  0  0  0
    0.3406   -0.1222   -0.7395 C   0  0  2  0  0  0  0  0  0  0  0  0
    0.1322    1.1010   -1.5322 N   0  0  0  0  0  0  0  0  0  0  0  0
   -0.0813    0.0774    0.7240 C   0  0  1  0  0  0  0  0  0  0  0  0
   -1.4509    0.4296    0.7550 O   0  0  0  0  0  0  0  0  0  0  0  0
    0.1441   -1.2433    1.4795 C   0  0  2  0  0  0  0  0  0  0  0  0
   -0.1898   -1.1012    2.8480 O   0  0  0  0  0  0  0  0  0  0  0  0
    1.6016   -1.7251    1.3277 C   0  0  1  0  0  0  0  0  0  0  0  0
    1.9987   -1.7665   -0.0449 O   0  0  0  0  0  0  0  0  0  0  0  0
    2.5972   -0.9344    2.1893 C   0  0  0  0  0  0  0  0  0  0  0  0
    1.9127    0.0870    2.9984 N   0  0  0  0  0  0  0  0  0  0  0  0
  1  3  1  0  0  0  0
  1  2  1  6  0  0  0
  3  4  1  6  0  0  0
  5  6  1  1  0  0  0
  5  3  1  0  0  0  0
  7  9  1  0  0  0  0
  7  5  1  0  0  0  0
  7  8  1  6  0  0  0
  9 10  1  0  0  0  0
  9 11  1  1  0  0  0
 10  1  1  0  0  0  0
 11 12  1  0  0  0  0
 13 14  1  1  0  0  0
 13 21  1  0  0  0  0
 15 13  1  0  0  0  0
 16 15  1  0  0  0  0
 16 18  1  0  0  0  0
 16 17  1  1  0  0  0
 18  2  1  6  0  0  0
 18 19  1  0  0  0  0
 19 21  1  0  0  0  0
 19 20  1  1  0  0  0
 21 22  1  6  0  0  0
 23 20  1  6  0  0  0
 23 29  1  0  0  0  0
 23 24  1  0  0  0  0
 24 26  1  0  0  0  0
 24 25  1  1  0  0  0
 26 27  1  1  0  0  0
 28 26  1  0  0  0  0
 28 30  1  6  0  0  0
 29 28  1  0  0  0  0
 30 31  1  0  0  0  0
 32 27  1  1  0  0  0
 32 40  1  0  0  0  0
 32 33  1  0  0  0  0
 33 35  1  0  0  0  0
 33 34  1  6  0  0  0
 35 37  1  0  0  0  0
 35 36  1  6  0  0  0
 37 38  1  1  0  0  0
 39 37  1  0  0  0  0
 39 41  1  1  0  0  0
 40 39  1  0  0  0  0
 42 41  1  0  0  0  0
M  END
>  <CHROM.1>
-67.33217304,-107.00352307,17.21830463,-175.27701127,-51.57020959,-61.04789173
39.50843078,-170.04474277,-68.88218273,-54.00980103,164.54253515,81.38332814
-68.09706336,82.70998081,-34.81056077,-59.05499571,36.54515627,27.65563656
-164.80150778,69.67500604,1.64263979,63.45261670,0.23474344,3.34437410,0.71643967
2.28616612,0.67131953,-0.27461206

>  <Name>
lig.pdb

>  <RI>
0

>  <Rbt.Current_Directory>
/home/itssahil/PROJECTS/Mol_Feturizer/New_Systems/rnas/2mxs

>  <Rbt.Executable>
rbdock ($Id: //depot/dev/client3/rdock/2013.1/src/exe/rbdock.cxx#4 $)

>  <Rbt.Library>
libRbt.so (2013.1, Build901 2013/11/27)

>  <Rbt.Parameter_File>
/export/apps/rDock/src/rDock_2013.1_src/data/scripts/dock_solv.prm

>  <Rbt.Receptor>
prm/blind_docking_20.prm

>  <SCORE>
53.0503

>  <SCORE.INTER>
5.78616

>  <SCORE.INTER.CONST>
1

>  <SCORE.INTER.POLAR>
-1.89965

>  <SCORE.INTER.ROT>
9

>  <SCORE.INTER.SOLV>
27.4513

>  <SCORE.INTER.VDW>
-8.56081

>  <SCORE.INTER.norm>
0.137766

>  <SCORE.INTRA>
31.2282

>  <SCORE.INTRA.DIHEDRAL>
1.81227

>  <SCORE.INTRA.DIHEDRAL.0>
30.1357

>  <SCORE.INTRA.POLAR>
-2.76602

>  <SCORE.INTRA.POLAR.0>
-0.631696

>  <SCORE.INTRA.REPUL>
0

>  <SCORE.INTRA.REPUL.0>
0

>  <SCORE.INTRA.SOLV>
5.69572

>  <SCORE.INTRA.SOLV.lig_0>
-55.904

>  <SCORE.INTRA.VDW>
36.8787

>  <SCORE.INTRA.VDW.0>
-8.21197

>  <SCORE.INTRA.norm>
0.743528

>  <SCORE.RESTR>
16.0359

>  <SCORE.RESTR.CAVITY>
16.0359

>  <SCORE.RESTR.norm>
0.381808

>  <SCORE.SYSTEM>
0

>  <SCORE.SYSTEM.CONST>
0

>  <SCORE.SYSTEM.DIHEDRAL>
0

>  <SCORE.SYSTEM.SOLV>
0

>  <SCORE.SYSTEM.norm>
0

>  <SCORE.heavy>
42

>  <SCORE.norm>
1.2631

>  <RMSD>
7.810

$$$$
lig.pdb
 OpenBabel11021811453D
libRbt.so/2013.1/901 2013/11/27
 42 45  0  0  0  0  0  0  0  0999 V2000
   -4.3647   -0.7995    2.1748 C   0  0  2  0  0  0  0  0  0  0  0  0
   -4.3736   -0.3113    3.5176 O   0  0  0  0  0  0  0  0  0  0  0  0
   -4.4280    0.3609    1.1703 C   0  0  2  0  0  0  0  0  0  0  0  0
   -3.3452    1.3317    1.4143 N   0  0  0  0  0  0  0  0  0  0  0  0
   -5.8003    1.0457    1.2069 C   0  0  1  0  0  0  0  0  0  0  0  0
   -5.8748    2.0040    0.1688 O   0  0  0  0  0  0  0  0  0  0  0  0
   -6.9179    0.0079    1.0227 C   0  0  2  0  0  0  0  0  0  0  0  0
   -8.1728    0.6315    1.2171 O   0  0  0  0  0  0  0  0  0  0  0  0
   -6.7628   -1.1706    2.0052 C   0  0  2  0  0  0  0  0  0  0  0  0
   -5.4416   -1.7086    1.9612 O   0  0  0  0  0  0  0  0  0  0  0  0
   -7.7808   -2.2583    1.6130 C   0  0  0  0  0  0  0  0  0  0  0  0
   -7.5466   -2.7704    0.2739 O   0  0  0  0  0  0  0  0  0  0  0  0
   -1.5748   -1.0391    6.7063 C   0  0  2  0  0  0  0  0  0  0  0  0
   -0.2196   -1.3148    7.2237 N   0  0  0  0  0  0  0  0  0  0  0  0
   -2.0247   -2.1618    5.7681 C   0  0  0  0  0  0  0  0  0  0  0  0
   -3.3608   -1.8174    5.1208 C   0  0  2  0  0  0  0  0  0  0  0  0
   -3.8311   -2.9406    4.3003 N   0  0  0  0  0  0  0  0  0  0  0  0
   -3.1825   -0.5262    4.2885 C   0  0  2  0  0  0  0  0  0  0  0  0
   -2.9003    0.6051    5.2245 C   0  0  2  0  0  0  0  0  0  0  0  0
   -2.7822    1.7826    4.4472 O   0  0  0  0  0  0  0  0  0  0  0  0
   -1.6226    0.3251    5.9928 C   0  0  1  0  0  0  0  0  0  0  0  0
   -1.3513    1.3262    6.9558 O   0  0  0  0  0  0  0  0  0  0  0  0
   -1.6326    2.5978    4.6491 C   0  0  1  0  0  0  0  0  0  0  0  0
   -0.7360    2.4549    3.4175 C   0  0  2  0  0  0  0  0  0  0  0  0
    0.6205    2.4960    3.8187 O   0  0  0  0  0  0  0  0  0  0  0  0
   -1.1443    3.6667    2.5690 C   0  0  2  0  0  0  0  0  0  0  0  0
   -0.1478    4.0351    1.6149 O   0  0  0  0  0  0  0  0  0  0  0  0
   -1.3870    4.6979    3.6779 C   0  0  2  0  0  0  0  0  0  0  0  0
   -2.0210    3.9641    4.7161 O   0  0  0  0  0  0  0  0  0  0  0  0
   -2.2924    5.8657    3.2691 C   0  0  0  0  0  0  0  0  0  0  0  0
   -3.6098    5.4339    3.0027 O   0  0  0  0  0  0  0  0  0  0  0  0
   -0.2803    3.4035    0.3431 C   0  0  2  0  0  0  0  0  0  0  0  0
    0.9092    2.4805    0.0376 C   0  0  2  0  0  0  0  0  0  0  0  0
    1.0952    1.4892    1.1104 N   0  0  0  0  0  0  0  0  0  0  0  0
    2.1909    3.2908   -0.2077 C   0  0  1  0  0  0  0  0  0  0  0  0
    3.2275    2.3981   -0.5675 O   0  0  0  0  0  0  0  0  0  0  0  0
    1.9263    4.2850   -1.3511 C   0  0  2  0  0  0  0  0  0  0  0  0
    3.0666    5.0894   -1.5899 O   0  0  0  0  0  0  0  0  0  0  0  0
    0.6991    5.1674   -1.0434 C   0  0  1  0  0  0  0  0  0  0  0  0
   -0.4374    4.3772   -0.6866 O   0  0  0  0  0  0  0  0  0  0  0  0
    0.9828    6.2649   -0.0071 C   0  0  0  0  0  0  0  0  0  0  0  0
   -0.2633    6.7811    0.5820 N   0  0  0  0  0  0  0  0  0  0  0  0
  1  3  1  0  0  0  0
  1  2  1  1  0  0  0
  3  4  1  1  0  0  0
  5  6  1  6  0  0  0
  5  3  1  0  0  0  0
  7  9  1  0  0  0  0
  7  5  1  0  0  0  0
  7  8  1  1  0  0  0
  9 10  1  0  0  0  0
  9 11  1  6  0  0  0
 10  1  1  0  0  0  0
 11 12  1  0  0  0  0
 13 14  1  6  0  0  0
 13 21  1  0  0  0  0
 15 13  1  0  0  0  0
 16 15  1  0  0  0  0
 16 18  1  0  0  0  0
 16 17  1  6  0  0  0
 18  2  1  1  0  0  0
 18 19  1  0  0  0  0
 19 21  1  0  0  0  0
 19 20  1  6  0  0  0
 21 22  1  1  0  0  0
 23 20  1  6  0  0  0
 23 29  1  0  0  0  0
 23 24  1  0  0  0  0
 24 26  1  0  0  0  0
 24 25  1  1  0  0  0
 26 27  1  6  0  0  0
 28 26  1  0  0  0  0
 28 30  1  6  0  0  0
 29 28  1  0  0  0  0
 30 31  1  0  0  0  0
 32 27  1  1  0  0  0
 32 40  1  0  0  0  0
 32 33  1  0  0  0  0
 33 35  1  0  0  0  0
 33 34  1  1  0  0  0
 35 37  1  0  0  0  0
 35 36  1  6  0  0  0
 37 38  1  1  0  0  0
 39 37  1  0  0  0  0
 39 41  1  1  0  0  0
 40 39  1  0  0  0  0
 42 41  1  0  0  0  0
M  END
>  <CHROM.1>
-95.30549532,-113.94390417,63.96088507,-67.11407692,174.25987318,65.02515685
61.58892987,-57.26429968,-45.16786915,-129.26740329,108.75003276,65.22393632
57.00688312,90.44860810,-115.50113996,65.84401067,-59.79723094,177.92734051
59.83737362,-47.53457698,-161.25540567,60.06014648,-2.20405386,1.69372512
2.39504186,2.50562277,0.49443098,2.12729489

>  <Name>
lig.pdb

>  <RI>
0

>  <Rbt.Current_Directory>
/home/itssahil/PROJECTS/Mol_Feturizer/New_Systems/rnas/2mxs

>  <Rbt.Executable>
rbdock ($Id: //depot/dev/client3/rdock/2013.1/src/exe/rbdock.cxx#4 $)

>  <Rbt.Library>
libRbt.so (2013.1, Build901 2013/11/27)

>  <Rbt.Parameter_File>
/export/apps/rDock/src/rDock_2013.1_src/data/scripts/dock_solv.prm

>  <Rbt.Receptor>
prm/pocket_docking_7.prm

>  <SCORE>
-25.6773

>  <SCORE.INTER>
-27.5995

>  <SCORE.INTER.CONST>
1

>  <SCORE.INTER.POLAR>
-3.08584

>  <SCORE.INTER.ROT>
9

>  <SCORE.INTER.SOLV>
21.2917

>  <SCORE.INTER.VDW>
-24.8108

>  <SCORE.INTER.norm>
-0.657131

>  <SCORE.INTRA>
1.92223

>  <SCORE.INTRA.DIHEDRAL>
9.35171

>  <SCORE.INTRA.DIHEDRAL.0>
30.1357

>  <SCORE.INTRA.POLAR>
-2.15995

>  <SCORE.INTRA.POLAR.0>
-0.631696

>  <SCORE.INTRA.REPUL>
0

>  <SCORE.INTRA.REPUL.0>
0

>  <SCORE.INTRA.SOLV>
1.18265

>  <SCORE.INTRA.SOLV.lig_0>
-55.904

>  <SCORE.INTRA.VDW>
3.99888

>  <SCORE.INTRA.VDW.0>
-8.21197

>  <SCORE.INTRA.norm>
0.0457674

>  <SCORE.RESTR>
0

>  <SCORE.RESTR.CAVITY>
0

>  <SCORE.RESTR.norm>
0

>  <SCORE.SYSTEM>
0

>  <SCORE.SYSTEM.CONST>
0

>  <SCORE.SYSTEM.DIHEDRAL>
0

>  <SCORE.SYSTEM.SOLV>
0

>  <SCORE.SYSTEM.norm>
0

>  <SCORE.heavy>
42

>  <SCORE.norm>
-0.611363

>  <RMSD>
7.835

$$$$
lig.pdb
 OpenBabel11021811453D
libRbt.so/2013.1/901 2013/11/27
 42 45  0  0  0  0  0  0  0  0999 V2000
   -2.7437   -0.8593    3.3849 C   0  0  2  0  0  0  0  0  0  0  0  0
   -3.0523   -2.2106    3.0381 O   0  0  0  0  0  0  0  0  0  0  0  0
   -1.8349   -0.8059    4.6222 C   0  0  2  0  0  0  0  0  0  0  0  0
   -0.6205   -1.6180    4.4222 N   0  0  0  0  0  0  0  0  0  0  0  0
   -2.5926   -1.2486    5.8805 C   0  0  1  0  0  0  0  0  0  0  0  0
   -1.7762   -1.0420    7.0174 O   0  0  0  0  0  0  0  0  0  0  0  0
   -3.8903   -0.4406    6.0322 C   0  0  2  0  0  0  0  0  0  0  0  0
   -4.6486   -0.9690    7.1033 O   0  0  0  0  0  0  0  0  0  0  0  0
   -4.7272   -0.4666    4.7372 C   0  0  2  0  0  0  0  0  0  0  0  0
   -3.9360   -0.1097    3.6042 O   0  0  0  0  0  0  0  0  0  0  0  0
   -5.8880    0.5335    4.8971 C   0  0  0  0  0  0  0  0  0  0  0  0
   -6.7243    0.5963    3.7109 O   0  0  0  0  0  0  0  0  0  0  0  0
   -4.9503   -3.5771   -0.5759 C   0  0  2  0  0  0  0  0  0  0  0  0
   -6.0800   -3.6265   -1.5255 N   0  0  0  0  0  0  0  0  0  0  0  0
   -5.3875   -4.0910    0.7981 C   0  0  0  0  0  0  0  0  0  0  0  0
   -4.2698   -3.9121    1.8187 C   0  0  2  0  0  0  0  0  0  0  0  0
   -4.6618   -4.4964    3.1075 N   0  0  0  0  0  0  0  0  0  0  0  0
   -3.9540   -2.4030    1.9385 C   0  0  2  0  0  0  0  0  0  0  0  0
   -3.3751   -1.9361    0.6414 C   0  0  2  0  0  0  0  0  0  0  0  0
   -3.0550   -0.5646    0.7861 O   0  0  0  0  0  0  0  0  0  0  0  0
   -4.3822   -2.1492   -0.4729 C   0  0  1  0  0  0  0  0  0  0  0  0
   -3.8549   -1.8016   -1.7395 O   0  0  0  0  0  0  0  0  0  0  0  0
   -1.9565   -0.0573    0.0359 C   0  0  1  0  0  0  0  0  0  0  0  0
   -2.1369    1.4568   -0.0918 C   0  0  2  0  0  0  0  0  0  0  0  0
   -1.6744    1.8778   -1.3614 O   0  0  0  0  0  0  0  0  0  0  0  0
   -1.2787    1.9906    1.0630 C   0  0  2  0  0  0  0  0  0  0  0  0
   -0.8913    3.3527    0.8807 O   0  0  0  0  0  0  0  0  0  0  0  0
   -0.1242    0.9818    1.0245 C   0  0  2  0  0  0  0  0  0  0  0  0
   -0.7484   -0.2660    0.7564 O   0  0  0  0  0  0  0  0  0  0  0  0
    0.6649    0.8725    2.3345 C   0  0  0  0  0  0  0  0  0  0  0  0
    1.7739    0.0088    2.2031 O   0  0  0  0  0  0  0  0  0  0  0  0
   -1.9778    4.2706    0.7746 C   0  0  2  0  0  0  0  0  0  0  0  0
   -1.5300    5.6201    0.1930 C   0  0  2  0  0  0  0  0  0  0  0  0
   -0.8559    5.4369   -1.1032 N   0  0  0  0  0  0  0  0  0  0  0  0
   -0.6413    6.3843    1.1860 C   0  0  1  0  0  0  0  0  0  0  0  0
   -0.3322    7.6495    0.6342 O   0  0  0  0  0  0  0  0  0  0  0  0
   -1.4184    6.5550    2.5023 C   0  0  2  0  0  0  0  0  0  0  0  0
   -0.6256    7.2179    3.4701 O   0  0  0  0  0  0  0  0  0  0  0  0
   -1.8990    5.1919    3.0413 C   0  0  1  0  0  0  0  0  0  0  0  0
   -2.6054    4.4536    2.0418 O   0  0  0  0  0  0  0  0  0  0  0  0
   -0.7776    4.3613    3.6828 C   0  0  0  0  0  0  0  0  0  0  0  0
   -0.1455    5.0845    4.7980 N   0  0  0  0  0  0  0  0  0  0  0  0
  1  3  1  0  0  0  0
  1  2  1  1  0  0  0
  3  4  1  6  0  0  0
  5  6  1  1  0  0  0
  5  3  1  0  0  0  0
  7  9  1  0  0  0  0
  7  5  1  0  0  0  0
  7  8  1  1  0  0  0
  9 10  1  0  0  0  0
  9 11  1  1  0  0  0
 10  1  1  0  0  0  0
 11 12  1  0  0  0  0
 13 14  1  6  0  0  0
 13 21  1  0  0  0  0
 15 13  1  0  0  0  0
 16 15  1  0  0  0  0
 16 18  1  0  0  0  0
 16 17  1  1  0  0  0
 18  2  1  1  0  0  0
 18 19  1  0  0  0  0
 19 21  1  0  0  0  0
 19 20  1  1  0  0  0
 21 22  1  6  0  0  0
 23 20  1  1  0  0  0
 23 29  1  0  0  0  0
 23 24  1  0  0  0  0
 24 26  1  0  0  0  0
 24 25  1  6  0  0  0
 26 27  1  6  0  0  0
 28 26  1  0  0  0  0
 28 30  1  1  0  0  0
 29 28  1  0  0  0  0
 30 31  1  0  0  0  0
 32 27  1  1  0  0  0
 32 40  1  0  0  0  0
 32 33  1  0  0  0  0
 33 35  1  0  0  0  0
 33 34  1  6  0  0  0
 35 37  1  0  0  0  0
 35 36  1  6  0  0  0
 37 38  1  1  0  0  0
 39 37  1  0  0  0  0
 39 41  1  6  0  0  0
 40 39  1  0  0  0  0
 42 41  1  0  0  0  0
M  END
>  <CHROM.1>
-174.24906847,176.82064129,-179.06595639,-172.86386631,175.92783712,-55.76088857
179.02415932,82.82581103,-142.75064547,149.46605959,157.96881508,170.02803922
-57.30833949,59.94745273,-163.84431613,-175.39391331,-60.94206961,-60.66780662
48.59985281,41.00160524,58.42841005,91.31764973,-2.49594069,0.85746868,2.18336650
-3.10614680,-1.16258641,-1.59896153

>  <Name>
lig.pdb

>  <RI>
0

>  <Rbt.Current_Directory>
/home/itssahil/PROJECTS/Mol_Feturizer/New_Systems/rnas/2mxs

>  <Rbt.Executable>
rbdock ($Id: //depot/dev/client3/rdock/2013.1/src/exe/rbdock.cxx#4 $)

>  <Rbt.Library>
libRbt.so (2013.1, Build901 2013/11/27)

>  <Rbt.Parameter_File>
/export/apps/rDock/src/rDock_2013.1_src/data/scripts/dock_solv.prm

>  <Rbt.Receptor>
prm/pocket_docking_6.prm

>  <SCORE>
-47.9021

>  <SCORE.INTER>
-43.9793

>  <SCORE.INTER.CONST>
1

>  <SCORE.INTER.POLAR>
-6.67899

>  <SCORE.INTER.ROT>
9

>  <SCORE.INTER.SOLV>
17.5588

>  <SCORE.INTER.VDW>
-22.5091

>  <SCORE.INTER.norm>
-1.04713

>  <SCORE.INTRA>
-3.99059

>  <SCORE.INTRA.DIHEDRAL>
-13.2838

>  <SCORE.INTRA.DIHEDRAL.0>
30.1357

>  <SCORE.INTRA.POLAR>
-0.365145

>  <SCORE.INTRA.POLAR.0>
-0.631696

>  <SCORE.INTRA.REPUL>
0

>  <SCORE.INTRA.REPUL.0>
0

>  <SCORE.INTRA.SOLV>
-0.633472

>  <SCORE.INTRA.SOLV.lig_0>
-55.904

>  <SCORE.INTRA.VDW>
4.20954

>  <SCORE.INTRA.VDW.0>
-8.21197

>  <SCORE.INTRA.norm>
-0.095014

>  <SCORE.RESTR>
0.0677571

>  <SCORE.RESTR.CAVITY>
0.0677571

>  <SCORE.RESTR.norm>
0.00161326

>  <SCORE.SYSTEM>
0

>  <SCORE.SYSTEM.CONST>
0

>  <SCORE.SYSTEM.DIHEDRAL>
0

>  <SCORE.SYSTEM.SOLV>
0

>  <SCORE.SYSTEM.norm>
0

>  <SCORE.heavy>
42

>  <SCORE.norm>
-1.14053

>  <RMSD>
7.843

$$$$
lig.pdb
 OpenBabel11021811453D
libRbt.so/2013.1/901 2013/11/27
 42 45  0  0  0  0  0  0  0  0999 V2000
   -0.4491    4.7610    1.1692 C   0  0  2  0  0  0  0  0  0  0  0  0
   -0.6783    5.4891   -0.0386 O   0  0  0  0  0  0  0  0  0  0  0  0
   -1.5593    3.7253    1.4027 C   0  0  2  0  0  0  0  0  0  0  0  0
   -1.7049    2.8339    0.2372 N   0  0  0  0  0  0  0  0  0  0  0  0
   -2.8890    4.4114    1.7410 C   0  0  1  0  0  0  0  0  0  0  0  0
   -3.8454    3.4319    2.0982 O   0  0  0  0  0  0  0  0  0  0  0  0
   -2.7008    5.3892    2.9108 C   0  0  2  0  0  0  0  0  0  0  0  0
   -3.8939    6.1247    3.1032 O   0  0  0  0  0  0  0  0  0  0  0  0
   -1.5267    6.3562    2.6562 C   0  0  2  0  0  0  0  0  0  0  0  0
   -0.3463    5.6471    2.2809 O   0  0  0  0  0  0  0  0  0  0  0  0
   -1.2684    7.1475    3.9525 C   0  0  0  0  0  0  0  0  0  0  0  0
   -0.1183    6.6427    4.6824 O   0  0  0  0  0  0  0  0  0  0  0  0
    1.6369    8.4885   -2.0817 C   0  0  2  0  0  0  0  0  0  0  0  0
    2.8366    9.3342   -2.2430 N   0  0  0  0  0  0  0  0  0  0  0  0
    0.9555    8.7818   -0.7428 C   0  0  0  0  0  0  0  0  0  0  0  0
   -0.2000    7.8167   -0.5057 C   0  0  2  0  0  0  0  0  0  0  0  0
   -0.9078    8.1675    0.7319 N   0  0  0  0  0  0  0  0  0  0  0  0
    0.3656    6.3780   -0.4622 C   0  0  2  0  0  0  0  0  0  0  0  0
    0.8882    6.0335   -1.8201 C   0  0  2  0  0  0  0  0  0  0  0  0
    1.3623    4.7004   -1.7692 O   0  0  0  0  0  0  0  0  0  0  0  0
    1.9981    6.9958   -2.1989 C   0  0  1  0  0  0  0  0  0  0  0  0
    2.4737    6.7681   -3.5123 O   0  0  0  0  0  0  0  0  0  0  0  0
    2.2791    4.3618   -0.7340 C   0  0  1  0  0  0  0  0  0  0  0  0
    1.7207    3.1440    0.0052 C   0  0  2  0  0  0  0  0  0  0  0  0
    2.0309    3.2493    1.3820 O   0  0  0  0  0  0  0  0  0  0  0  0
    2.4453    1.9790   -0.6823 C   0  0  2  0  0  0  0  0  0  0  0  0
    2.4730    0.7959    0.1167 O   0  0  0  0  0  0  0  0  0  0  0  0
    3.8151    2.6244   -0.9255 C   0  0  2  0  0  0  0  0  0  0  0  0
    3.5183    3.9609   -1.3050 O   0  0  0  0  0  0  0  0  0  0  0  0
    4.6383    1.9625   -2.0367 C   0  0  0  0  0  0  0  0  0  0  0  0
    4.9936    0.6378   -1.7018 O   0  0  0  0  0  0  0  0  0  0  0  0
    2.0629   -0.3895   -0.5620 C   0  0  2  0  0  0  0  0  0  0  0  0
    0.6230   -0.2779   -1.0859 C   0  0  2  0  0  0  0  0  0  0  0  0
    0.4647    0.9102   -1.9411 N   0  0  0  0  0  0  0  0  0  0  0  0
   -0.3889   -0.2777    0.0698 C   0  0  1  0  0  0  0  0  0  0  0  0
   -1.6948   -0.2606   -0.4735 O   0  0  0  0  0  0  0  0  0  0  0  0
   -0.1772   -1.5540    0.9018 C   0  0  2  0  0  0  0  0  0  0  0  0
   -1.0592   -1.5828    2.0089 O   0  0  0  0  0  0  0  0  0  0  0  0
    1.2864   -1.6685    1.3756 C   0  0  1  0  0  0  0  0  0  0  0  0
    2.2015   -1.5269    0.2866 O   0  0  0  0  0  0  0  0  0  0  0  0
    1.6260   -0.7227    2.5370 C   0  0  0  0  0  0  0  0  0  0  0  0
    3.0165   -0.2476    2.4525 N   0  0  0  0  0  0  0  0  0  0  0  0
  1  3  1  0  0  0  0
  1  2  1  6  0  0  0
  3  4  1  6  0  0  0
  5  6  1  1  0  0  0
  5  3  1  0  0  0  0
  7  9  1  0  0  0  0
  7  5  1  0  0  0  0
  7  8  1  6  0  0  0
  9 10  1  0  0  0  0
  9 11  1  1  0  0  0
 10  1  1  0  0  0  0
 11 12  1  0  0  0  0
 13 14  1  1  0  0  0
 13 21  1  0  0  0  0
 15 13  1  0  0  0  0
 16 15  1  0  0  0  0
 16 18  1  0  0  0  0
 16 17  1  1  0  0  0
 18  2  1  6  0  0  0
 18 19  1  0  0  0  0
 19 21  1  0  0  0  0
 19 20  1  1  0  0  0
 21 22  1  6  0  0  0
 23 20  1  6  0  0  0
 23 29  1  0  0  0  0
 23 24  1  0  0  0  0
 24 26  1  0  0  0  0
 24 25  1  1  0  0  0
 26 27  1  1  0  0  0
 28 26  1  0  0  0  0
 28 30  1  6  0  0  0
 29 28  1  0  0  0  0
 30 31  1  0  0  0  0
 32 27  1  1  0  0  0
 32 40  1  0  0  0  0
 32 33  1  0  0  0  0
 33 35  1  0  0  0  0
 33 34  1  1  0  0  0
 35 37  1  0  0  0  0
 35 36  1  6  0  0  0
 37 38  1  1  0  0  0
 39 37  1  0  0  0  0
 39 41  1  1  0  0  0
 40 39  1  0  0  0  0
 42 41  1  0  0  0  0
M  END
>  <CHROM.1>
-119.22871454,-172.75523132,64.67991906,-173.96480380,68.32015443,-179.02817826
102.10737623,-178.85532370,-54.85539649,-51.88552932,126.58435769,-145.41271122
58.28389426,130.74015703,-59.84213359,-64.85445913,71.20571386,-80.75720122
54.87834101,59.29995646,-146.18253114,-76.66273212,0.61491412,3.57404689
0.28391080,1.83447592,0.68770080,-0.15659550

>  <Name>
lig.pdb

>  <RI>
0

>  <Rbt.Current_Directory>
/home/itssahil/PROJECTS/Mol_Feturizer/New_Systems/rnas/2mxs

>  <Rbt.Executable>
rbdock ($Id: //depot/dev/client3/rdock/2013.1/src/exe/rbdock.cxx#4 $)

>  <Rbt.Library>
libRbt.so (2013.1, Build901 2013/11/27)

>  <Rbt.Parameter_File>
/export/apps/rDock/src/rDock_2013.1_src/data/scripts/dock_solv.prm

>  <Rbt.Receptor>
prm/blind_docking_60.prm

>  <SCORE>
40.3611

>  <SCORE.INTER>
2.3056

>  <SCORE.INTER.CONST>
1

>  <SCORE.INTER.POLAR>
-5.33179

>  <SCORE.INTER.ROT>
9

>  <SCORE.INTER.SOLV>
31.1795

>  <SCORE.INTER.VDW>
-0.683461

>  <SCORE.INTER.norm>
0.0548952

>  <SCORE.INTRA>
17.5961

>  <SCORE.INTRA.DIHEDRAL>
6.27926

>  <SCORE.INTRA.DIHEDRAL.0>
30.1357

>  <SCORE.INTRA.POLAR>
-0.163239

>  <SCORE.INTRA.POLAR.0>
-0.631696

>  <SCORE.INTRA.REPUL>
0.279213

>  <SCORE.INTRA.REPUL.0>
0

>  <SCORE.INTRA.SOLV>
2.53912

>  <SCORE.INTRA.SOLV.lig_0>
-55.904

>  <SCORE.INTRA.VDW>
12.3459

>  <SCORE.INTRA.VDW.0>
-8.21197

>  <SCORE.INTRA.norm>
0.418955

>  <SCORE.RESTR>
20.4594

>  <SCORE.RESTR.CAVITY>
20.4594

>  <SCORE.RESTR.norm>
0.487129

>  <SCORE.SYSTEM>
0

>  <SCORE.SYSTEM.CONST>
0

>  <SCORE.SYSTEM.DIHEDRAL>
0

>  <SCORE.SYSTEM.SOLV>
0

>  <SCORE.SYSTEM.norm>
0

>  <SCORE.heavy>
42

>  <SCORE.norm>
0.96098

>  <RMSD>
7.863

$$$$
lig.pdb
 OpenBabel11021811453D
libRbt.so/2013.1/901 2013/11/27
 42 45  0  0  0  0  0  0  0  0999 V2000
   -4.1033    2.0750    2.6862 C   0  0  2  0  0  0  0  0  0  0  0  0
   -5.1009    2.6363    3.5413 O   0  0  0  0  0  0  0  0  0  0  0  0
   -4.5498    2.1266    1.2173 C   0  0  2  0  0  0  0  0  0  0  0  0
   -4.9097    3.5007    0.8216 N   0  0  0  0  0  0  0  0  0  0  0  0
   -5.7112    1.1575    0.9612 C   0  0  1  0  0  0  0  0  0  0  0  0
   -5.9934    1.1185   -0.4246 O   0  0  0  0  0  0  0  0  0  0  0  0
   -5.3438   -0.2532    1.4457 C   0  0  2  0  0  0  0  0  0  0  0  0
   -6.4784   -1.0925    1.3473 O   0  0  0  0  0  0  0  0  0  0  0  0
   -4.8317   -0.2360    2.9003 C   0  0  2  0  0  0  0  0  0  0  0  0
   -3.8017    0.7367    3.0733 O   0  0  0  0  0  0  0  0  0  0  0  0
   -4.2847   -1.6375    3.2320 C   0  0  0  0  0  0  0  0  0  0  0  0
   -3.0524   -1.9274    2.5194 O   0  0  0  0  0  0  0  0  0  0  0  0
   -4.6488    3.1940    7.7858 C   0  0  2  0  0  0  0  0  0  0  0  0
   -4.5519    2.6919    9.1710 N   0  0  0  0  0  0  0  0  0  0  0  0
   -5.9955    2.8037    7.1715 C   0  0  0  0  0  0  0  0  0  0  0  0
   -6.0474    3.1945    5.6993 C   0  0  2  0  0  0  0  0  0  0  0  0
   -7.3761    2.9061    5.1448 N   0  0  0  0  0  0  0  0  0  0  0  0
   -4.9291    2.4321    4.9513 C   0  0  2  0  0  0  0  0  0  0  0  0
   -3.6072    2.9313    5.4401 C   0  0  2  0  0  0  0  0  0  0  0  0
   -2.5995    2.2516    4.7142 O   0  0  0  0  0  0  0  0  0  0  0  0
   -3.4815    2.6688    6.9290 C   0  0  1  0  0  0  0  0  0  0  0  0
   -2.2820    3.1975    7.4625 O   0  0  0  0  0  0  0  0  0  0  0  0
   -1.2550    2.6909    4.8761 C   0  0  1  0  0  0  0  0  0  0  0  0
   -0.5055    2.3912    3.5761 C   0  0  2  0  0  0  0  0  0  0  0  0
    0.8254    2.0171    3.8788 O   0  0  0  0  0  0  0  0  0  0  0  0
   -0.5940    3.7281    2.8277 C   0  0  2  0  0  0  0  0  0  0  0  0
    0.4129    3.8686    1.8251 O   0  0  0  0  0  0  0  0  0  0  0  0
   -0.4697    4.7013    4.0065 C   0  0  2  0  0  0  0  0  0  0  0  0
   -1.2304    4.1025    5.0463 O   0  0  0  0  0  0  0  0  0  0  0  0
   -1.0223    6.1044    3.7299 C   0  0  0  0  0  0  0  0  0  0  0  0
   -0.5811    7.0365    4.6940 O   0  0  0  0  0  0  0  0  0  0  0  0
    0.1414    3.1752    0.6088 C   0  0  2  0  0  0  0  0  0  0  0  0
    1.3686    2.3979    0.1089 C   0  0  2  0  0  0  0  0  0  0  0  0
    1.8697    1.4814    1.1468 N   0  0  0  0  0  0  0  0  0  0  0  0
    2.4694    3.3526   -0.3773 C   0  0  1  0  0  0  0  0  0  0  0  0
    3.5338    2.5839   -0.9034 O   0  0  0  0  0  0  0  0  0  0  0  0
    1.8788    4.2593   -1.4704 C   0  0  2  0  0  0  0  0  0  0  0  0
    2.8435    5.1907   -1.9245 O   0  0  0  0  0  0  0  0  0  0  0  0
    0.6205    4.9918   -0.9608 C   0  0  1  0  0  0  0  0  0  0  0  0
   -0.3215    4.0796   -0.3916 O   0  0  0  0  0  0  0  0  0  0  0  0
    0.9368    6.1566   -0.0112 C   0  0  0  0  0  0  0  0  0  0  0  0
   -0.2915    6.7289    0.5632 N   0  0  0  0  0  0  0  0  0  0  0  0
  1  3  1  0  0  0  0
  1  2  1  1  0  0  0
  3  4  1  1  0  0  0
  5  6  1  6  0  0  0
  5  3  1  0  0  0  0
  7  9  1  0  0  0  0
  7  5  1  0  0  0  0
  7  8  1  1  0  0  0
  9 10  1  0  0  0  0
  9 11  1  6  0  0  0
 10  1  1  0  0  0  0
 11 12  1  0  0  0  0
 13 14  1  1  0  0  0
 13 21  1  0  0  0  0
 15 13  1  0  0  0  0
 16 15  1  0  0  0  0
 16 18  1  0  0  0  0
 16 17  1  6  0  0  0
 18  2  1  6  0  0  0
 18 19  1  0  0  0  0
 19 21  1  0  0  0  0
 19 20  1  6  0  0  0
 21 22  1  1  0  0  0
 23 20  1  6  0  0  0
 23 29  1  0  0  0  0
 23 24  1  0  0  0  0
 24 26  1  0  0  0  0
 24 25  1  1  0  0  0
 26 27  1  6  0  0  0
 28 26  1  0  0  0  0
 28 30  1  6  0  0  0
 29 28  1  0  0  0  0
 30 31  1  0  0  0  0
 32 27  1  1  0  0  0
 32 40  1  0  0  0  0
 32 33  1  0  0  0  0
 33 35  1  0  0  0  0
 33 34  1  1  0  0  0
 35 37  1  0  0  0  0
 35 36  1  6  0  0  0
 37 38  1  1  0  0  0
 39 37  1  0  0  0  0
 39 41  1  1  0  0  0
 40 39  1  0  0  0  0
 42 41  1  0  0  0  0
M  END
>  <CHROM.1>
176.06365090,168.84817541,-25.21338097,165.56552042,178.15417319,66.68665513
70.04878367,178.54456635,-57.24216294,171.61920197,-150.86179861,154.36696604
62.43321160,79.12183393,-134.08345142,-164.79711748,67.36074533,81.02392428
58.77038145,178.05153970,-173.76013687,-61.60060958,-2.20006254,2.79627624
2.81364442,2.71592666,0.57785028,1.13467276

>  <Name>
lig.pdb

>  <RI>
0

>  <Rbt.Current_Directory>
/home/itssahil/PROJECTS/Mol_Feturizer/New_Systems/rnas/2mxs

>  <Rbt.Executable>
rbdock ($Id: //depot/dev/client3/rdock/2013.1/src/exe/rbdock.cxx#4 $)

>  <Rbt.Library>
libRbt.so (2013.1, Build901 2013/11/27)

>  <Rbt.Parameter_File>
/export/apps/rDock/src/rDock_2013.1_src/data/scripts/dock_solv.prm

>  <Rbt.Receptor>
prm/pocket_docking_6.prm

>  <SCORE>
-30.4508

>  <SCORE.INTER>
-30.2315

>  <SCORE.INTER.CONST>
1

>  <SCORE.INTER.POLAR>
-4.27718

>  <SCORE.INTER.ROT>
9

>  <SCORE.INTER.SOLV>
19.0888

>  <SCORE.INTER.VDW>
-21.86

>  <SCORE.INTER.norm>
-0.719798

>  <SCORE.INTRA>
-0.219323

>  <SCORE.INTRA.DIHEDRAL>
-8.43262

>  <SCORE.INTRA.DIHEDRAL.0>
30.1357

>  <SCORE.INTRA.POLAR>
-0.449047

>  <SCORE.INTRA.POLAR.0>
-0.631696

>  <SCORE.INTRA.REPUL>
0.0449995

>  <SCORE.INTRA.REPUL.0>
0

>  <SCORE.INTRA.SOLV>
-0.296952

>  <SCORE.INTRA.SOLV.lig_0>
-55.904

>  <SCORE.INTRA.VDW>
5.44722

>  <SCORE.INTRA.VDW.0>
-8.21197

>  <SCORE.INTRA.norm>
-0.00522197

>  <SCORE.RESTR>
0

>  <SCORE.RESTR.CAVITY>
0

>  <SCORE.RESTR.norm>
0

>  <SCORE.SYSTEM>
0

>  <SCORE.SYSTEM.CONST>
0

>  <SCORE.SYSTEM.DIHEDRAL>
0

>  <SCORE.SYSTEM.SOLV>
0

>  <SCORE.SYSTEM.norm>
0

>  <SCORE.heavy>
42

>  <SCORE.norm>
-0.72502

>  <RMSD>
7.868

$$$$
lig.pdb
 OpenBabel11021811453D
libRbt.so/2013.1/901 2013/11/27
 42 45  0  0  0  0  0  0  0  0999 V2000
   -2.0620    4.7531    1.9598 C   0  0  2  0  0  0  0  0  0  0  0  0
   -2.0671    6.0659    1.3959 O   0  0  0  0  0  0  0  0  0  0  0  0
   -3.4674    4.3571    2.4370 C   0  0  2  0  0  0  0  0  0  0  0  0
   -4.4526    4.4887    1.3478 N   0  0  0  0  0  0  0  0  0  0  0  0
   -3.8856    5.1826    3.6607 C   0  0  1  0  0  0  0  0  0  0  0  0
   -5.1124    4.6888    4.1633 O   0  0  0  0  0  0  0  0  0  0  0  0
   -2.8128    5.0908    4.7564 C   0  0  2  0  0  0  0  0  0  0  0  0
   -3.1391    5.9801    5.8072 O   0  0  0  0  0  0  0  0  0  0  0  0
   -1.4117    5.4251    4.2055 C   0  0  2  0  0  0  0  0  0  0  0  0
   -1.1249    4.6674    3.0305 O   0  0  0  0  0  0  0  0  0  0  0  0
   -0.3769    5.1003    5.2995 C   0  0  0  0  0  0  0  0  0  0  0  0
    0.1343    3.7454    5.1851 O   0  0  0  0  0  0  0  0  0  0  0  0
    0.7359    7.9631   -1.2639 C   0  0  2  0  0  0  0  0  0  0  0  0
    2.1045    8.2541   -1.7357 N   0  0  0  0  0  0  0  0  0  0  0  0
    0.5585    8.4395    0.1800 C   0  0  0  0  0  0  0  0  0  0  0  0
   -0.8024    8.0177    0.7211 C   0  0  2  0  0  0  0  0  0  0  0  0
   -1.0028    8.5625    2.0698 N   0  0  0  0  0  0  0  0  0  0  0  0
   -0.8786    6.4732    0.7026 C   0  0  2  0  0  0  0  0  0  0  0  0
   -0.8668    6.0157   -0.7208 C   0  0  2  0  0  0  0  0  0  0  0  0
   -0.9792    4.6044   -0.7162 O   0  0  0  0  0  0  0  0  0  0  0  0
    0.4203    6.4608   -1.3892 C   0  0  1  0  0  0  0  0  0  0  0  0
    0.4482    6.1266   -2.7642 O   0  0  0  0  0  0  0  0  0  0  0  0
   -0.5258    3.8994   -1.8670 C   0  0  1  0  0  0  0  0  0  0  0  0
    0.9555    3.5747   -1.6629 C   0  0  2  0  0  0  0  0  0  0  0  0
    1.6289    3.6604   -2.9047 O   0  0  0  0  0  0  0  0  0  0  0  0
    0.9072    2.1449   -1.1078 C   0  0  2  0  0  0  0  0  0  0  0  0
    2.1379    1.4420   -1.2813 O   0  0  0  0  0  0  0  0  0  0  0  0
   -0.2726    1.5868   -1.9132 C   0  0  2  0  0  0  0  0  0  0  0  0
   -1.2075    2.6553   -1.9650 O   0  0  0  0  0  0  0  0  0  0  0  0
   -0.9483    0.3641   -1.2816 C   0  0  0  0  0  0  0  0  0  0  0  0
   -1.9884   -0.1339   -2.0960 O   0  0  0  0  0  0  0  0  0  0  0  0
    3.1896    1.8622   -0.4145 C   0  0  2  0  0  0  0  0  0  0  0  0
    4.3954    0.9123   -0.4782 C   0  0  2  0  0  0  0  0  0  0  0  0
    4.8722    0.7592   -1.8628 N   0  0  0  0  0  0  0  0  0  0  0  0
    4.0643   -0.4470    0.1561 C   0  0  1  0  0  0  0  0  0  0  0  0
    5.2316   -1.2458    0.1468 O   0  0  0  0  0  0  0  0  0  0  0  0
    3.5964   -0.2081    1.6017 C   0  0  2  0  0  0  0  0  0  0  0  0
    3.2364   -1.4295    2.2204 O   0  0  0  0  0  0  0  0  0  0  0  0
    2.4172    0.7855    1.6439 C   0  0  1  0  0  0  0  0  0  0  0  0
    2.7170    1.9842    0.9252 O   0  0  0  0  0  0  0  0  0  0  0  0
    1.0840    0.1673    1.1978 C   0  0  0  0  0  0  0  0  0  0  0  0
    0.7566   -1.0297    1.9891 N   0  0  0  0  0  0  0  0  0  0  0  0
  1  3  1  0  0  0  0
  1  2  1  1  0  0  0
  3  4  1  6  0  0  0
  5  6  1  1  0  0  0
  5  3  1  0  0  0  0
  7  9  1  0  0  0  0
  7  5  1  0  0  0  0
  7  8  1  1  0  0  0
  9 10  1  0  0  0  0
  9 11  1  1  0  0  0
 10  1  1  0  0  0  0
 11 12  1  0  0  0  0
 13 14  1  1  0  0  0
 13 21  1  0  0  0  0
 15 13  1  0  0  0  0
 16 15  1  0  0  0  0
 16 18  1  0  0  0  0
 16 17  1  1  0  0  0
 18  2  1  6  0  0  0
 18 19  1  0  0  0  0
 19 21  1  0  0  0  0
 19 20  1  1  0  0  0
 21 22  1  6  0  0  0
 23 20  1  1  0  0  0
 23 29  1  0  0  0  0
 23 24  1  0  0  0  0
 24 26  1  0  0  0  0
 24 25  1  6  0  0  0
 26 27  1  6  0  0  0
 28 26  1  0  0  0  0
 28 30  1  1  0  0  0
 29 28  1  0  0  0  0
 30 31  1  0  0  0  0
 32 27  1  6  0  0  0
 32 40  1  0  0  0  0
 32 33  1  0  0  0  0
 33 35  1  0  0  0  0
 33 34  1  6  0  0  0
 35 37  1  0  0  0  0
 35 36  1  1  0  0  0
 37 38  1  6  0  0  0
 39 37  1  0  0  0  0
 39 41  1  6  0  0  0
 40 39  1  0  0  0  0
 42 41  1  0  0  0  0
M  END
>  <CHROM.1>
-155.32670240,-169.53946313,78.74078317,-141.00921848,-52.35108105,-46.24182965
91.84679202,-48.89066125,-169.25636403,-158.15613796,89.50773205,-112.98507401
-151.67628788,73.40224692,169.96499744,-177.57639537,-158.92509832,-101.05636731
-2.46594761,31.09498416,55.56107640,-3.96559760,0.14480839,3.58092361,0.70394903
2.81243352,0.85688391,-0.68342578

>  <Name>
lig.pdb

>  <RI>
3.17932e+07

>  <Rbt.Current_Directory>
/home/itssahil/PROJECTS/Mol_Feturizer/New_Systems/rnas/2mxs

>  <Rbt.Executable>
rbdock ($Id: //depot/dev/client3/rdock/2013.1/src/exe/rbdock.cxx#4 $)

>  <Rbt.Library>
libRbt.so (2013.1, Build901 2013/11/27)

>  <Rbt.Parameter_File>
/export/apps/rDock/src/rDock_2013.1_src/data/scripts/dock_solv.prm

>  <Rbt.Receptor>
prm/blind_docking_100.prm

>  <SCORE>
131.719

>  <SCORE.INTER>
92.8316

>  <SCORE.INTER.CONST>
1

>  <SCORE.INTER.POLAR>
-3.73922

>  <SCORE.INTER.ROT>
9

>  <SCORE.INTER.SOLV>
36.7765

>  <SCORE.INTER.VDW>
52.493

>  <SCORE.INTER.norm>
2.21028

>  <SCORE.INTRA>
19.9162

>  <SCORE.INTRA.DIHEDRAL>
20.0327

>  <SCORE.INTRA.DIHEDRAL.0>
30.1357

>  <SCORE.INTRA.POLAR>
-0.0855926

>  <SCORE.INTRA.POLAR.0>
-0.631696

>  <SCORE.INTRA.REPUL>
0.0175635

>  <SCORE.INTRA.REPUL.0>
0

>  <SCORE.INTRA.SOLV>
-0.156147

>  <SCORE.INTRA.SOLV.lig_0>
-55.904

>  <SCORE.INTRA.VDW>
10.1811

>  <SCORE.INTRA.VDW.0>
-8.21197

>  <SCORE.INTRA.norm>
0.474195

>  <SCORE.RESTR>
18.9715

>  <SCORE.RESTR.CAVITY>
18.9715

>  <SCORE.RESTR.norm>
0.451702

>  <SCORE.SYSTEM>
0

>  <SCORE.SYSTEM.CONST>
0

>  <SCORE.SYSTEM.DIHEDRAL>
0

>  <SCORE.SYSTEM.SOLV>
0

>  <SCORE.SYSTEM.norm>
0

>  <SCORE.heavy>
42

>  <SCORE.norm>
3.13617

>  <RMSD>
7.879

$$$$
lig.pdb
 OpenBabel11021811453D
libRbt.so/2013.1/901 2013/11/27
 42 45  0  0  0  0  0  0  0  0999 V2000
   -1.6793   -0.2567    5.0054 C   0  0  2  0  0  0  0  0  0  0  0  0
   -3.0903   -0.4754    4.9509 O   0  0  0  0  0  0  0  0  0  0  0  0
   -1.1504   -0.4512    6.4344 C   0  0  2  0  0  0  0  0  0  0  0  0
   -1.5268   -1.7756    6.9622 N   0  0  0  0  0  0  0  0  0  0  0  0
   -1.6405    0.6701    7.3596 C   0  0  1  0  0  0  0  0  0  0  0  0
   -1.0140    0.5449    8.6219 O   0  0  0  0  0  0  0  0  0  0  0  0
   -1.3026    2.0424    6.7577 C   0  0  2  0  0  0  0  0  0  0  0  0
   -1.8990    3.0577    7.5420 O   0  0  0  0  0  0  0  0  0  0  0  0
   -1.7900    2.1556    5.2989 C   0  0  2  0  0  0  0  0  0  0  0  0
   -1.3510    1.0428    4.5204 O   0  0  0  0  0  0  0  0  0  0  0  0
   -1.2261    3.4606    4.7055 C   0  0  0  0  0  0  0  0  0  0  0  0
    0.1351    3.3002    4.2241 O   0  0  0  0  0  0  0  0  0  0  0  0
   -3.5648   -4.0164    2.5494 C   0  0  2  0  0  0  0  0  0  0  0  0
   -4.3023   -4.8578    1.5859 N   0  0  0  0  0  0  0  0  0  0  0  0
   -4.4051   -3.7878    3.8083 C   0  0  0  0  0  0  0  0  0  0  0  0
   -3.7113   -2.8071    4.7461 C   0  0  2  0  0  0  0  0  0  0  0  0
   -4.4758   -2.6700    5.9921 N   0  0  0  0  0  0  0  0  0  0  0  0
   -3.5537   -1.4557    4.0109 C   0  0  2  0  0  0  0  0  0  0  0  0
   -2.6032   -1.6442    2.8723 C   0  0  2  0  0  0  0  0  0  0  0  0
   -2.4410   -0.3882    2.2394 O   0  0  0  0  0  0  0  0  0  0  0  0
   -3.1593   -2.6756    1.9088 C   0  0  1  0  0  0  0  0  0  0  0  0
   -2.2597   -2.9558    0.8527 O   0  0  0  0  0  0  0  0  0  0  0  0
   -1.6602   -0.3409    1.0499 C   0  0  1  0  0  0  0  0  0  0  0  0
   -1.8325    1.0485    0.4324 C   0  0  2  0  0  0  0  0  0  0  0  0
   -1.8311    0.9371   -0.9784 O   0  0  0  0  0  0  0  0  0  0  0  0
   -0.6108    1.8041    0.9725 C   0  0  2  0  0  0  0  0  0  0  0  0
   -0.2744    2.9468    0.1852 O   0  0  0  0  0  0  0  0  0  0  0  0
    0.4296    0.6775    0.9504 C   0  0  2  0  0  0  0  0  0  0  0  0
   -0.2827   -0.4755    1.3765 O   0  0  0  0  0  0  0  0  0  0  0  0
    1.6231    0.8997    1.8868 C   0  0  0  0  0  0  0  0  0  0  0  0
    1.2138    1.0128    3.2332 O   0  0  0  0  0  0  0  0  0  0  0  0
    0.2720    4.0376    0.9238 C   0  0  2  0  0  0  0  0  0  0  0  0
    0.0070    5.3841    0.2333 C   0  0  2  0  0  0  0  0  0  0  0  0
   -1.4319    5.5738   -0.0153 N   0  0  0  0  0  0  0  0  0  0  0  0
    0.8231    5.5132   -1.0616 C   0  0  1  0  0  0  0  0  0  0  0  0
    0.6061    6.8007   -1.6056 O   0  0  0  0  0  0  0  0  0  0  0  0
    2.3110    5.3257   -0.7194 C   0  0  2  0  0  0  0  0  0  0  0  0
    3.1066    5.3929   -1.8885 O   0  0  0  0  0  0  0  0  0  0  0  0
    2.5450    3.9900    0.0158 C   0  0  1  0  0  0  0  0  0  0  0  0
    1.6693    3.8493    1.1368 O   0  0  0  0  0  0  0  0  0  0  0  0
    2.4907    2.7670   -0.9116 C   0  0  0  0  0  0  0  0  0  0  0  0
    3.6734    2.7038   -1.7854 N   0  0  0  0  0  0  0  0  0  0  0  0
  1  3  1  0  0  0  0
  1  2  1  1  0  0  0
  3  4  1  1  0  0  0
  5  6  1  1  0  0  0
  5  3  1  0  0  0  0
  7  9  1  0  0  0  0
  7  5  1  0  0  0  0
  7  8  1  1  0  0  0
  9 10  1  0  0  0  0
  9 11  1  6  0  0  0
 10  1  1  0  0  0  0
 11 12  1  0  0  0  0
 13 14  1  6  0  0  0
 13 21  1  0  0  0  0
 15 13  1  0  0  0  0
 16 15  1  0  0  0  0
 16 18  1  0  0  0  0
 16 17  1  1  0  0  0
 18  2  1  1  0  0  0
 18 19  1  0  0  0  0
 19 21  1  0  0  0  0
 19 20  1  6  0  0  0
 21 22  1  6  0  0  0
 23 20  1  1  0  0  0
 23 29  1  0  0  0  0
 23 24  1  0  0  0  0
 24 26  1  0  0  0  0
 24 25  1  6  0  0  0
 26 27  1  6  0  0  0
 28 26  1  0  0  0  0
 28 30  1  1  0  0  0
 29 28  1  0  0  0  0
 30 31  1  0  0  0  0
 32 27  1  6  0  0  0
 32 40  1  0  0  0  0
 32 33  1  0  0  0  0
 33 35  1  0  0  0  0
 33 34  1  6  0  0  0
 35 37  1  0  0  0  0
 35 36  1  1  0  0  0
 37 38  1  6  0  0  0
 39 37  1  0  0  0  0
 39 41  1  6  0  0  0
 40 39  1  0  0  0  0
 42 41  1  0  0  0  0
M  END
>  <CHROM.1>
94.96758981,-124.60150791,-93.07574415,-69.83655701,63.27824431,-163.64239211
82.95218473,-63.69061595,-171.38583470,-174.88083461,170.37590458,-41.69305460
-156.70951712,146.94672717,-153.27418660,60.16077400,24.50056188,-68.74628733
-169.49961360,-179.31840090,71.71621210,45.29396453,-0.91552530,1.10637488
2.52733854,-2.79019386,-1.05392877,-1.88958291

>  <Name>
lig.pdb

>  <RI>
3.99633e+07

>  <Rbt.Current_Directory>
/home/itssahil/PROJECTS/Mol_Feturizer/New_Systems/rnas/2mxs

>  <Rbt.Executable>
rbdock ($Id: //depot/dev/client3/rdock/2013.1/src/exe/rbdock.cxx#4 $)

>  <Rbt.Library>
libRbt.so (2013.1, Build901 2013/11/27)

>  <Rbt.Parameter_File>
/export/apps/rDock/src/rDock_2013.1_src/data/scripts/dock_solv.prm

>  <Rbt.Receptor>
prm/pocket_docking_5.prm

>  <SCORE>
-30.4739

>  <SCORE.INTER>
-36.2988

>  <SCORE.INTER.CONST>
1

>  <SCORE.INTER.POLAR>
-5.19406

>  <SCORE.INTER.ROT>
9

>  <SCORE.INTER.SOLV>
17.813

>  <SCORE.INTER.VDW>
-22.4233

>  <SCORE.INTER.norm>
-0.864256

>  <SCORE.INTRA>
5.62247

>  <SCORE.INTRA.DIHEDRAL>
5.58819

>  <SCORE.INTRA.DIHEDRAL.0>
30.1357

>  <SCORE.INTRA.POLAR>
-0.318553

>  <SCORE.INTRA.POLAR.0>
-0.631696

>  <SCORE.INTRA.REPUL>
0.0637144

>  <SCORE.INTRA.REPUL.0>
0

>  <SCORE.INTRA.SOLV>
2.8215

>  <SCORE.INTRA.SOLV.lig_0>
-55.904

>  <SCORE.INTRA.VDW>
2.18213

>  <SCORE.INTRA.VDW.0>
-8.21197

>  <SCORE.INTRA.norm>
0.133868

>  <SCORE.RESTR>
0.202376

>  <SCORE.RESTR.CAVITY>
0.202376

>  <SCORE.RESTR.norm>
0.00481848

>  <SCORE.SYSTEM>
0

>  <SCORE.SYSTEM.CONST>
0

>  <SCORE.SYSTEM.DIHEDRAL>
0

>  <SCORE.SYSTEM.SOLV>
0

>  <SCORE.SYSTEM.norm>
0

>  <SCORE.heavy>
42

>  <SCORE.norm>
-0.72557

>  <RMSD>
7.886

$$$$
lig.pdb
 OpenBabel11021811453D
libRbt.so/2013.1/901 2013/11/27
 42 45  0  0  0  0  0  0  0  0999 V2000
   -2.1792    4.5842    2.6371 C   0  0  2  0  0  0  0  0  0  0  0  0
   -2.3420    5.7550    1.8344 O   0  0  0  0  0  0  0  0  0  0  0  0
   -3.5426    3.9830    3.0106 C   0  0  2  0  0  0  0  0  0  0  0  0
   -4.3532    3.7215    1.8069 N   0  0  0  0  0  0  0  0  0  0  0  0
   -4.2931    4.8907    3.9937 C   0  0  1  0  0  0  0  0  0  0  0  0
   -5.4689    4.2374    4.4321 O   0  0  0  0  0  0  0  0  0  0  0  0
   -3.4060    5.2100    5.2065 C   0  0  2  0  0  0  0  0  0  0  0  0
   -4.0524    6.1703    6.0198 O   0  0  0  0  0  0  0  0  0  0  0  0
   -2.0238    5.7388    4.7725 C   0  0  2  0  0  0  0  0  0  0  0  0
   -1.4209    4.8766    3.8081 O   0  0  0  0  0  0  0  0  0  0  0  0
   -1.1297    5.8255    6.0240 C   0  0  0  0  0  0  0  0  0  0  0  0
   -0.1594    6.9026    5.9305 O   0  0  0  0  0  0  0  0  0  0  0  0
    0.3944    7.8889   -0.7129 C   0  0  2  0  0  0  0  0  0  0  0  0
    1.7517    8.2874   -1.1365 N   0  0  0  0  0  0  0  0  0  0  0  0
    0.1353    8.3332    0.7289 C   0  0  0  0  0  0  0  0  0  0  0  0
   -1.2067    7.8040    1.2207 C   0  0  2  0  0  0  0  0  0  0  0  0
   -1.4909    8.3160    2.5672 N   0  0  0  0  0  0  0  0  0  0  0  0
   -1.1658    6.2586    1.1847 C   0  0  2  0  0  0  0  0  0  0  0  0
   -1.0738    5.8205   -0.2419 C   0  0  2  0  0  0  0  0  0  0  0  0
   -1.0797    4.4048   -0.2547 O   0  0  0  0  0  0  0  0  0  0  0  0
    0.1970    6.3688   -0.8631 C   0  0  1  0  0  0  0  0  0  0  0  0
    0.2943    6.0544   -2.2396 O   0  0  0  0  0  0  0  0  0  0  0  0
   -0.6740    3.7508   -1.4525 C   0  0  1  0  0  0  0  0  0  0  0  0
    0.8090    3.4002   -1.3144 C   0  0  2  0  0  0  0  0  0  0  0  0
    1.4417    3.5379   -2.5728 O   0  0  0  0  0  0  0  0  0  0  0  0
    0.7610    1.9460   -0.8266 C   0  0  2  0  0  0  0  0  0  0  0  0
    1.9762    1.2386   -1.0750 O   0  0  0  0  0  0  0  0  0  0  0  0
   -0.4520    1.4404   -1.6172 C   0  0  2  0  0  0  0  0  0  0  0  0
   -1.3744    2.5205   -1.5864 O   0  0  0  0  0  0  0  0  0  0  0  0
   -1.1218    0.1965   -1.0220 C   0  0  0  0  0  0  0  0  0  0  0  0
   -0.2749   -0.9312   -1.0861 O   0  0  0  0  0  0  0  0  0  0  0  0
    3.0644    1.6123   -0.2323 C   0  0  2  0  0  0  0  0  0  0  0  0
    4.1762    0.5521   -0.2321 C   0  0  2  0  0  0  0  0  0  0  0  0
    4.6337    0.2692   -1.6028 N   0  0  0  0  0  0  0  0  0  0  0  0
    3.7213   -0.7282    0.4844 C   0  0  1  0  0  0  0  0  0  0  0  0
    4.8091   -1.6313    0.5293 O   0  0  0  0  0  0  0  0  0  0  0  0
    3.2809   -0.3569    1.9106 C   0  0  2  0  0  0  0  0  0  0  0  0
    2.8100   -1.4985    2.6030 O   0  0  0  0  0  0  0  0  0  0  0  0
    2.1995    0.7429    1.8865 C   0  0  1  0  0  0  0  0  0  0  0  0
    2.6081    1.8612    1.0955 O   0  0  0  0  0  0  0  0  0  0  0  0
    0.8135    0.2249    1.4749 C   0  0  0  0  0  0  0  0  0  0  0  0
    0.3779   -0.8851    2.3377 N   0  0  0  0  0  0  0  0  0  0  0  0
  1  3  1  0  0  0  0
  1  2  1  1  0  0  0
  3  4  1  6  0  0  0
  5  6  1  1  0  0  0
  5  3  1  0  0  0  0
  7  9  1  0  0  0  0
  7  5  1  0  0  0  0
  7  8  1  1  0  0  0
  9 10  1  0  0  0  0
  9 11  1  1  0  0  0
 10  1  1  0  0  0  0
 11 12  1  0  0  0  0
 13 14  1  1  0  0  0
 13 21  1  0  0  0  0
 15 13  1  0  0  0  0
 16 15  1  0  0  0  0
 16 18  1  0  0  0  0
 16 17  1  1  0  0  0
 18  2  1  6  0  0  0
 18 19  1  0  0  0  0
 19 21  1  0  0  0  0
 19 20  1  1  0  0  0
 21 22  1  6  0  0  0
 23 20  1  1  0  0  0
 23 29  1  0  0  0  0
 23 24  1  0  0  0  0
 24 26  1  0  0  0  0
 24 25  1  6  0  0  0
 26 27  1  6  0  0  0
 28 26  1  0  0  0  0
 28 30  1  1  0  0  0
 29 28  1  0  0  0  0
 30 31  1  0  0  0  0
 32 27  1  6  0  0  0
 32 40  1  0  0  0  0
 32 33  1  0  0  0  0
 33 35  1  0  0  0  0
 33 34  1  6  0  0  0
 35 37  1  0  0  0  0
 35 36  1  1  0  0  0
 37 38  1  6  0  0  0
 39 37  1  0  0  0  0
 39 41  1  6  0  0  0
 40 39  1  0  0  0  0
 42 41  1  0  0  0  0
M  END
>  <CHROM.1>
-141.82274375,-167.43764603,-44.05798347,171.56126691,64.37952703,69.21672839
-148.89935090,-65.19605697,47.17751334,-164.85538707,95.57884153,-91.44028584
79.92501352,72.93832547,162.07054287,-66.33968944,-178.79166831,-86.33897937
-150.80496132,-163.46719783,55.53809498,52.49237991,-0.09779259,3.51626086
1.14001354,2.74522849,0.88621336,-0.55292935

>  <Name>
lig.pdb

>  <RI>
3.17932e+07

>  <Rbt.Current_Directory>
/home/itssahil/PROJECTS/Mol_Feturizer/New_Systems/rnas/2mxs

>  <Rbt.Executable>
rbdock ($Id: //depot/dev/client3/rdock/2013.1/src/exe/rbdock.cxx#4 $)

>  <Rbt.Library>
libRbt.so (2013.1, Build901 2013/11/27)

>  <Rbt.Parameter_File>
/export/apps/rDock/src/rDock_2013.1_src/data/scripts/dock_solv.prm

>  <Rbt.Receptor>
prm/blind_docking_100.prm

>  <SCORE>
99.0569

>  <SCORE.INTER>
65.9892

>  <SCORE.INTER.CONST>
1

>  <SCORE.INTER.POLAR>
-2.24004

>  <SCORE.INTER.ROT>
9

>  <SCORE.INTER.SOLV>
33.0475

>  <SCORE.INTER.VDW>
30.8438

>  <SCORE.INTER.norm>
1.57117

>  <SCORE.INTRA>
8.82662

>  <SCORE.INTRA.DIHEDRAL>
1.0424

>  <SCORE.INTRA.DIHEDRAL.0>
30.1357

>  <SCORE.INTRA.POLAR>
-0.0418294

>  <SCORE.INTRA.POLAR.0>
-0.631696

>  <SCORE.INTRA.REPUL>
0

>  <SCORE.INTRA.REPUL.0>
0

>  <SCORE.INTRA.SOLV>
1.16308

>  <SCORE.INTRA.SOLV.lig_0>
-55.904

>  <SCORE.INTRA.VDW>
7.86609

>  <SCORE.INTRA.VDW.0>
-8.21197

>  <SCORE.INTRA.norm>
0.210158

>  <SCORE.RESTR>
24.2411

>  <SCORE.RESTR.CAVITY>
24.2411

>  <SCORE.RESTR.norm>
0.577168

>  <SCORE.SYSTEM>
0

>  <SCORE.SYSTEM.CONST>
0

>  <SCORE.SYSTEM.DIHEDRAL>
0

>  <SCORE.SYSTEM.SOLV>
0

>  <SCORE.SYSTEM.norm>
0

>  <SCORE.heavy>
42

>  <SCORE.norm>
2.3585

>  <RMSD>
7.895

$$$$
lig.pdb
 OpenBabel11021811453D
libRbt.so/2013.1/901 2013/11/27
 42 45  0  0  0  0  0  0  0  0999 V2000
   -1.5887    4.7019    1.9580 C   0  0  2  0  0  0  0  0  0  0  0  0
   -1.7874    5.7989    1.0644 O   0  0  0  0  0  0  0  0  0  0  0  0
   -2.5493    3.5487    1.6306 C   0  0  2  0  0  0  0  0  0  0  0  0
   -2.4265    3.1425    0.2184 N   0  0  0  0  0  0  0  0  0  0  0  0
   -3.9969    3.9251    1.9717 C   0  0  1  0  0  0  0  0  0  0  0  0
   -4.8288    2.7933    1.8026 O   0  0  0  0  0  0  0  0  0  0  0  0
   -4.0914    4.4137    3.4250 C   0  0  2  0  0  0  0  0  0  0  0  0
   -5.3957    4.9033    3.6708 O   0  0  0  0  0  0  0  0  0  0  0  0
   -3.0553    5.5175    3.7190 C   0  0  2  0  0  0  0  0  0  0  0  0
   -1.7468    5.1188    3.3119 O   0  0  0  0  0  0  0  0  0  0  0  0
   -3.0671    5.7940    5.2345 C   0  0  0  0  0  0  0  0  0  0  0  0
   -2.0486    6.7537    5.6242 O   0  0  0  0  0  0  0  0  0  0  0  0
    0.9120    7.9792   -1.4833 C   0  0  2  0  0  0  0  0  0  0  0  0
    2.2634    8.3690   -1.9330 N   0  0  0  0  0  0  0  0  0  0  0  0
    0.7047    8.3725   -0.0185 C   0  0  0  0  0  0  0  0  0  0  0  0
   -0.6318    7.8492    0.4939 C   0  0  2  0  0  0  0  0  0  0  0  0
   -0.8656    8.3142    1.8668 N   0  0  0  0  0  0  0  0  0  0  0  0
   -0.6217    6.3057    0.3984 C   0  0  2  0  0  0  0  0  0  0  0  0
   -0.5809    5.9210   -1.0458 C   0  0  2  0  0  0  0  0  0  0  0  0
   -0.6144    4.5071   -1.1119 O   0  0  0  0  0  0  0  0  0  0  0  0
    0.6810    6.4697   -1.6846 C   0  0  1  0  0  0  0  0  0  0  0  0
    0.7309    6.2065   -3.0743 O   0  0  0  0  0  0  0  0  0  0  0  0
    0.0999    3.8756   -2.1692 C   0  0  1  0  0  0  0  0  0  0  0  0
    1.4950    3.5257   -1.6472 C   0  0  2  0  0  0  0  0  0  0  0  0
    2.4389    3.6872   -2.6892 O   0  0  0  0  0  0  0  0  0  0  0  0
    1.3287    2.0628   -1.2142 C   0  0  2  0  0  0  0  0  0  0  0  0
    2.5709    1.3625   -1.1419 O   0  0  0  0  0  0  0  0  0  0  0  0
    0.3734    1.5690   -2.3076 C   0  0  2  0  0  0  0  0  0  0  0  0
   -0.5312    2.6465   -2.5054 O   0  0  0  0  0  0  0  0  0  0  0  0
   -0.4223    0.3132   -1.9331 C   0  0  0  0  0  0  0  0  0  0  0  0
   -1.7088    0.3200   -2.5145 O   0  0  0  0  0  0  0  0  0  0  0  0
    3.2904    1.5523    0.0748 C   0  0  2  0  0  0  0  0  0  0  0  0
    4.1650    0.3363    0.4162 C   0  0  2  0  0  0  0  0  0  0  0  0
    5.0726    0.0117   -0.6968 N   0  0  0  0  0  0  0  0  0  0  0  0
    3.3036   -0.8730    0.8104 C   0  0  1  0  0  0  0  0  0  0  0  0
    4.1598   -1.9309    1.1957 O   0  0  0  0  0  0  0  0  0  0  0  0
    2.4019   -0.4647    1.9878 C   0  0  2  0  0  0  0  0  0  0  0  0
    1.5537   -1.5340    2.3639 O   0  0  0  0  0  0  0  0  0  0  0  0
    1.5696    0.7864    1.6386 C   0  0  1  0  0  0  0  0  0  0  0  0
    2.3959    1.8438    1.1462 O   0  0  0  0  0  0  0  0  0  0  0  0
    0.3932    0.4914    0.6965 C   0  0  0  0  0  0  0  0  0  0  0  0
   -0.4899   -0.5477    1.2504 N   0  0  0  0  0  0  0  0  0  0  0  0
  1  3  1  0  0  0  0
  1  2  1  6  0  0  0
  3  4  1  6  0  0  0
  5  6  1  1  0  0  0
  5  3  1  0  0  0  0
  7  9  1  0  0  0  0
  7  5  1  0  0  0  0
  7  8  1  6  0  0  0
  9 10  1  0  0  0  0
  9 11  1  1  0  0  0
 10  1  1  0  0  0  0
 11 12  1  0  0  0  0
 13 14  1  1  0  0  0
 13 21  1  0  0  0  0
 15 13  1  0  0  0  0
 16 15  1  0  0  0  0
 16 18  1  0  0  0  0
 16 17  1  1  0  0  0
 18  2  1  6  0  0  0
 18 19  1  0  0  0  0
 19 21  1  0  0  0  0
 19 20  1  1  0  0  0
 21 22  1  6  0  0  0
 23 20  1  1  0  0  0
 23 29  1  0  0  0  0
 23 24  1  0  0  0  0
 24 26  1  0  0  0  0
 24 25  1  6  0  0  0
 26 27  1  6  0  0  0
 28 26  1  0  0  0  0
 28 30  1  1  0  0  0
 29 28  1  0  0  0  0
 30 31  1  0  0  0  0
 32 27  1  6  0  0  0
 32 40  1  0  0  0  0
 32 33  1  0  0  0  0
 33 35  1  0  0  0  0
 33 34  1  6  0  0  0
 35 37  1  0  0  0  0
 35 36  1  1  0  0  0
 37 38  1  6  0  0  0
 39 37  1  0  0  0  0
 39 41  1  6  0  0  0
 40 39  1  0  0  0  0
 42 41  1  0  0  0  0
M  END
>  <CHROM.1>
-133.74147463,-128.02034789,-52.73185503,65.15182650,-178.97878382,69.77555105
175.70655581,62.75525400,-164.26333029,-146.64713312,93.30641254,80.15841913
-173.84852133,82.98644298,151.24991087,146.68681269,-173.42955618,176.62274328
-84.59764742,170.61348089,55.97528322,-53.83045937,-0.03287520,3.44211545
0.45165814,2.51545313,0.73861852,-0.37926519

>  <Name>
lig.pdb

>  <RI>
3.17932e+07

>  <Rbt.Current_Directory>
/home/itssahil/PROJECTS/Mol_Feturizer/New_Systems/rnas/2mxs

>  <Rbt.Executable>
rbdock ($Id: //depot/dev/client3/rdock/2013.1/src/exe/rbdock.cxx#4 $)

>  <Rbt.Library>
libRbt.so (2013.1, Build901 2013/11/27)

>  <Rbt.Parameter_File>
/export/apps/rDock/src/rDock_2013.1_src/data/scripts/dock_solv.prm

>  <Rbt.Receptor>
prm/blind_docking_100.prm

>  <SCORE>
109.627

>  <SCORE.INTER>
72.697

>  <SCORE.INTER.CONST>
1

>  <SCORE.INTER.POLAR>
-3.96887

>  <SCORE.INTER.ROT>
9

>  <SCORE.INTER.SOLV>
35.4713

>  <SCORE.INTER.VDW>
40.2705

>  <SCORE.INTER.norm>
1.73088

>  <SCORE.INTRA>
17.1021

>  <SCORE.INTRA.DIHEDRAL>
7.59185

>  <SCORE.INTRA.DIHEDRAL.0>
30.1357

>  <SCORE.INTRA.POLAR>
-0.0222029

>  <SCORE.INTRA.POLAR.0>
-0.631696

>  <SCORE.INTRA.REPUL>
0

>  <SCORE.INTRA.REPUL.0>
0

>  <SCORE.INTRA.SOLV>
1.1176

>  <SCORE.INTRA.SOLV.lig_0>
-55.904

>  <SCORE.INTRA.VDW>
12.8229

>  <SCORE.INTRA.VDW.0>
-8.21197

>  <SCORE.INTRA.norm>
0.407194

>  <SCORE.RESTR>
19.8275

>  <SCORE.RESTR.CAVITY>
19.8275

>  <SCORE.RESTR.norm>
0.472082

>  <SCORE.SYSTEM>
0

>  <SCORE.SYSTEM.CONST>
0

>  <SCORE.SYSTEM.DIHEDRAL>
0

>  <SCORE.SYSTEM.SOLV>
0

>  <SCORE.SYSTEM.norm>
0

>  <SCORE.heavy>
42

>  <SCORE.norm>
2.61016

>  <RMSD>
7.897

$$$$
lig.pdb
 OpenBabel11021811453D
libRbt.so/2013.1/901 2013/11/27
 42 45  0  0  0  0  0  0  0  0999 V2000
   -2.5856    6.2404    4.8354 C   0  0  2  0  0  0  0  0  0  0  0  0
   -2.7299    6.6200    3.4655 O   0  0  0  0  0  0  0  0  0  0  0  0
   -1.5621    7.1379    5.5470 C   0  0  2  0  0  0  0  0  0  0  0  0
   -1.9152    8.5621    5.4007 N   0  0  0  0  0  0  0  0  0  0  0  0
   -0.1421    6.8669    5.0335 C   0  0  1  0  0  0  0  0  0  0  0  0
    0.7864    7.5959    5.8133 O   0  0  0  0  0  0  0  0  0  0  0  0
    0.1806    5.3680    5.1272 C   0  0  2  0  0  0  0  0  0  0  0  0
    1.4265    5.1172    4.5056 O   0  0  0  0  0  0  0  0  0  0  0  0
   -0.9161    4.5108    4.4632 C   0  0  2  0  0  0  0  0  0  0  0  0
   -2.2119    4.8690    4.9424 O   0  0  0  0  0  0  0  0  0  0  0  0
   -0.6312    3.0323    4.7890 C   0  0  0  0  0  0  0  0  0  0  0  0
    0.2005    2.3995    3.7800 O   0  0  0  0  0  0  0  0  0  0  0  0
   -4.3982    3.1191    1.5969 C   0  0  2  0  0  0  0  0  0  0  0  0
   -5.3218    2.4465    0.6616 N   0  0  0  0  0  0  0  0  0  0  0  0
   -5.1848    3.9189    2.6384 C   0  0  0  0  0  0  0  0  0  0  0  0
   -4.2403    4.7279    3.5195 C   0  0  2  0  0  0  0  0  0  0  0  0
   -4.9951    5.4135    4.5760 N   0  0  0  0  0  0  0  0  0  0  0  0
   -3.4656    5.7213    2.6226 C   0  0  2  0  0  0  0  0  0  0  0  0
   -2.5743    4.9402    1.7111 C   0  0  2  0  0  0  0  0  0  0  0  0
   -1.8448    5.8682    0.9293 O   0  0  0  0  0  0  0  0  0  0  0  0
   -3.4127    4.0268    0.8370 C   0  0  1  0  0  0  0  0  0  0  0  0
   -2.6135    3.2009    0.0110 O   0  0  0  0  0  0  0  0  0  0  0  0
   -0.5240    6.1948    1.3484 C   0  0  1  0  0  0  0  0  0  0  0  0
    0.3903    5.0301    0.9625 C   0  0  2  0  0  0  0  0  0  0  0  0
    1.3828    4.8645    1.9576 O   0  0  0  0  0  0  0  0  0  0  0  0
    0.9656    5.4931   -0.3828 C   0  0  2  0  0  0  0  0  0  0  0  0
    2.1850    4.8314   -0.7202 O   0  0  0  0  0  0  0  0  0  0  0  0
    1.1022    6.9961   -0.1102 C   0  0  2  0  0  0  0  0  0  0  0  0
   -0.0622    7.3324    0.6310 O   0  0  0  0  0  0  0  0  0  0  0  0
    1.1578    7.8657   -1.3717 C   0  0  0  0  0  0  0  0  0  0  0  0
    1.6473    7.1423   -2.4808 O   0  0  0  0  0  0  0  0  0  0  0  0
    2.1619    4.1430   -1.9691 C   0  0  2  0  0  0  0  0  0  0  0  0
    2.6732    2.7005   -1.8352 C   0  0  2  0  0  0  0  0  0  0  0  0
    1.9169    1.9675   -0.8062 N   0  0  0  0  0  0  0  0  0  0  0  0
    4.1825    2.6715   -1.5512 C   0  0  1  0  0  0  0  0  0  0  0  0
    4.6110    1.3237   -1.5242 O   0  0  0  0  0  0  0  0  0  0  0  0
    4.9036    3.4349   -2.6751 C   0  0  2  0  0  0  0  0  0  0  0  0
    6.2989    3.4754   -2.4386 O   0  0  0  0  0  0  0  0  0  0  0  0
    4.3403    4.8635   -2.8226 C   0  0  1  0  0  0  0  0  0  0  0  0
    2.9164    4.8541   -2.9479 O   0  0  0  0  0  0  0  0  0  0  0  0
    4.8128    5.8211   -1.7187 C   0  0  0  0  0  0  0  0  0  0  0  0
    4.3528    7.1966   -1.9691 N   0  0  0  0  0  0  0  0  0  0  0  0
  1  3  1  0  0  0  0
  1  2  1  6  0  0  0
  3  4  1  6  0  0  0
  5  6  1  1  0  0  0
  5  3  1  0  0  0  0
  7  9  1  0  0  0  0
  7  5  1  0  0  0  0
  7  8  1  6  0  0  0
  9 10  1  0  0  0  0
  9 11  1  1  0  0  0
 10  1  1  0  0  0  0
 11 12  1  0  0  0  0
 13 14  1  6  0  0  0
 13 21  1  0  0  0  0
 15 13  1  0  0  0  0
 16 15  1  0  0  0  0
 16 18  1  0  0  0  0
 16 17  1  1  0  0  0
 18  2  1  1  0  0  0
 18 19  1  0  0  0  0
 19 21  1  0  0  0  0
 19 20  1  6  0  0  0
 21 22  1  1  0  0  0
 23 20  1  6  0  0  0
 23 29  1  0  0  0  0
 23 24  1  0  0  0  0
 24 26  1  0  0  0  0
 24 25  1  1  0  0  0
 26 27  1  1  0  0  0
 28 26  1  0  0  0  0
 28 30  1  6  0  0  0
 29 28  1  0  0  0  0
 30 31  1  0  0  0  0
 32 27  1  1  0  0  0
 32 40  1  0  0  0  0
 32 33  1  0  0  0  0
 33 35  1  0  0  0  0
 33 34  1  1  0  0  0
 35 37  1  0  0  0  0
 35 36  1  6  0  0  0
 37 38  1  1  0  0  0
 39 37  1  0  0  0  0
 39 41  1  1  0  0  0
 40 39  1  0  0  0  0
 42 41  1  0  0  0  0
M  END
>  <CHROM.1>
14.83617985,169.01979997,62.65758484,-78.02212236,-67.07274199,14.90333855
-91.09519836,-54.48467788,8.50132804,97.72500536,76.68307991,-51.09255890
175.06119544,122.83602284,-130.13063945,-25.69338663,175.79978004,-52.60862206
-63.31085979,-167.21161203,174.74188572,160.86281321,0.10837164,4.99629965
1.28789136,-2.50524206,-0.39904992,-2.22806963

>  <Name>
lig.pdb

>  <RI>
3.31443e+07

>  <Rbt.Current_Directory>
/home/itssahil/PROJECTS/Mol_Feturizer/New_Systems/rnas/2mxs

>  <Rbt.Executable>
rbdock ($Id: //depot/dev/client3/rdock/2013.1/src/exe/rbdock.cxx#4 $)

>  <Rbt.Library>
libRbt.so (2013.1, Build901 2013/11/27)

>  <Rbt.Parameter_File>
/export/apps/rDock/src/rDock_2013.1_src/data/scripts/dock_solv.prm

>  <Rbt.Receptor>
prm/blind_docking_40.prm

>  <SCORE>
82.9318

>  <SCORE.INTER>
45.3003

>  <SCORE.INTER.CONST>
1

>  <SCORE.INTER.POLAR>
-2.13356

>  <SCORE.INTER.ROT>
9

>  <SCORE.INTER.SOLV>
33.4753

>  <SCORE.INTER.VDW>
16.5537

>  <SCORE.INTER.norm>
1.07858

>  <SCORE.INTRA>
16.8416

>  <SCORE.INTRA.DIHEDRAL>
17.1341

>  <SCORE.INTRA.DIHEDRAL.0>
30.1357

>  <SCORE.INTRA.POLAR>
-1.22108

>  <SCORE.INTRA.POLAR.0>
-0.631696

>  <SCORE.INTRA.REPUL>
0.24225

>  <SCORE.INTRA.REPUL.0>
0

>  <SCORE.INTRA.SOLV>
3.5896

>  <SCORE.INTRA.SOLV.lig_0>
-55.904

>  <SCORE.INTRA.VDW>
9.42019

>  <SCORE.INTRA.VDW.0>
-8.21197

>  <SCORE.INTRA.norm>
0.400991

>  <SCORE.RESTR>
20.7898

>  <SCORE.RESTR.CAVITY>
20.7898

>  <SCORE.RESTR.norm>
0.494996

>  <SCORE.SYSTEM>
0

>  <SCORE.SYSTEM.CONST>
0

>  <SCORE.SYSTEM.DIHEDRAL>
0

>  <SCORE.SYSTEM.SOLV>
0

>  <SCORE.SYSTEM.norm>
0

>  <SCORE.heavy>
42

>  <SCORE.norm>
1.97457

>  <RMSD>
7.906

$$$$
lig.pdb
 OpenBabel11021811453D
libRbt.so/2013.1/901 2013/11/27
 42 45  0  0  0  0  0  0  0  0999 V2000
   -1.7343    4.6781    1.6025 C   0  0  2  0  0  0  0  0  0  0  0  0
   -1.8241    5.8533    0.7948 O   0  0  0  0  0  0  0  0  0  0  0  0
   -3.0696    4.3952    2.3072 C   0  0  2  0  0  0  0  0  0  0  0  0
   -4.1749    4.3160    1.3344 N   0  0  0  0  0  0  0  0  0  0  0  0
   -3.3576    5.4497    3.3836 C   0  0  1  0  0  0  0  0  0  0  0  0
   -4.5111    5.0746    4.1118 O   0  0  0  0  0  0  0  0  0  0  0  0
   -2.1652    5.5684    4.3448 C   0  0  2  0  0  0  0  0  0  0  0  0
   -2.3827    6.6506    5.2296 O   0  0  0  0  0  0  0  0  0  0  0  0
   -0.8417    5.7764    3.5810 C   0  0  2  0  0  0  0  0  0  0  0  0
   -0.6796    4.7989    2.5537 O   0  0  0  0  0  0  0  0  0  0  0  0
    0.3164    5.6667    4.5909 C   0  0  0  0  0  0  0  0  0  0  0  0
    0.3278    6.7721    5.5335 O   0  0  0  0  0  0  0  0  0  0  0  0
    1.1062    7.9915   -1.5231 C   0  0  2  0  0  0  0  0  0  0  0  0
    2.4962    8.3357   -1.8828 N   0  0  0  0  0  0  0  0  0  0  0  0
    0.8315    8.3480   -0.0600 C   0  0  0  0  0  0  0  0  0  0  0  0
   -0.5531    7.8679    0.3588 C   0  0  2  0  0  0  0  0  0  0  0  0
   -0.8458    8.3000    1.7312 N   0  0  0  0  0  0  0  0  0  0  0  0
   -0.6019    6.3291    0.2126 C   0  0  2  0  0  0  0  0  0  0  0  0
   -0.4941    5.9878   -1.2391 C   0  0  2  0  0  0  0  0  0  0  0  0
   -0.5828    4.5795   -1.3540 O   0  0  0  0  0  0  0  0  0  0  0  0
    0.8242    6.5005   -1.7873 C   0  0  1  0  0  0  0  0  0  0  0  0
    0.9431    6.2784   -3.1800 O   0  0  0  0  0  0  0  0  0  0  0  0
    0.6001    3.8666   -1.6994 C   0  0  1  0  0  0  0  0  0  0  0  0
    1.1093    3.1666   -0.4377 C   0  0  2  0  0  0  0  0  0  0  0  0
    2.5245    3.1681   -0.4402 O   0  0  0  0  0  0  0  0  0  0  0  0
    0.5138    1.7591   -0.5773 C   0  0  2  0  0  0  0  0  0  0  0  0
    1.2116    0.7837    0.1976 O   0  0  0  0  0  0  0  0  0  0  0  0
    0.6229    1.5739   -2.0959 C   0  0  2  0  0  0  0  0  0  0  0  0
    0.2858    2.8439   -2.6361 O   0  0  0  0  0  0  0  0  0  0  0  0
   -0.3268    0.5186   -2.6746 C   0  0  0  0  0  0  0  0  0  0  0  0
   -1.6760    0.9219   -2.5736 O   0  0  0  0  0  0  0  0  0  0  0  0
    2.3886    1.2673    0.8418 C   0  0  2  0  0  0  0  0  0  0  0  0
    3.5739    1.3614   -0.1310 C   0  0  2  0  0  0  0  0  0  0  0  0
    3.2290    2.1838   -1.3027 N   0  0  0  0  0  0  0  0  0  0  0  0
    4.0614   -0.0344   -0.5475 C   0  0  1  0  0  0  0  0  0  0  0  0
    5.2025    0.1128   -1.3703 O   0  0  0  0  0  0  0  0  0  0  0  0
    4.4218   -0.8228    0.7231 C   0  0  2  0  0  0  0  0  0  0  0  0
    4.8379   -2.1362    0.3970 O   0  0  0  0  0  0  0  0  0  0  0  0
    3.2326   -0.8624    1.7049 C   0  0  1  0  0  0  0  0  0  0  0  0
    2.7210    0.4477    1.9602 O   0  0  0  0  0  0  0  0  0  0  0  0
    2.1251   -1.8382    1.2806 C   0  0  0  0  0  0  0  0  0  0  0  0
    1.9516   -1.8496   -0.1809 N   0  0  0  0  0  0  0  0  0  0  0  0
  1  3  1  0  0  0  0
  1  2  1  1  0  0  0
  3  4  1  6  0  0  0
  5  6  1  1  0  0  0
  5  3  1  0  0  0  0
  7  9  1  0  0  0  0
  7  5  1  0  0  0  0
  7  8  1  1  0  0  0
  9 10  1  0  0  0  0
  9 11  1  1  0  0  0
 10  1  1  0  0  0  0
 11 12  1  0  0  0  0
 13 14  1  1  0  0  0
 13 21  1  0  0  0  0
 15 13  1  0  0  0  0
 16 15  1  0  0  0  0
 16 18  1  0  0  0  0
 16 17  1  1  0  0  0
 18  2  1  6  0  0  0
 18 19  1  0  0  0  0
 19 21  1  0  0  0  0
 19 20  1  1  0  0  0
 21 22  1  6  0  0  0
 23 20  1  1  0  0  0
 23 29  1  0  0  0  0
 23 24  1  0  0  0  0
 24 26  1  0  0  0  0
 24 25  1  6  0  0  0
 26 27  1  1  0  0  0
 28 26  1  0  0  0  0
 28 30  1  6  0  0  0
 29 28  1  0  0  0  0
 30 31  1  0  0  0  0
 32 27  1  6  0  0  0
 32 40  1  0  0  0  0
 32 33  1  0  0  0  0
 33 35  1  0  0  0  0
 33 34  1  6  0  0  0
 35 37  1  0  0  0  0
 35 36  1  6  0  0  0
 37 38  1  6  0  0  0
 39 37  1  0  0  0  0
 39 41  1  6  0  0  0
 40 39  1  0  0  0  0
 42 41  1  0  0  0  0
M  END
>  <CHROM.1>
-137.04977694,172.40063743,-61.94142104,-43.44743699,-176.04388062,-43.23216440
-68.03569552,-63.37226869,77.11446264,-108.61606468,105.48809827,-146.69854253
104.78175163,-5.72153898,-78.84663610,67.39962505,64.73373526,151.09682817
62.52636370,81.70029960,-36.72152900,62.91999701,0.51632947,3.61542602,0.49877639
2.72909712,0.94719541,-0.69618762

>  <Name>
lig.pdb

>  <RI>
3.17932e+07

>  <Rbt.Current_Directory>
/home/itssahil/PROJECTS/Mol_Feturizer/New_Systems/rnas/2mxs

>  <Rbt.Executable>
rbdock ($Id: //depot/dev/client3/rdock/2013.1/src/exe/rbdock.cxx#4 $)

>  <Rbt.Library>
libRbt.so (2013.1, Build901 2013/11/27)

>  <Rbt.Parameter_File>
/export/apps/rDock/src/rDock_2013.1_src/data/scripts/dock_solv.prm

>  <Rbt.Receptor>
prm/blind_docking_100.prm

>  <SCORE>
150.56

>  <SCORE.INTER>
62.6854

>  <SCORE.INTER.CONST>
1

>  <SCORE.INTER.POLAR>
-3.3197

>  <SCORE.INTER.ROT>
9

>  <SCORE.INTER.SOLV>
35.8852

>  <SCORE.INTER.VDW>
31.2943

>  <SCORE.INTER.norm>
1.49251

>  <SCORE.INTRA>
75.8555

>  <SCORE.INTRA.DIHEDRAL>
17.0995

>  <SCORE.INTRA.DIHEDRAL.0>
30.1357

>  <SCORE.INTRA.POLAR>
-0.615551

>  <SCORE.INTRA.POLAR.0>
-0.631696

>  <SCORE.INTRA.REPUL>
0

>  <SCORE.INTRA.REPUL.0>
0

>  <SCORE.INTRA.SOLV>
3.99044

>  <SCORE.INTRA.SOLV.lig_0>
-55.904

>  <SCORE.INTRA.VDW>
67.4033

>  <SCORE.INTRA.VDW.0>
-8.21197

>  <SCORE.INTRA.norm>
1.80608

>  <SCORE.RESTR>
12.0195

>  <SCORE.RESTR.CAVITY>
12.0195

>  <SCORE.RESTR.norm>
0.286178

>  <SCORE.SYSTEM>
0

>  <SCORE.SYSTEM.CONST>
0

>  <SCORE.SYSTEM.DIHEDRAL>
0

>  <SCORE.SYSTEM.SOLV>
0

>  <SCORE.SYSTEM.norm>
0

>  <SCORE.heavy>
42

>  <SCORE.norm>
3.58477

>  <RMSD>
7.928

$$$$
lig.pdb
 OpenBabel11021811453D
libRbt.so/2013.1/901 2013/11/27
 42 45  0  0  0  0  0  0  0  0999 V2000
    0.0158    2.7441    5.6595 C   0  0  2  0  0  0  0  0  0  0  0  0
   -0.5845    1.7051    6.4350 O   0  0  0  0  0  0  0  0  0  0  0  0
    1.2276    3.3419    6.3902 C   0  0  2  0  0  0  0  0  0  0  0  0
    2.1966    2.2918    6.7546 N   0  0  0  0  0  0  0  0  0  0  0  0
    0.7871    4.1376    7.6257 C   0  0  1  0  0  0  0  0  0  0  0  0
    1.9075    4.7973    8.1835 O   0  0  0  0  0  0  0  0  0  0  0  0
   -0.2749    5.1777    7.2380 C   0  0  2  0  0  0  0  0  0  0  0  0
   -0.7811    5.7892    8.4089 O   0  0  0  0  0  0  0  0  0  0  0  0
   -1.4302    4.5368    6.4424 C   0  0  2  0  0  0  0  0  0  0  0  0
   -0.9367    3.7590    5.3521 O   0  0  0  0  0  0  0  0  0  0  0  0
   -2.3299    5.6680    5.9094 C   0  0  0  0  0  0  0  0  0  0  0  0
   -1.6381    6.5128    4.9513 O   0  0  0  0  0  0  0  0  0  0  0  0
   -3.8343   -0.8847    5.3112 C   0  0  2  0  0  0  0  0  0  0  0  0
   -5.2116   -1.1307    4.8394 N   0  0  0  0  0  0  0  0  0  0  0  0
   -3.8544   -0.1051    6.6284 C   0  0  0  0  0  0  0  0  0  0  0  0
   -2.4397    0.2749    7.0491 C   0  0  2  0  0  0  0  0  0  0  0  0
   -2.4608    0.9352    8.3603 N   0  0  0  0  0  0  0  0  0  0  0  0
   -1.8305    1.1806    5.9536 C   0  0  2  0  0  0  0  0  0  0  0  0
   -1.6619    0.3698    4.7087 C   0  0  2  0  0  0  0  0  0  0  0  0
   -1.0654    1.2048    3.7333 O   0  0  0  0  0  0  0  0  0  0  0  0
   -3.0137   -0.1375    4.2432 C   0  0  1  0  0  0  0  0  0  0  0  0
   -2.9039   -0.9824    3.1132 O   0  0  0  0  0  0  0  0  0  0  0  0
   -1.9279    1.9737    2.9016 C   0  0  1  0  0  0  0  0  0  0  0  0
   -1.1626    3.2242    2.4637 C   0  0  2  0  0  0  0  0  0  0  0  0
   -2.0570    4.3185    2.3902 O   0  0  0  0  0  0  0  0  0  0  0  0
   -0.6111    2.8112    1.0925 C   0  0  2  0  0  0  0  0  0  0  0  0
   -0.2750    3.9300    0.2714 O   0  0  0  0  0  0  0  0  0  0  0  0
   -1.7820    1.9641    0.5793 C   0  0  2  0  0  0  0  0  0  0  0  0
   -2.2283    1.2430    1.7191 O   0  0  0  0  0  0  0  0  0  0  0  0
   -1.4069    0.9682   -0.5244 C   0  0  0  0  0  0  0  0  0  0  0  0
   -0.4470    0.0343   -0.0778 O   0  0  0  0  0  0  0  0  0  0  0  0
    0.6459    4.8452    0.8618 C   0  0  2  0  0  0  0  0  0  0  0  0
    0.2929    6.3032    0.5306 C   0  0  2  0  0  0  0  0  0  0  0  0
   -1.0927    6.6112    0.9220 N   0  0  0  0  0  0  0  0  0  0  0  0
    0.5390    6.6096   -0.9544 C   0  0  1  0  0  0  0  0  0  0  0  0
    0.2807    7.9817   -1.1811 O   0  0  0  0  0  0  0  0  0  0  0  0
    2.0066    6.2850   -1.2812 C   0  0  2  0  0  0  0  0  0  0  0  0
    2.2763    6.5098   -2.6527 O   0  0  0  0  0  0  0  0  0  0  0  0
    2.3502    4.8314   -0.8955 C   0  0  1  0  0  0  0  0  0  0  0  0
    1.9797    4.5470    0.4554 O   0  0  0  0  0  0  0  0  0  0  0  0
    1.7869    3.7921   -1.8759 C   0  0  0  0  0  0  0  0  0  0  0  0
    1.9915    2.4214   -1.3803 N   0  0  0  0  0  0  0  0  0  0  0  0
  1  3  1  0  0  0  0
  1  2  1  1  0  0  0
  3  4  1  1  0  0  0
  5  6  1  6  0  0  0
  5  3  1  0  0  0  0
  7  9  1  0  0  0  0
  7  5  1  0  0  0  0
  7  8  1  1  0  0  0
  9 10  1  0  0  0  0
  9 11  1  6  0  0  0
 10  1  1  0  0  0  0
 11 12  1  0  0  0  0
 13 14  1  6  0  0  0
 13 21  1  0  0  0  0
 15 13  1  0  0  0  0
 16 15  1  0  0  0  0
 16 18  1  0  0  0  0
 16 17  1  1  0  0  0
 18  2  1  1  0  0  0
 18 19  1  0  0  0  0
 19 21  1  0  0  0  0
 19 20  1  6  0  0  0
 21 22  1  6  0  0  0
 23 20  1  1  0  0  0
 23 29  1  0  0  0  0
 23 24  1  0  0  0  0
 24 26  1  0  0  0  0
 24 25  1  6  0  0  0
 26 27  1  6  0  0  0
 28 26  1  0  0  0  0
 28 30  1  6  0  0  0
 29 28  1  0  0  0  0
 30 31  1  0  0  0  0
 32 27  1  6  0  0  0
 32 40  1  0  0  0  0
 32 33  1  0  0  0  0
 33 35  1  0  0  0  0
 33 34  1  6  0  0  0
 35 37  1  0  0  0  0
 35 36  1  1  0  0  0
 37 38  1  6  0  0  0
 39 37  1  0  0  0  0
 39 41  1  6  0  0  0
 40 39  1  0  0  0  0
 42 41  1  0  0  0  0
M  END
>  <CHROM.1>
-169.51385999,171.97160323,163.18264430,-173.58330927,-56.79158131,178.23379353
64.75415435,-61.99310700,-48.96817650,-88.97426177,152.52433154,-64.76572735
-54.86369322,55.71346192,-141.30380597,60.90837082,179.70866579,-111.75159075
-63.16052831,65.48807578,-172.80780676,-173.05296569,-0.68822635,3.16709267
3.24601140,-2.29226373,-1.05529081,-1.77665245

>  <Name>
lig.pdb

>  <RI>
224

>  <Rbt.Current_Directory>
/home/itssahil/PROJECTS/Mol_Feturizer/New_Systems/rnas/2mxs

>  <Rbt.Executable>
rbdock ($Id: //depot/dev/client3/rdock/2013.1/src/exe/rbdock.cxx#4 $)

>  <Rbt.Library>
libRbt.so (2013.1, Build901 2013/11/27)

>  <Rbt.Parameter_File>
/export/apps/rDock/src/rDock_2013.1_src/data/scripts/dock_solv.prm

>  <Rbt.Receptor>
prm/pocket_docking_2.prm

>  <SCORE>
-22.1492

>  <SCORE.INTER>
-24.8776

>  <SCORE.INTER.CONST>
1

>  <SCORE.INTER.POLAR>
-3.35323

>  <SCORE.INTER.ROT>
9

>  <SCORE.INTER.SOLV>
13.2901

>  <SCORE.INTER.VDW>
-19.4377

>  <SCORE.INTER.norm>
-0.592323

>  <SCORE.INTRA>
-2.4039

>  <SCORE.INTRA.DIHEDRAL>
-11.3341

>  <SCORE.INTRA.DIHEDRAL.0>
30.1357

>  <SCORE.INTRA.POLAR>
-0.412161

>  <SCORE.INTRA.POLAR.0>
-0.631696

>  <SCORE.INTRA.REPUL>
0

>  <SCORE.INTRA.REPUL.0>
0

>  <SCORE.INTRA.SOLV>
1.94373

>  <SCORE.INTRA.SOLV.lig_0>
-55.904

>  <SCORE.INTRA.VDW>
3.69261

>  <SCORE.INTRA.VDW.0>
-8.21197

>  <SCORE.INTRA.norm>
-0.0572358

>  <SCORE.RESTR>
5.13232

>  <SCORE.RESTR.CAVITY>
5.13232

>  <SCORE.RESTR.norm>
0.122198

>  <SCORE.SYSTEM>
0

>  <SCORE.SYSTEM.CONST>
0

>  <SCORE.SYSTEM.DIHEDRAL>
0

>  <SCORE.SYSTEM.SOLV>
0

>  <SCORE.SYSTEM.norm>
0

>  <SCORE.heavy>
42

>  <SCORE.norm>
-0.527361

>  <RMSD>
7.928

$$$$
lig.pdb
 OpenBabel11021811453D
libRbt.so/2013.1/901 2013/11/27
 42 45  0  0  0  0  0  0  0  0999 V2000
   -2.9549    4.1843    1.5884 C   0  0  2  0  0  0  0  0  0  0  0  0
   -3.5111    4.4967    2.8669 O   0  0  0  0  0  0  0  0  0  0  0  0
   -4.0505    3.7347    0.6101 C   0  0  2  0  0  0  0  0  0  0  0  0
   -5.1226    4.7428    0.5168 N   0  0  0  0  0  0  0  0  0  0  0  0
   -4.6153    2.3651    1.0086 C   0  0  1  0  0  0  0  0  0  0  0  0
   -5.5072    1.9153    0.0066 O   0  0  0  0  0  0  0  0  0  0  0  0
   -3.4768    1.3467    1.1709 C   0  0  2  0  0  0  0  0  0  0  0  0
   -3.9992    0.1387    1.6898 O   0  0  0  0  0  0  0  0  0  0  0  0
   -2.3699    1.8798    2.1030 C   0  0  2  0  0  0  0  0  0  0  0  0
   -1.9462    3.1842    1.7077 O   0  0  0  0  0  0  0  0  0  0  0  0
   -1.1792    0.9044    2.0392 C   0  0  0  0  0  0  0  0  0  0  0  0
   -0.9349    0.4258    0.6896 O   0  0  0  0  0  0  0  0  0  0  0  0
   -1.9773    7.0736    5.9552 C   0  0  2  0  0  0  0  0  0  0  0  0
   -0.8964    7.5749    6.8274 N   0  0  0  0  0  0  0  0  0  0  0  0
   -2.2143    5.5822    6.2055 C   0  0  0  0  0  0  0  0  0  0  0  0
   -3.2283    5.0257    5.2130 C   0  0  2  0  0  0  0  0  0  0  0  0
   -3.5223    3.6209    5.5226 N   0  0  0  0  0  0  0  0  0  0  0  0
   -2.6601    5.1980    3.7851 C   0  0  2  0  0  0  0  0  0  0  0  0
   -2.5794    6.6597    3.4809 C   0  0  2  0  0  0  0  0  0  0  0  0
   -2.0972    6.7939    2.1565 O   0  0  0  0  0  0  0  0  0  0  0  0
   -1.6526    7.3369    4.4727 C   0  0  1  0  0  0  0  0  0  0  0  0
   -1.6042    8.7386    4.2834 O   0  0  0  0  0  0  0  0  0  0  0  0
   -0.6907    6.9143    1.9719 C   0  0  1  0  0  0  0  0  0  0  0  0
   -0.0750    5.5250    2.1513 C   0  0  2  0  0  0  0  0  0  0  0  0
    1.1869    5.6498    2.7797 O   0  0  0  0  0  0  0  0  0  0  0  0
    0.0255    5.0188    0.7061 C   0  0  2  0  0  0  0  0  0  0  0  0
    0.9857    3.9733    0.5515 O   0  0  0  0  0  0  0  0  0  0  0  0
    0.3779    6.3283   -0.0103 C   0  0  2  0  0  0  0  0  0  0  0  0
   -0.4163    7.3138    0.6351 O   0  0  0  0  0  0  0  0  0  0  0  0
    0.0587    6.3352   -1.5098 C   0  0  0  0  0  0  0  0  0  0  0  0
   -1.0785    5.5518   -1.8031 O   0  0  0  0  0  0  0  0  0  0  0  0
    0.8677    3.2325   -0.6615 C   0  0  2  0  0  0  0  0  0  0  0  0
    1.8032    2.0141   -0.6793 C   0  0  2  0  0  0  0  0  0  0  0  0
    1.5734    1.1569    0.4956 N   0  0  0  0  0  0  0  0  0  0  0  0
    3.2739    2.4458   -0.7814 C   0  0  1  0  0  0  0  0  0  0  0  0
    4.0788    1.2869   -0.8807 O   0  0  0  0  0  0  0  0  0  0  0  0
    3.4391    3.3159   -2.0390 C   0  0  2  0  0  0  0  0  0  0  0  0
    4.7722    3.7776   -2.1575 O   0  0  0  0  0  0  0  0  0  0  0  0
    2.4565    4.5049   -2.0215 C   0  0  1  0  0  0  0  0  0  0  0  0
    1.1146    4.0714   -1.7877 O   0  0  0  0  0  0  0  0  0  0  0  0
    2.8737    5.6252   -1.0573 C   0  0  0  0  0  0  0  0  0  0  0  0
    3.1336    6.8827   -1.7767 N   0  0  0  0  0  0  0  0  0  0  0  0
  1  3  1  0  0  0  0
  1  2  1  1  0  0  0
  3  4  1  1  0  0  0
  5  6  1  6  0  0  0
  5  3  1  0  0  0  0
  7  9  1  0  0  0  0
  7  5  1  0  0  0  0
  7  8  1  1  0  0  0
  9 10  1  0  0  0  0
  9 11  1  6  0  0  0
 10  1  1  0  0  0  0
 11 12  1  0  0  0  0
 13 14  1  1  0  0  0
 13 21  1  0  0  0  0
 15 13  1  0  0  0  0
 16 15  1  0  0  0  0
 16 18  1  0  0  0  0
 16 17  1  1  0  0  0
 18  2  1  6  0  0  0
 18 19  1  0  0  0  0
 19 21  1  0  0  0  0
 19 20  1  6  0  0  0
 21 22  1  1  0  0  0
 23 20  1  6  0  0  0
 23 29  1  0  0  0  0
 23 24  1  0  0  0  0
 24 26  1  0  0  0  0
 24 25  1  6  0  0  0
 26 27  1  1  0  0  0
 28 26  1  0  0  0  0
 28 30  1  6  0  0  0
 29 28  1  0  0  0  0
 30 31  1  0  0  0  0
 32 27  1  1  0  0  0
 32 40  1  0  0  0  0
 32 33  1  0  0  0  0
 33 35  1  0  0  0  0
 33 34  1  1  0  0  0
 35 37  1  0  0  0  0
 35 36  1  6  0  0  0
 37 38  1  1  0  0  0
 39 37  1  0  0  0  0
 39 41  1  1  0  0  0
 40 39  1  0  0  0  0
 42 41  1  0  0  0  0
M  END
>  <CHROM.1>
-161.19941240,-167.01310446,-52.31398573,-166.88542569,165.90641275,-60.16723449
40.24147323,-51.42144636,70.38632265,-91.49462272,76.20115335,64.63118608
78.02500693,163.96001274,-172.44529862,32.52017895,56.99911846,-169.76217838
58.08436846,55.32953381,117.59723002,86.76564968,-0.75926295,4.35777853,1.32158713
2.56198340,0.55198330,0.59847014

>  <Name>
lig.pdb

>  <RI>
3.31443e+07

>  <Rbt.Current_Directory>
/home/itssahil/PROJECTS/Mol_Feturizer/New_Systems/rnas/2mxs

>  <Rbt.Executable>
rbdock ($Id: //depot/dev/client3/rdock/2013.1/src/exe/rbdock.cxx#4 $)

>  <Rbt.Library>
libRbt.so (2013.1, Build901 2013/11/27)

>  <Rbt.Parameter_File>
/export/apps/rDock/src/rDock_2013.1_src/data/scripts/dock_solv.prm

>  <Rbt.Receptor>
prm/blind_docking_40.prm

>  <SCORE>
48.0115

>  <SCORE.INTER>
7.42671

>  <SCORE.INTER.CONST>
1

>  <SCORE.INTER.POLAR>
-3.00043

>  <SCORE.INTER.ROT>
9

>  <SCORE.INTER.SOLV>
29.5111

>  <SCORE.INTER.VDW>
-4.48447

>  <SCORE.INTER.norm>
0.176826

>  <SCORE.INTRA>
7.05392

>  <SCORE.INTRA.DIHEDRAL>
-5.99981

>  <SCORE.INTRA.DIHEDRAL.0>
30.1357

>  <SCORE.INTRA.POLAR>
-0.431868

>  <SCORE.INTRA.POLAR.0>
-0.631696

>  <SCORE.INTRA.REPUL>
0

>  <SCORE.INTRA.REPUL.0>
0

>  <SCORE.INTRA.SOLV>
3.19381

>  <SCORE.INTRA.SOLV.lig_0>
-55.904

>  <SCORE.INTRA.VDW>
9.92528

>  <SCORE.INTRA.VDW.0>
-8.21197

>  <SCORE.INTRA.norm>
0.167951

>  <SCORE.RESTR>
33.5309

>  <SCORE.RESTR.CAVITY>
33.5309

>  <SCORE.RESTR.norm>
0.798354

>  <SCORE.SYSTEM>
0

>  <SCORE.SYSTEM.CONST>
0

>  <SCORE.SYSTEM.DIHEDRAL>
0

>  <SCORE.SYSTEM.SOLV>
0

>  <SCORE.SYSTEM.norm>
0

>  <SCORE.heavy>
42

>  <SCORE.norm>
1.14313

>  <RMSD>
7.937

$$$$
lig.pdb
 OpenBabel11021811453D
libRbt.so/2013.1/901 2013/11/27
 42 45  0  0  0  0  0  0  0  0999 V2000
   -3.2781    4.0519    0.6779 C   0  0  2  0  0  0  0  0  0  0  0  0
   -3.8782    4.8931    1.6647 O   0  0  0  0  0  0  0  0  0  0  0  0
   -4.0324    2.7186    0.5636 C   0  0  2  0  0  0  0  0  0  0  0  0
   -5.4664    2.9425    0.3033 N   0  0  0  0  0  0  0  0  0  0  0  0
   -3.8278    1.8617    1.8196 C   0  0  1  0  0  0  0  0  0  0  0  0
   -4.4060    0.5864    1.6174 O   0  0  0  0  0  0  0  0  0  0  0  0
   -2.3290    1.6999    2.1150 C   0  0  2  0  0  0  0  0  0  0  0  0
   -2.1647    1.0445    3.3580 O   0  0  0  0  0  0  0  0  0  0  0  0
   -1.6080    3.0628    2.1440 C   0  0  2  0  0  0  0  0  0  0  0  0
   -1.9023    3.8273    0.9753 O   0  0  0  0  0  0  0  0  0  0  0  0
   -0.0921    2.8009    2.2264 C   0  0  0  0  0  0  0  0  0  0  0  0
    0.2764    2.0933    3.4404 O   0  0  0  0  0  0  0  0  0  0  0  0
   -2.4438    6.4304    5.4210 C   0  0  2  0  0  0  0  0  0  0  0  0
   -1.4498    6.5136    6.5097 N   0  0  0  0  0  0  0  0  0  0  0  0
   -2.9767    5.0009    5.2954 C   0  0  0  0  0  0  0  0  0  0  0  0
   -3.8958    4.8749    4.0861 C   0  0  2  0  0  0  0  0  0  0  0  0
   -4.4786    3.5284    4.0305 N   0  0  0  0  0  0  0  0  0  0  0  0
   -3.0797    5.2064    2.8151 C   0  0  2  0  0  0  0  0  0  0  0  0
   -2.6949    6.6504    2.8628 C   0  0  2  0  0  0  0  0  0  0  0  0
   -1.9860    6.9426    1.6726 O   0  0  0  0  0  0  0  0  0  0  0  0
   -1.8392    6.9102    4.0881 C   0  0  1  0  0  0  0  0  0  0  0  0
   -1.5151    8.2807    4.2292 O   0  0  0  0  0  0  0  0  0  0  0  0
   -0.5683    7.0455    1.7535 C   0  0  1  0  0  0  0  0  0  0  0  0
    0.0017    5.6262    1.7981 C   0  0  2  0  0  0  0  0  0  0  0  0
    1.1358    5.6037    2.6444 O   0  0  0  0  0  0  0  0  0  0  0  0
    0.3497    5.3633    0.3268 C   0  0  2  0  0  0  0  0  0  0  0  0
    1.3183    4.3269    0.1640 O   0  0  0  0  0  0  0  0  0  0  0  0
    0.8260    6.7610   -0.0875 C   0  0  2  0  0  0  0  0  0  0  0  0
   -0.0645    7.6517    0.5699 O   0  0  0  0  0  0  0  0  0  0  0  0
    0.7720    7.0267   -1.5965 C   0  0  0  0  0  0  0  0  0  0  0  0
    1.3594    8.2670   -1.9275 O   0  0  0  0  0  0  0  0  0  0  0  0
    1.1953    3.5833   -1.0468 C   0  0  2  0  0  0  0  0  0  0  0  0
    2.0407    2.3009   -1.0173 C   0  0  2  0  0  0  0  0  0  0  0  0
    1.7036    1.4751    0.1542 N   0  0  0  0  0  0  0  0  0  0  0  0
    3.5415    2.6251   -1.0636 C   0  0  1  0  0  0  0  0  0  0  0  0
    4.2642    1.4106   -1.1213 O   0  0  0  0  0  0  0  0  0  0  0  0
    3.8185    3.4675   -2.3205 C   0  0  2  0  0  0  0  0  0  0  0  0
    5.1850    3.8313   -2.3890 O   0  0  0  0  0  0  0  0  0  0  0  0
    2.9241    4.7239   -2.3519 C   0  0  1  0  0  0  0  0  0  0  0  0
    1.5463    4.3901   -2.1688 O   0  0  0  0  0  0  0  0  0  0  0  0
    3.3823    5.8219   -1.3807 C   0  0  0  0  0  0  0  0  0  0  0  0
    4.6500    6.4290   -1.8173 N   0  0  0  0  0  0  0  0  0  0  0  0
  1  3  1  0  0  0  0
  1  2  1  1  0  0  0
  3  4  1  1  0  0  0
  5  6  1  6  0  0  0
  5  3  1  0  0  0  0
  7  9  1  0  0  0  0
  7  5  1  0  0  0  0
  7  8  1  1  0  0  0
  9 10  1  0  0  0  0
  9 11  1  6  0  0  0
 10  1  1  0  0  0  0
 11 12  1  0  0  0  0
 13 14  1  1  0  0  0
 13 21  1  0  0  0  0
 15 13  1  0  0  0  0
 16 15  1  0  0  0  0
 16 18  1  0  0  0  0
 16 17  1  6  0  0  0
 18  2  1  6  0  0  0
 18 19  1  0  0  0  0
 19 21  1  0  0  0  0
 19 20  1  6  0  0  0
 21 22  1  1  0  0  0
 23 20  1  6  0  0  0
 23 29  1  0  0  0  0
 23 24  1  0  0  0  0
 24 26  1  0  0  0  0
 24 25  1  1  0  0  0
 26 27  1  1  0  0  0
 28 26  1  0  0  0  0
 28 30  1  6  0  0  0
 29 28  1  0  0  0  0
 30 31  1  0  0  0  0
 32 27  1  1  0  0  0
 32 40  1  0  0  0  0
 32 33  1  0  0  0  0
 33 35  1  0  0  0  0
 33 34  1  1  0  0  0
 35 37  1  0  0  0  0
 35 36  1  6  0  0  0
 37 38  1  1  0  0  0
 39 37  1  0  0  0  0
 39 41  1  1  0  0  0
 40 39  1  0  0  0  0
 42 41  1  0  0  0  0
M  END
>  <CHROM.1>
-127.88144435,115.73004604,129.80479153,-58.50122330,-176.84325976,170.92617308
-61.99237521,60.75837011,-58.59846212,-102.84281275,78.24314028,-52.05038720
76.99495544,149.52379106,-166.95583886,-173.41996099,-156.06751428,55.45199807
178.78051021,63.64103319,69.33097972,68.10179398,-0.43959884,4.49878671,1.17472695
2.96424516,0.62936268,0.31161242

>  <Name>
lig.pdb

>  <RI>
3.31443e+07

>  <Rbt.Current_Directory>
/home/itssahil/PROJECTS/Mol_Feturizer/New_Systems/rnas/2mxs

>  <Rbt.Executable>
rbdock ($Id: //depot/dev/client3/rdock/2013.1/src/exe/rbdock.cxx#4 $)

>  <Rbt.Library>
libRbt.so (2013.1, Build901 2013/11/27)

>  <Rbt.Parameter_File>
/export/apps/rDock/src/rDock_2013.1_src/data/scripts/dock_solv.prm

>  <Rbt.Receptor>
prm/blind_docking_40.prm

>  <SCORE>
36.1419

>  <SCORE.INTER>
-6.2001

>  <SCORE.INTER.CONST>
1

>  <SCORE.INTER.POLAR>
-3.10053

>  <SCORE.INTER.ROT>
9

>  <SCORE.INTER.SOLV>
27.4412

>  <SCORE.INTER.VDW>
-12.5454

>  <SCORE.INTER.norm>
-0.147621

>  <SCORE.INTRA>
12.465

>  <SCORE.INTRA.DIHEDRAL>
4.94842

>  <SCORE.INTRA.DIHEDRAL.0>
30.1357

>  <SCORE.INTRA.POLAR>
-0.844857

>  <SCORE.INTRA.POLAR.0>
-0.631696

>  <SCORE.INTRA.REPUL>
0

>  <SCORE.INTRA.REPUL.0>
0

>  <SCORE.INTRA.SOLV>
4.24677

>  <SCORE.INTRA.SOLV.lig_0>
-55.904

>  <SCORE.INTRA.VDW>
10.7399

>  <SCORE.INTRA.VDW.0>
-8.21197

>  <SCORE.INTRA.norm>
0.296786

>  <SCORE.RESTR>
29.877

>  <SCORE.RESTR.CAVITY>
29.877

>  <SCORE.RESTR.norm>
0.711358

>  <SCORE.SYSTEM>
0

>  <SCORE.SYSTEM.CONST>
0

>  <SCORE.SYSTEM.DIHEDRAL>
0

>  <SCORE.SYSTEM.SOLV>
0

>  <SCORE.SYSTEM.norm>
0

>  <SCORE.heavy>
42

>  <SCORE.norm>
0.860523

>  <RMSD>
7.942

$$$$
lig.pdb
 OpenBabel11021811453D
libRbt.so/2013.1/901 2013/11/27
 42 45  0  0  0  0  0  0  0  0999 V2000
   -2.3557    4.7030    5.0687 C   0  0  2  0  0  0  0  0  0  0  0  0
   -2.3626    5.5670    3.9307 O   0  0  0  0  0  0  0  0  0  0  0  0
   -3.4298    5.1249    6.0825 C   0  0  2  0  0  0  0  0  0  0  0  0
   -4.7588    5.1941    5.4473 N   0  0  0  0  0  0  0  0  0  0  0  0
   -3.0661    6.4595    6.7458 C   0  0  1  0  0  0  0  0  0  0  0  0
   -3.9931    6.7395    7.7772 O   0  0  0  0  0  0  0  0  0  0  0  0
   -1.6506    6.3908    7.3386 C   0  0  2  0  0  0  0  0  0  0  0  0
   -1.2744    7.6730    7.8031 O   0  0  0  0  0  0  0  0  0  0  0  0
   -0.6262    5.8904    6.3001 C   0  0  2  0  0  0  0  0  0  0  0  0
   -1.0679    4.6834    5.6795 O   0  0  0  0  0  0  0  0  0  0  0  0
    0.7100    5.6435    7.0259 C   0  0  0  0  0  0  0  0  0  0  0  0
    1.8540    5.8696    6.1595 O   0  0  0  0  0  0  0  0  0  0  0  0
   -0.5698    5.0800    0.0474 C   0  0  2  0  0  0  0  0  0  0  0  0
    0.5223    4.6477   -0.8474 N   0  0  0  0  0  0  0  0  0  0  0  0
   -0.0635    6.1361    1.0330 C   0  0  0  0  0  0  0  0  0  0  0  0
   -1.1446    6.4841    2.0493 C   0  0  2  0  0  0  0  0  0  0  0  0
   -0.6847    7.5668    2.9281 N   0  0  0  0  0  0  0  0  0  0  0  0
   -1.4999    5.2050    2.8425 C   0  0  2  0  0  0  0  0  0  0  0  0
   -2.1434    4.2317    1.9076 C   0  0  2  0  0  0  0  0  0  0  0  0
   -2.4980    3.0868    2.6613 O   0  0  0  0  0  0  0  0  0  0  0  0
   -1.1755    3.8770    0.7947 C   0  0  1  0  0  0  0  0  0  0  0  0
   -1.7626    3.0215   -0.1678 O   0  0  0  0  0  0  0  0  0  0  0  0
   -3.8812    2.7689    2.7732 C   0  0  1  0  0  0  0  0  0  0  0  0
   -4.1294    1.4787    1.9888 C   0  0  2  0  0  0  0  0  0  0  0  0
   -5.4035    1.5412    1.3760 O   0  0  0  0  0  0  0  0  0  0  0  0
   -4.0452    0.4055    3.0826 C   0  0  2  0  0  0  0  0  0  0  0  0
   -4.7016   -0.8089    2.7178 O   0  0  0  0  0  0  0  0  0  0  0  0
   -4.6928    1.1628    4.2484 C   0  0  2  0  0  0  0  0  0  0  0  0
   -4.1994    2.4899    4.1308 O   0  0  0  0  0  0  0  0  0  0  0  0
   -4.3316    0.6184    5.6354 C   0  0  0  0  0  0  0  0  0  0  0  0
   -5.1943   -0.4296    6.0235 O   0  0  0  0  0  0  0  0  0  0  0  0
   -4.5317   -1.8784    3.6459 C   0  0  2  0  0  0  0  0  0  0  0  0
   -3.3303   -2.7642    3.2821 C   0  0  2  0  0  0  0  0  0  0  0  0
   -2.1021   -1.9611    3.1605 N   0  0  0  0  0  0  0  0  0  0  0  0
   -3.6033   -3.5712    2.0039 C   0  0  1  0  0  0  0  0  0  0  0  0
   -2.5032   -4.4282    1.7674 O   0  0  0  0  0  0  0  0  0  0  0  0
   -4.8836   -4.3972    2.2146 C   0  0  2  0  0  0  0  0  0  0  0  0
   -5.2055   -5.1296    1.0465 O   0  0  0  0  0  0  0  0  0  0  0  0
   -6.0636   -3.4927    2.6259 C   0  0  1  0  0  0  0  0  0  0  0  0
   -5.7217   -2.6588    3.7354 O   0  0  0  0  0  0  0  0  0  0  0  0
   -6.6461   -2.6833    1.4579 C   0  0  0  0  0  0  0  0  0  0  0  0
   -5.5813   -2.0867    0.6353 N   0  0  0  0  0  0  0  0  0  0  0  0
  1  3  1  0  0  0  0
  1  2  1  6  0  0  0
  3  4  1  6  0  0  0
  5  6  1  1  0  0  0
  5  3  1  0  0  0  0
  7  9  1  0  0  0  0
  7  5  1  0  0  0  0
  7  8  1  6  0  0  0
  9 10  1  0  0  0  0
  9 11  1  1  0  0  0
 10  1  1  0  0  0  0
 11 12  1  0  0  0  0
 13 14  1  1  0  0  0
 13 21  1  0  0  0  0
 15 13  1  0  0  0  0
 16 15  1  0  0  0  0
 16 18  1  0  0  0  0
 16 17  1  1  0  0  0
 18  2  1  1  0  0  0
 18 19  1  0  0  0  0
 19 21  1  0  0  0  0
 19 20  1  1  0  0  0
 21 22  1  6  0  0  0
 23 20  1  1  0  0  0
 23 29  1  0  0  0  0
 23 24  1  0  0  0  0
 24 26  1  0  0  0  0
 24 25  1  1  0  0  0
 26 27  1  6  0  0  0
 28 26  1  0  0  0  0
 28 30  1  1  0  0  0
 29 28  1  0  0  0  0
 30 31  1  0  0  0  0
 32 27  1  6  0  0  0
 32 40  1  0  0  0  0
 32 33  1  0  0  0  0
 33 35  1  0  0  0  0
 33 34  1  6  0  0  0
 35 37  1  0  0  0  0
 35 36  1  1  0  0  0
 37 38  1  6  0  0  0
 39 37  1  0  0  0  0
 39 41  1  6  0  0  0
 40 39  1  0  0  0  0
 42 41  1  0  0  0  0
M  END
>  <CHROM.1>
-154.49644698,-173.84989213,165.87027475,59.85334668,-57.20361943,-54.73274750
-149.30768707,81.61550964,140.65698770,116.30973863,111.38883531,-58.21586077
-35.30700667,173.89117413,-92.48175838,-86.50424431,-179.23480370,170.89178319
-65.37432684,66.05002514,-44.56884992,-57.35230361,-2.94080395,2.21944090
3.47528238,0.86673021,1.00087885,0.91001992

>  <Name>
lig.pdb

>  <RI>
0

>  <Rbt.Current_Directory>
/home/itssahil/PROJECTS/Mol_Feturizer/New_Systems/rnas/2mxs

>  <Rbt.Executable>
rbdock ($Id: //depot/dev/client3/rdock/2013.1/src/exe/rbdock.cxx#4 $)

>  <Rbt.Library>
libRbt.so (2013.1, Build901 2013/11/27)

>  <Rbt.Parameter_File>
/export/apps/rDock/src/rDock_2013.1_src/data/scripts/dock_solv.prm

>  <Rbt.Receptor>
prm/pocket_docking_6.prm

>  <SCORE>
-30.6419

>  <SCORE.INTER>
-31.4573

>  <SCORE.INTER.CONST>
1

>  <SCORE.INTER.POLAR>
-5.57755

>  <SCORE.INTER.ROT>
9

>  <SCORE.INTER.SOLV>
13.9152

>  <SCORE.INTER.VDW>
-16.6181

>  <SCORE.INTER.norm>
-0.748983

>  <SCORE.INTRA>
0.80443

>  <SCORE.INTRA.DIHEDRAL>
4.78422

>  <SCORE.INTRA.DIHEDRAL.0>
30.1357

>  <SCORE.INTRA.POLAR>
-1.35845

>  <SCORE.INTRA.POLAR.0>
-0.631696

>  <SCORE.INTRA.REPUL>
0.00948419

>  <SCORE.INTRA.REPUL.0>
0

>  <SCORE.INTRA.SOLV>
0.692317

>  <SCORE.INTRA.SOLV.lig_0>
-55.904

>  <SCORE.INTRA.VDW>
2.63746

>  <SCORE.INTRA.VDW.0>
-8.21197

>  <SCORE.INTRA.norm>
0.0191531

>  <SCORE.RESTR>
0.0109672

>  <SCORE.RESTR.CAVITY>
0.0109672

>  <SCORE.RESTR.norm>
0.000261123

>  <SCORE.SYSTEM>
0

>  <SCORE.SYSTEM.CONST>
0

>  <SCORE.SYSTEM.DIHEDRAL>
0

>  <SCORE.SYSTEM.SOLV>
0

>  <SCORE.SYSTEM.norm>
0

>  <SCORE.heavy>
42

>  <SCORE.norm>
-0.729569

>  <RMSD>
7.945

$$$$
lig.pdb
 OpenBabel11021811453D
libRbt.so/2013.1/901 2013/11/27
 42 45  0  0  0  0  0  0  0  0999 V2000
   -2.1092    6.3736    4.9275 C   0  0  2  0  0  0  0  0  0  0  0  0
   -1.9017    6.7209    3.5572 O   0  0  0  0  0  0  0  0  0  0  0  0
   -1.4673    7.4130    5.8588 C   0  0  2  0  0  0  0  0  0  0  0  0
   -1.9537    8.7707    5.5513 N   0  0  0  0  0  0  0  0  0  0  0  0
    0.0636    7.3465    5.7849 C   0  0  1  0  0  0  0  0  0  0  0  0
    0.6187    8.2058    6.7622 O   0  0  0  0  0  0  0  0  0  0  0  0
    0.5465    5.9102    6.0369 C   0  0  2  0  0  0  0  0  0  0  0  0
    1.9409    5.8380    5.8090 O   0  0  0  0  0  0  0  0  0  0  0  0
   -0.1839    4.9004    5.1285 C   0  0  2  0  0  0  0  0  0  0  0  0
   -1.5991    5.0709    5.2008 O   0  0  0  0  0  0  0  0  0  0  0  0
    0.1934    3.4801    5.5908 C   0  0  0  0  0  0  0  0  0  0  0  0
   -0.1393    2.4741    4.5970 O   0  0  0  0  0  0  0  0  0  0  0  0
   -3.0380    3.0590    1.6003 C   0  0  2  0  0  0  0  0  0  0  0  0
   -3.3405    2.2528    0.4008 N   0  0  0  0  0  0  0  0  0  0  0  0
   -4.0050    4.2410    1.7045 C   0  0  0  0  0  0  0  0  0  0  0  0
   -3.6123    5.1558    2.8586 C   0  0  2  0  0  0  0  0  0  0  0  0
   -4.6003    6.2310    3.0119 N   0  0  0  0  0  0  0  0  0  0  0  0
   -2.1936    5.7068    2.5848 C   0  0  2  0  0  0  0  0  0  0  0  0
   -1.2247    4.5695    2.6426 C   0  0  2  0  0  0  0  0  0  0  0  0
    0.0704    5.1011    2.4312 O   0  0  0  0  0  0  0  0  0  0  0  0
   -1.5766    3.5450    1.5805 C   0  0  1  0  0  0  0  0  0  0  0  0
   -0.7410    2.4045    1.6447 O   0  0  0  0  0  0  0  0  0  0  0  0
    0.1821    6.2812    1.6428 C   0  0  1  0  0  0  0  0  0  0  0  0
    1.5403    6.2462    0.9387 C   0  0  2  0  0  0  0  0  0  0  0  0
    2.0587    7.5604    0.8562 O   0  0  0  0  0  0  0  0  0  0  0  0
    1.1863    5.6572   -0.4334 C   0  0  2  0  0  0  0  0  0  0  0  0
    2.1603    5.9590   -1.4330 O   0  0  0  0  0  0  0  0  0  0  0  0
   -0.1861    6.3049   -0.6547 C   0  0  2  0  0  0  0  0  0  0  0  0
   -0.8080    6.2699    0.6222 O   0  0  0  0  0  0  0  0  0  0  0  0
   -1.0775    5.5705   -1.6630 C   0  0  0  0  0  0  0  0  0  0  0  0
   -0.4745    5.5031   -2.9377 O   0  0  0  0  0  0  0  0  0  0  0  0
    2.2782    4.9794   -2.4629 C   0  0  2  0  0  0  0  0  0  0  0  0
    2.5004    3.5718   -1.8888 C   0  0  2  0  0  0  0  0  0  0  0  0
    1.4365    3.2188   -0.9341 N   0  0  0  0  0  0  0  0  0  0  0  0
    3.8924    3.4465   -1.2512 C   0  0  1  0  0  0  0  0  0  0  0  0
    4.0726    2.1117   -0.8193 O   0  0  0  0  0  0  0  0  0  0  0  0
    4.9470    3.8082   -2.3109 C   0  0  2  0  0  0  0  0  0  0  0  0
    6.2504    3.7502   -1.7611 O   0  0  0  0  0  0  0  0  0  0  0  0
    4.6751    5.2048   -2.9070 C   0  0  1  0  0  0  0  0  0  0  0  0
    3.3265    5.3244   -3.3657 O   0  0  0  0  0  0  0  0  0  0  0  0
    5.0654    6.3546   -1.9666 C   0  0  0  0  0  0  0  0  0  0  0  0
    4.1882    7.5216   -2.1538 N   0  0  0  0  0  0  0  0  0  0  0  0
  1  3  1  0  0  0  0
  1  2  1  6  0  0  0
  3  4  1  6  0  0  0
  5  6  1  1  0  0  0
  5  3  1  0  0  0  0
  7  9  1  0  0  0  0
  7  5  1  0  0  0  0
  7  8  1  6  0  0  0
  9 10  1  0  0  0  0
  9 11  1  1  0  0  0
 10  1  1  0  0  0  0
 11 12  1  0  0  0  0
 13 14  1  6  0  0  0
 13 21  1  0  0  0  0
 15 13  1  0  0  0  0
 16 15  1  0  0  0  0
 16 18  1  0  0  0  0
 16 17  1  6  0  0  0
 18  2  1  1  0  0  0
 18 19  1  0  0  0  0
 19 21  1  0  0  0  0
 19 20  1  6  0  0  0
 21 22  1  1  0  0  0
 23 20  1  1  0  0  0
 23 29  1  0  0  0  0
 23 24  1  0  0  0  0
 24 26  1  0  0  0  0
 24 25  1  6  0  0  0
 26 27  1  6  0  0  0
 28 26  1  0  0  0  0
 28 30  1  6  0  0  0
 29 28  1  0  0  0  0
 30 31  1  0  0  0  0
 32 27  1  1  0  0  0
 32 40  1  0  0  0  0
 32 33  1  0  0  0  0
 33 35  1  0  0  0  0
 33 34  1  1  0  0  0
 35 37  1  0  0  0  0
 35 36  1  6  0  0  0
 37 38  1  1  0  0  0
 39 37  1  0  0  0  0
 39 41  1  1  0  0  0
 40 39  1  0  0  0  0
 42 41  1  0  0  0  0
M  END
>  <CHROM.1>
51.06004535,167.15289120,-38.05244453,53.21028090,58.45274624,-62.65525147
-164.34122702,-45.04087871,-75.70327611,-28.51846772,-149.99707885,75.46901688
-133.20929170,150.40887778,-52.70325252,-59.94168926,78.44842435,37.37578518
52.34500054,60.93510250,-148.31534032,59.32756306,0.41769307,5.22292287,1.43277193
-2.25021163,-0.29198484,-1.96531335

>  <Name>
lig.pdb

>  <RI>
3.31443e+07

>  <Rbt.Current_Directory>
/home/itssahil/PROJECTS/Mol_Feturizer/New_Systems/rnas/2mxs

>  <Rbt.Executable>
rbdock ($Id: //depot/dev/client3/rdock/2013.1/src/exe/rbdock.cxx#4 $)

>  <Rbt.Library>
libRbt.so (2013.1, Build901 2013/11/27)

>  <Rbt.Parameter_File>
/export/apps/rDock/src/rDock_2013.1_src/data/scripts/dock_solv.prm

>  <Rbt.Receptor>
prm/blind_docking_40.prm

>  <SCORE>
131.444

>  <SCORE.INTER>
88.3877

>  <SCORE.INTER.CONST>
1

>  <SCORE.INTER.POLAR>
-2.6243

>  <SCORE.INTER.ROT>
9

>  <SCORE.INTER.SOLV>
31.1953

>  <SCORE.INTER.VDW>
47.6744

>  <SCORE.INTER.norm>
2.10447

>  <SCORE.INTRA>
18.8892

>  <SCORE.INTRA.DIHEDRAL>
-0.925008

>  <SCORE.INTRA.DIHEDRAL.0>
30.1357

>  <SCORE.INTRA.POLAR>
-0.562095

>  <SCORE.INTRA.POLAR.0>
-0.631696

>  <SCORE.INTRA.REPUL>
0.0238399

>  <SCORE.INTRA.REPUL.0>
0

>  <SCORE.INTRA.SOLV>
3.04698

>  <SCORE.INTRA.SOLV.lig_0>
-55.904

>  <SCORE.INTRA.VDW>
19.6202

>  <SCORE.INTRA.VDW.0>
-8.21197

>  <SCORE.INTRA.norm>
0.449744

>  <SCORE.RESTR>
24.1673

>  <SCORE.RESTR.CAVITY>
24.1673

>  <SCORE.RESTR.norm>
0.575412

>  <SCORE.SYSTEM>
0

>  <SCORE.SYSTEM.CONST>
0

>  <SCORE.SYSTEM.DIHEDRAL>
0

>  <SCORE.SYSTEM.SOLV>
0

>  <SCORE.SYSTEM.norm>
0

>  <SCORE.heavy>
42

>  <SCORE.norm>
3.12963

>  <RMSD>
7.947

$$$$
lig.pdb
 OpenBabel11021811453D
libRbt.so/2013.1/901 2013/11/27
 42 45  0  0  0  0  0  0  0  0999 V2000
   -0.9241   -1.4646    2.7241 C   0  0  2  0  0  0  0  0  0  0  0  0
   -1.6756   -0.3512    3.2110 O   0  0  0  0  0  0  0  0  0  0  0  0
   -0.0681   -1.0601    1.5144 C   0  0  2  0  0  0  0  0  0  0  0  0
    0.7940    0.0918    1.8377 N   0  0  0  0  0  0  0  0  0  0  0  0
   -0.9477   -0.7641    0.2928 C   0  0  1  0  0  0  0  0  0  0  0  0
   -0.1243   -0.5455   -0.8368 O   0  0  0  0  0  0  0  0  0  0  0  0
   -1.8887   -1.9462    0.0156 C   0  0  2  0  0  0  0  0  0  0  0  0
   -2.7960   -1.5921   -1.0104 O   0  0  0  0  0  0  0  0  0  0  0  0
   -2.6670   -2.3583    1.2816 C   0  0  2  0  0  0  0  0  0  0  0  0
   -1.7872   -2.5484    2.3892 O   0  0  0  0  0  0  0  0  0  0  0  0
   -3.4134   -3.6714    0.9786 C   0  0  0  0  0  0  0  0  0  0  0  0
   -4.3411   -4.0310    2.0372 O   0  0  0  0  0  0  0  0  0  0  0  0
   -2.2490    0.6167    7.3661 C   0  0  2  0  0  0  0  0  0  0  0  0
   -1.7507    0.9087    8.7251 N   0  0  0  0  0  0  0  0  0  0  0  0
   -1.8070   -0.7813    6.9264 C   0  0  0  0  0  0  0  0  0  0  0  0
   -2.1959   -1.0356    5.4749 C   0  0  2  0  0  0  0  0  0  0  0  0
   -1.8563   -2.4120    5.0927 N   0  0  0  0  0  0  0  0  0  0  0  0
   -1.4777    0.0068    4.5865 C   0  0  2  0  0  0  0  0  0  0  0  0
   -2.0277    1.3600    4.9055 C   0  0  2  0  0  0  0  0  0  0  0  0
   -1.3879    2.2923    4.0535 O   0  0  0  0  0  0  0  0  0  0  0  0
   -1.7699    1.6845    6.3648 C   0  0  1  0  0  0  0  0  0  0  0  0
   -2.3446    2.9211    6.7439 O   0  0  0  0  0  0  0  0  0  0  0  0
   -2.2118    3.1715    3.2952 C   0  0  1  0  0  0  0  0  0  0  0  0
   -1.3361    4.3270    2.8057 C   0  0  2  0  0  0  0  0  0  0  0  0
   -2.0941    5.5221    2.8074 O   0  0  0  0  0  0  0  0  0  0  0  0
   -0.9451    3.8704    1.3937 C   0  0  2  0  0  0  0  0  0  0  0  0
   -0.5394    4.9523    0.5549 O   0  0  0  0  0  0  0  0  0  0  0  0
   -2.2459    3.1781    0.9685 C   0  0  2  0  0  0  0  0  0  0  0  0
   -2.6880    2.4997    2.1358 O   0  0  0  0  0  0  0  0  0  0  0  0
   -2.0797    2.1604   -0.1660 C   0  0  0  0  0  0  0  0  0  0  0  0
   -3.2006    1.3083   -0.2686 O   0  0  0  0  0  0  0  0  0  0  0  0
    0.7582    5.4709    0.8396 C   0  0  2  0  0  0  0  0  0  0  0  0
    1.1587    6.5792   -0.1461 C   0  0  2  0  0  0  0  0  0  0  0  0
    0.1486    7.6501   -0.1726 N   0  0  0  0  0  0  0  0  0  0  0  0
    1.4101    6.0084   -1.5498 C   0  0  1  0  0  0  0  0  0  0  0  0
    1.8572    7.0552   -2.3895 O   0  0  0  0  0  0  0  0  0  0  0  0
    2.4875    4.9157   -1.4447 C   0  0  2  0  0  0  0  0  0  0  0  0
    2.7271    4.3247   -2.7087 O   0  0  0  0  0  0  0  0  0  0  0  0
    2.0854    3.8403   -0.4144 C   0  0  1  0  0  0  0  0  0  0  0  0
    1.7275    4.4252    0.8398 O   0  0  0  0  0  0  0  0  0  0  0  0
    1.0038    2.8788   -0.9286 C   0  0  0  0  0  0  0  0  0  0  0  0
    1.5306    1.5135   -1.0856 N   0  0  0  0  0  0  0  0  0  0  0  0
  1  3  1  0  0  0  0
  1  2  1  6  0  0  0
  3  4  1  1  0  0  0
  5  6  1  6  0  0  0
  5  3  1  0  0  0  0
  7  9  1  0  0  0  0
  7  5  1  0  0  0  0
  7  8  1  6  0  0  0
  9 10  1  0  0  0  0
  9 11  1  6  0  0  0
 10  1  1  0  0  0  0
 11 12  1  0  0  0  0
 13 14  1  1  0  0  0
 13 21  1  0  0  0  0
 15 13  1  0  0  0  0
 16 15  1  0  0  0  0
 16 18  1  0  0  0  0
 16 17  1  6  0  0  0
 18  2  1  6  0  0  0
 18 19  1  0  0  0  0
 19 21  1  0  0  0  0
 19 20  1  6  0  0  0
 21 22  1  1  0  0  0
 23 20  1  1  0  0  0
 23 29  1  0  0  0  0
 23 24  1  0  0  0  0
 24 26  1  0  0  0  0
 24 25  1  6  0  0  0
 26 27  1  6  0  0  0
 28 26  1  0  0  0  0
 28 30  1  6  0  0  0
 29 28  1  0  0  0  0
 30 31  1  0  0  0  0
 32 27  1  6  0  0  0
 32 40  1  0  0  0  0
 32 33  1  0  0  0  0
 33 35  1  0  0  0  0
 33 34  1  6  0  0  0
 35 37  1  0  0  0  0
 35 36  1  6  0  0  0
 37 38  1  6  0  0  0
 39 37  1  0  0  0  0
 39 41  1  6  0  0  0
 40 39  1  0  0  0  0
 42 41  1  0  0  0  0
M  END
>  <CHROM.1>
-74.38495317,-122.81265492,-80.16656420,64.83885859,-55.47507560,68.81323149
-170.96368416,65.70979733,-64.39938859,127.85420410,163.05923279,-55.56973807
58.94023609,74.66869326,176.97030549,163.99878809,-48.51669674,-48.33966557
65.90810738,-177.29049393,113.26949324,-102.55423068,-0.93549915,1.68947480
1.85866678,-3.07583074,1.17631602,0.83346474

>  <Name>
lig.pdb

>  <RI>
0

>  <Rbt.Current_Directory>
/home/itssahil/PROJECTS/Mol_Feturizer/New_Systems/rnas/2mxs

>  <Rbt.Executable>
rbdock ($Id: //depot/dev/client3/rdock/2013.1/src/exe/rbdock.cxx#4 $)

>  <Rbt.Library>
libRbt.so (2013.1, Build901 2013/11/27)

>  <Rbt.Parameter_File>
/export/apps/rDock/src/rDock_2013.1_src/data/scripts/dock_solv.prm

>  <Rbt.Receptor>
prm/pocket_docking_7.prm

>  <SCORE>
-37.076

>  <SCORE.INTER>
-32.6692

>  <SCORE.INTER.CONST>
1

>  <SCORE.INTER.POLAR>
-4.15777

>  <SCORE.INTER.ROT>
9

>  <SCORE.INTER.SOLV>
15.7998

>  <SCORE.INTER.VDW>
-22.7868

>  <SCORE.INTER.norm>
-0.777838

>  <SCORE.INTRA>
-4.40684

>  <SCORE.INTRA.DIHEDRAL>
-0.120867

>  <SCORE.INTRA.DIHEDRAL.0>
30.1357

>  <SCORE.INTRA.POLAR>
-2.4017

>  <SCORE.INTRA.POLAR.0>
-0.631696

>  <SCORE.INTRA.REPUL>
0.120632

>  <SCORE.INTRA.REPUL.0>
0

>  <SCORE.INTRA.SOLV>
1.9014

>  <SCORE.INTRA.SOLV.lig_0>
-55.904

>  <SCORE.INTRA.VDW>
2.26549

>  <SCORE.INTRA.VDW.0>
-8.21197

>  <SCORE.INTRA.norm>
-0.104925

>  <SCORE.RESTR>
0

>  <SCORE.RESTR.CAVITY>
0

>  <SCORE.RESTR.norm>
0

>  <SCORE.SYSTEM>
0

>  <SCORE.SYSTEM.CONST>
0

>  <SCORE.SYSTEM.DIHEDRAL>
0

>  <SCORE.SYSTEM.SOLV>
0

>  <SCORE.SYSTEM.norm>
0

>  <SCORE.heavy>
42

>  <SCORE.norm>
-0.882763

>  <RMSD>
7.956

$$$$
lig.pdb
 OpenBabel11021811453D
libRbt.so/2013.1/901 2013/11/27
 42 45  0  0  0  0  0  0  0  0999 V2000
   -2.1639    5.5445    6.4010 C   0  0  2  0  0  0  0  0  0  0  0  0
   -2.1360    6.5634    5.3998 O   0  0  0  0  0  0  0  0  0  0  0  0
   -2.7708    6.0776    7.7076 C   0  0  2  0  0  0  0  0  0  0  0  0
   -4.1049    6.6601    7.4723 N   0  0  0  0  0  0  0  0  0  0  0  0
   -1.8352    7.0948    8.3736 C   0  0  1  0  0  0  0  0  0  0  0  0
   -2.3520    7.4476    9.6425 O   0  0  0  0  0  0  0  0  0  0  0  0
   -0.4316    6.4944    8.5446 C   0  0  2  0  0  0  0  0  0  0  0  0
    0.4523    7.4953    9.0120 O   0  0  0  0  0  0  0  0  0  0  0  0
    0.0976    5.9074    7.2204 C   0  0  2  0  0  0  0  0  0  0  0  0
   -0.8562    5.0253    6.6293 O   0  0  0  0  0  0  0  0  0  0  0  0
    1.3986    5.1399    7.5228 C   0  0  0  0  0  0  0  0  0  0  0  0
    1.1874    4.0531    8.4634 O   0  0  0  0  0  0  0  0  0  0  0  0
   -2.0531    6.0206    1.1302 C   0  0  2  0  0  0  0  0  0  0  0  0
   -1.4512    5.5004   -0.1137 N   0  0  0  0  0  0  0  0  0  0  0  0
   -1.0832    6.9745    1.8320 C   0  0  0  0  0  0  0  0  0  0  0  0
   -1.6382    7.4054    3.1845 C   0  0  2  0  0  0  0  0  0  0  0  0
   -0.7488    8.3949    3.8056 N   0  0  0  0  0  0  0  0  0  0  0  0
   -1.8102    6.1464    4.0659 C   0  0  2  0  0  0  0  0  0  0  0  0
   -2.8760    5.2884    3.4632 C   0  0  2  0  0  0  0  0  0  0  0  0
   -3.0465    4.1641    4.3065 O   0  0  0  0  0  0  0  0  0  0  0  0
   -2.4626    4.8675    2.0656 C   0  0  1  0  0  0  0  0  0  0  0  0
   -3.4735    4.1211    1.4144 O   0  0  0  0  0  0  0  0  0  0  0  0
   -4.0859    3.2458    3.9854 C   0  0  1  0  0  0  0  0  0  0  0  0
   -3.4798    2.1362    3.1236 C   0  0  2  0  0  0  0  0  0  0  0  0
   -4.4273    1.7241    2.1565 O   0  0  0  0  0  0  0  0  0  0  0  0
   -3.1702    1.0458    4.1581 C   0  0  2  0  0  0  0  0  0  0  0  0
   -3.0492   -0.2519    3.5750 O   0  0  0  0  0  0  0  0  0  0  0  0
   -4.3707    1.2212    5.0963 C   0  0  2  0  0  0  0  0  0  0  0  0
   -4.5614    2.6269    5.1741 O   0  0  0  0  0  0  0  0  0  0  0  0
   -4.1550    0.6691    6.5102 C   0  0  0  0  0  0  0  0  0  0  0  0
   -5.2532    0.9506    7.3516 O   0  0  0  0  0  0  0  0  0  0  0  0
   -2.7235   -1.2899    4.4972 C   0  0  2  0  0  0  0  0  0  0  0  0
   -1.9202   -2.4159    3.8286 C   0  0  2  0  0  0  0  0  0  0  0  0
   -0.7135   -1.8841    3.1736 N   0  0  0  0  0  0  0  0  0  0  0  0
   -2.7918   -3.2089    2.8431 C   0  0  1  0  0  0  0  0  0  0  0  0
   -2.0274   -4.2805    2.3255 O   0  0  0  0  0  0  0  0  0  0  0  0
   -4.0160   -3.7485    3.6021 C   0  0  2  0  0  0  0  0  0  0  0  0
   -4.8775   -4.4535    2.7273 O   0  0  0  0  0  0  0  0  0  0  0  0
   -4.7785   -2.6063    4.3046 C   0  0  1  0  0  0  0  0  0  0  0  0
   -3.9039   -1.8087    5.1060 O   0  0  0  0  0  0  0  0  0  0  0  0
   -5.6147   -1.7503    3.3419 C   0  0  0  0  0  0  0  0  0  0  0  0
   -6.6783   -2.5436    2.7050 N   0  0  0  0  0  0  0  0  0  0  0  0
  1  3  1  0  0  0  0
  1  2  1  6  0  0  0
  3  4  1  6  0  0  0
  5  6  1  1  0  0  0
  5  3  1  0  0  0  0
  7  9  1  0  0  0  0
  7  5  1  0  0  0  0
  7  8  1  6  0  0  0
  9 10  1  0  0  0  0
  9 11  1  1  0  0  0
 10  1  1  0  0  0  0
 11 12  1  0  0  0  0
 13 14  1  6  0  0  0
 13 21  1  0  0  0  0
 15 13  1  0  0  0  0
 16 15  1  0  0  0  0
 16 18  1  0  0  0  0
 16 17  1  1  0  0  0
 18  2  1  1  0  0  0
 18 19  1  0  0  0  0
 19 21  1  0  0  0  0
 19 20  1  1  0  0  0
 21 22  1  6  0  0  0
 23 20  1  1  0  0  0
 23 29  1  0  0  0  0
 23 24  1  0  0  0  0
 24 26  1  0  0  0  0
 24 25  1  6  0  0  0
 26 27  1  6  0  0  0
 28 26  1  0  0  0  0
 28 30  1  1  0  0  0
 29 28  1  0  0  0  0
 30 31  1  0  0  0  0
 32 27  1  6  0  0  0
 32 40  1  0  0  0  0
 32 33  1  0  0  0  0
 33 35  1  0  0  0  0
 33 34  1  6  0  0  0
 35 37  1  0  0  0  0
 35 36  1  1  0  0  0
 37 38  1  6  0  0  0
 39 37  1  0  0  0  0
 39 41  1  6  0  0  0
 40 39  1  0  0  0  0
 42 41  1  0  0  0  0
M  END
>  <CHROM.1>
-172.15837621,-169.59467781,-49.97397087,-172.28811051,69.77137713,-66.69826758
60.13703076,176.02146902,-37.72640673,175.51400654,93.42846579,68.65962120
177.42216795,178.28482503,-150.33906909,175.52092948,69.64356025,46.20580795
-177.18516514,71.96588840,63.35688162,-167.10043665,-2.64450163,2.73629126
4.69524320,-0.13082480,1.29208756,2.03102417

>  <Name>
lig.pdb

>  <RI>
4.11275e+07

>  <Rbt.Current_Directory>
/home/itssahil/PROJECTS/Mol_Feturizer/New_Systems/rnas/2mxs

>  <Rbt.Executable>
rbdock ($Id: //depot/dev/client3/rdock/2013.1/src/exe/rbdock.cxx#4 $)

>  <Rbt.Library>
libRbt.so (2013.1, Build901 2013/11/27)

>  <Rbt.Parameter_File>
/export/apps/rDock/src/rDock_2013.1_src/data/scripts/dock_solv.prm

>  <Rbt.Receptor>
prm/pocket_docking_8.prm

>  <SCORE>
-33.766

>  <SCORE.INTER>
-30.2815

>  <SCORE.INTER.CONST>
1

>  <SCORE.INTER.POLAR>
-4.8886

>  <SCORE.INTER.ROT>
9

>  <SCORE.INTER.SOLV>
13.5598

>  <SCORE.INTER.VDW>
-18.0122

>  <SCORE.INTER.norm>
-0.720987

>  <SCORE.INTRA>
-3.48453

>  <SCORE.INTRA.DIHEDRAL>
-15.8362

>  <SCORE.INTRA.DIHEDRAL.0>
30.1357

>  <SCORE.INTRA.POLAR>
-0.2348

>  <SCORE.INTRA.POLAR.0>
-0.631696

>  <SCORE.INTRA.REPUL>
0

>  <SCORE.INTRA.REPUL.0>
0

>  <SCORE.INTRA.SOLV>
0.315879

>  <SCORE.INTRA.SOLV.lig_0>
-55.904

>  <SCORE.INTRA.VDW>
5.07396

>  <SCORE.INTRA.VDW.0>
-8.21197

>  <SCORE.INTRA.norm>
-0.0829651

>  <SCORE.RESTR>
0

>  <SCORE.RESTR.CAVITY>
0

>  <SCORE.RESTR.norm>
0

>  <SCORE.SYSTEM>
0

>  <SCORE.SYSTEM.CONST>
0

>  <SCORE.SYSTEM.DIHEDRAL>
0

>  <SCORE.SYSTEM.SOLV>
0

>  <SCORE.SYSTEM.norm>
0

>  <SCORE.heavy>
42

>  <SCORE.norm>
-0.803952

>  <RMSD>
7.961

$$$$
lig.pdb
 OpenBabel11021811453D
libRbt.so/2013.1/901 2013/11/27
 42 45  0  0  0  0  0  0  0  0999 V2000
   -2.0654    6.5966    4.9358 C   0  0  2  0  0  0  0  0  0  0  0  0
   -1.9210    6.7206    3.5198 O   0  0  0  0  0  0  0  0  0  0  0  0
   -1.3453    7.7429    5.6617 C   0  0  2  0  0  0  0  0  0  0  0  0
   -1.8080    9.0539    5.1701 N   0  0  0  0  0  0  0  0  0  0  0  0
    0.1770    7.6096    5.5258 C   0  0  1  0  0  0  0  0  0  0  0  0
    0.8078    8.5884    6.3293 O   0  0  0  0  0  0  0  0  0  0  0  0
    0.6310    6.2126    5.9751 C   0  0  2  0  0  0  0  0  0  0  0  0
    2.0087    6.0550    5.6946 O   0  0  0  0  0  0  0  0  0  0  0  0
   -0.1754    5.1023    5.2713 C   0  0  2  0  0  0  0  0  0  0  0  0
   -1.5792    5.3338    5.3840 O   0  0  0  0  0  0  0  0  0  0  0  0
    0.1848    3.7575    5.9308 C   0  0  0  0  0  0  0  0  0  0  0  0
   -0.4759    3.5815    7.2125 O   0  0  0  0  0  0  0  0  0  0  0  0
   -4.0279    3.5573    1.4985 C   0  0  2  0  0  0  0  0  0  0  0  0
   -5.1376    3.0397    0.6733 N   0  0  0  0  0  0  0  0  0  0  0  0
   -4.5693    4.1794    2.7881 C   0  0  0  0  0  0  0  0  0  0  0  0
   -3.4460    4.8403    3.5781 C   0  0  2  0  0  0  0  0  0  0  0  0
   -3.9566    5.3474    4.8580 N   0  0  0  0  0  0  0  0  0  0  0  0
   -2.8349    5.9656    2.7110 C   0  0  2  0  0  0  0  0  0  0  0  0
   -2.1647    5.3415    1.5292 C   0  0  2  0  0  0  0  0  0  0  0  0
   -1.5772    6.3838    0.7722 O   0  0  0  0  0  0  0  0  0  0  0  0
   -3.1858    4.5766    0.7085 C   0  0  1  0  0  0  0  0  0  0  0  0
   -2.5903    3.8945   -0.3792 O   0  0  0  0  0  0  0  0  0  0  0  0
   -0.2182    6.7129    1.0399 C   0  0  1  0  0  0  0  0  0  0  0  0
    0.6445    5.5256    0.6068 C   0  0  2  0  0  0  0  0  0  0  0  0
    1.7336    5.3879    1.4999 O   0  0  0  0  0  0  0  0  0  0  0  0
    1.0802    5.9320   -0.8075 C   0  0  2  0  0  0  0  0  0  0  0  0
    2.2543    5.2461   -1.2432 O   0  0  0  0  0  0  0  0  0  0  0  0
    1.2531    7.4428   -0.6084 C   0  0  2  0  0  0  0  0  0  0  0  0
    0.1736    7.8181    0.2355 O   0  0  0  0  0  0  0  0  0  0  0  0
    1.1829    8.2637   -1.9014 C   0  0  0  0  0  0  0  0  0  0  0  0
    1.8696    7.6283   -2.9587 O   0  0  0  0  0  0  0  0  0  0  0  0
    2.0128    4.1700   -2.1475 C   0  0  2  0  0  0  0  0  0  0  0  0
    1.6307    2.8785   -1.4086 C   0  0  2  0  0  0  0  0  0  0  0  0
    0.4765    3.1013   -0.5219 N   0  0  0  0  0  0  0  0  0  0  0  0
    2.8295    2.3053   -0.6379 C   0  0  1  0  0  0  0  0  0  0  0  0
    2.4437    1.0774   -0.0513 O   0  0  0  0  0  0  0  0  0  0  0  0
    3.9829    2.0800   -1.6302 C   0  0  2  0  0  0  0  0  0  0  0  0
    5.1311    1.5910   -0.9617 O   0  0  0  0  0  0  0  0  0  0  0  0
    4.3161    3.3780   -2.3944 C   0  0  1  0  0  0  0  0  0  0  0  0
    3.1475    3.9530   -2.9834 O   0  0  0  0  0  0  0  0  0  0  0  0
    5.0947    4.3983   -1.5508 C   0  0  0  0  0  0  0  0  0  0  0  0
    6.4523    3.9180   -1.2469 N   0  0  0  0  0  0  0  0  0  0  0  0
  1  3  1  0  0  0  0
  1  2  1  6  0  0  0
  3  4  1  6  0  0  0
  5  6  1  1  0  0  0
  5  3  1  0  0  0  0
  7  9  1  0  0  0  0
  7  5  1  0  0  0  0
  7  8  1  6  0  0  0
  9 10  1  0  0  0  0
  9 11  1  1  0  0  0
 10  1  1  0  0  0  0
 11 12  1  0  0  0  0
 13 14  1  6  0  0  0
 13 21  1  0  0  0  0
 15 13  1  0  0  0  0
 16 15  1  0  0  0  0
 16 18  1  0  0  0  0
 16 17  1  1  0  0  0
 18  2  1  1  0  0  0
 18 19  1  0  0  0  0
 19 21  1  0  0  0  0
 19 20  1  6  0  0  0
 21 22  1  6  0  0  0
 23 20  1  6  0  0  0
 23 29  1  0  0  0  0
 23 24  1  0  0  0  0
 24 26  1  0  0  0  0
 24 25  1  1  0  0  0
 26 27  1  1  0  0  0
 28 26  1  0  0  0  0
 28 30  1  6  0  0  0
 29 28  1  0  0  0  0
 30 31  1  0  0  0  0
 32 27  1  1  0  0  0
 32 40  1  0  0  0  0
 32 33  1  0  0  0  0
 33 35  1  0  0  0  0
 33 34  1  1  0  0  0
 35 37  1  0  0  0  0
 35 36  1  6  0  0  0
 37 38  1  1  0  0  0
 39 37  1  0  0  0  0
 39 41  1  1  0  0  0
 40 39  1  0  0  0  0
 42 41  1  0  0  0  0
M  END
>  <CHROM.1>
-18.88044459,-162.78563364,64.00066473,62.85832292,-76.35620052,-59.00657537
77.21132904,75.75531173,-68.54971956,92.87965749,67.07454369,-60.98308169
73.76941455,102.05085035,-83.03603563,-41.12842061,69.27728731,-91.48448767
-163.84276054,69.99411273,67.87700440,-4.69246685,0.22534647,5.13834136,1.58198696
-2.22971443,-0.05131865,-1.93894249

>  <Name>
lig.pdb

>  <RI>
3.31443e+07

>  <Rbt.Current_Directory>
/home/itssahil/PROJECTS/Mol_Feturizer/New_Systems/rnas/2mxs

>  <Rbt.Executable>
rbdock ($Id: //depot/dev/client3/rdock/2013.1/src/exe/rbdock.cxx#4 $)

>  <Rbt.Library>
libRbt.so (2013.1, Build901 2013/11/27)

>  <Rbt.Parameter_File>
/export/apps/rDock/src/rDock_2013.1_src/data/scripts/dock_solv.prm

>  <Rbt.Receptor>
prm/blind_docking_40.prm

>  <SCORE>
85.7333

>  <SCORE.INTER>
34.1268

>  <SCORE.INTER.CONST>
1

>  <SCORE.INTER.POLAR>
-1.75042

>  <SCORE.INTER.ROT>
9

>  <SCORE.INTER.SOLV>
36.2515

>  <SCORE.INTER.VDW>
6.90207

>  <SCORE.INTER.norm>
0.812542

>  <SCORE.INTRA>
29.7469

>  <SCORE.INTRA.DIHEDRAL>
2.72702

>  <SCORE.INTRA.DIHEDRAL.0>
30.1357

>  <SCORE.INTRA.POLAR>
-0.294934

>  <SCORE.INTRA.POLAR.0>
-0.631696

>  <SCORE.INTRA.REPUL>
0.00514038

>  <SCORE.INTRA.REPUL.0>
0

>  <SCORE.INTRA.SOLV>
1.42947

>  <SCORE.INTRA.SOLV.lig_0>
-55.904

>  <SCORE.INTRA.VDW>
28.6457

>  <SCORE.INTRA.VDW.0>
-8.21197

>  <SCORE.INTRA.norm>
0.70826

>  <SCORE.RESTR>
21.8596

>  <SCORE.RESTR.CAVITY>
21.8596

>  <SCORE.RESTR.norm>
0.520468

>  <SCORE.SYSTEM>
0

>  <SCORE.SYSTEM.CONST>
0

>  <SCORE.SYSTEM.DIHEDRAL>
0

>  <SCORE.SYSTEM.SOLV>
0

>  <SCORE.SYSTEM.norm>
0

>  <SCORE.heavy>
42

>  <SCORE.norm>
2.04127

>  <RMSD>
7.962

$$$$
lig.pdb
 OpenBabel11021811453D
libRbt.so/2013.1/901 2013/11/27
 42 45  0  0  0  0  0  0  0  0999 V2000
   -2.5283    4.8371    1.6275 C   0  0  2  0  0  0  0  0  0  0  0  0
   -2.2923    6.1322    1.0721 O   0  0  0  0  0  0  0  0  0  0  0  0
   -3.7371    4.8602    2.5752 C   0  0  2  0  0  0  0  0  0  0  0  0
   -4.9308    5.3985    1.8972 N   0  0  0  0  0  0  0  0  0  0  0  0
   -3.4219    5.6547    3.8492 C   0  0  1  0  0  0  0  0  0  0  0  0
   -4.4966    5.5268    4.7604 O   0  0  0  0  0  0  0  0  0  0  0  0
   -2.1357    5.1258    4.5017 C   0  0  2  0  0  0  0  0  0  0  0  0
   -1.7769    5.9681    5.5802 O   0  0  0  0  0  0  0  0  0  0  0  0
   -0.9759    5.0529    3.4879 C   0  0  2  0  0  0  0  0  0  0  0  0
   -1.3683    4.3590    2.3039 O   0  0  0  0  0  0  0  0  0  0  0  0
    0.1998    4.3160    4.1573 C   0  0  0  0  0  0  0  0  0  0  0  0
    0.5125    4.8601    5.4675 O   0  0  0  0  0  0  0  0  0  0  0  0
    1.0989    7.6562   -1.0976 C   0  0  2  0  0  0  0  0  0  0  0  0
    2.5495    7.7802   -1.3443 N   0  0  0  0  0  0  0  0  0  0  0  0
    0.7516    8.1689    0.3023 C   0  0  0  0  0  0  0  0  0  0  0  0
   -0.7177    7.9150    0.6178 C   0  0  2  0  0  0  0  0  0  0  0  0
   -1.0644    8.4970    1.9205 N   0  0  0  0  0  0  0  0  0  0  0  0
   -0.9696    6.3897    0.5789 C   0  0  2  0  0  0  0  0  0  0  0  0
   -0.7857    5.9153   -0.8271 C   0  0  2  0  0  0  0  0  0  0  0  0
   -1.0613    4.5267   -0.8483 O   0  0  0  0  0  0  0  0  0  0  0  0
    0.6340    6.1991   -1.2799 C   0  0  1  0  0  0  0  0  0  0  0  0
    0.8405    5.8460   -2.6347 O   0  0  0  0  0  0  0  0  0  0  0  0
   -0.4696    3.7490   -1.8836 C   0  0  1  0  0  0  0  0  0  0  0  0
    0.8826    3.2447   -1.3749 C   0  0  2  0  0  0  0  0  0  0  0  0
    1.8069    3.2220   -2.4463 O   0  0  0  0  0  0  0  0  0  0  0  0
    0.5380    1.8429   -0.8542 C   0  0  2  0  0  0  0  0  0  0  0  0
    1.6785    0.9879   -0.7705 O   0  0  0  0  0  0  0  0  0  0  0  0
   -0.5074    1.4225   -1.8946 C   0  0  2  0  0  0  0  0  0  0  0  0
   -1.2675    2.5988   -2.1333 O   0  0  0  0  0  0  0  0  0  0  0  0
   -1.4500    0.3064   -1.4296 C   0  0  0  0  0  0  0  0  0  0  0  0
   -0.7349   -0.8285   -0.9893 O   0  0  0  0  0  0  0  0  0  0  0  0
    2.6775    1.4181    0.1520 C   0  0  2  0  0  0  0  0  0  0  0  0
    4.0829    1.3732   -0.4667 C   0  0  2  0  0  0  0  0  0  0  0  0
    4.1342    2.1545   -1.7136 N   0  0  0  0  0  0  0  0  0  0  0  0
    4.5438   -0.0748   -0.6911 C   0  0  1  0  0  0  0  0  0  0  0  0
    5.8713   -0.0557   -1.1791 O   0  0  0  0  0  0  0  0  0  0  0  0
    4.4839   -0.8182    0.6542 C   0  0  2  0  0  0  0  0  0  0  0  0
    4.8591   -2.1741    0.4948 O   0  0  0  0  0  0  0  0  0  0  0  0
    3.0770   -0.7182    1.2788 C   0  0  1  0  0  0  0  0  0  0  0  0
    2.6288    0.6376    1.3443 O   0  0  0  0  0  0  0  0  0  0  0  0
    2.0442   -1.6318    0.6024 C   0  0  0  0  0  0  0  0  0  0  0  0
    0.7354   -1.5483    1.2705 N   0  0  0  0  0  0  0  0  0  0  0  0
  1  3  1  0  0  0  0
  1  2  1  1  0  0  0
  3  4  1  6  0  0  0
  5  6  1  1  0  0  0
  5  3  1  0  0  0  0
  7  9  1  0  0  0  0
  7  5  1  0  0  0  0
  7  8  1  1  0  0  0
  9 10  1  0  0  0  0
  9 11  1  1  0  0  0
 10  1  1  0  0  0  0
 11 12  1  0  0  0  0
 13 14  1  1  0  0  0
 13 21  1  0  0  0  0
 15 13  1  0  0  0  0
 16 15  1  0  0  0  0
 16 18  1  0  0  0  0
 16 17  1  1  0  0  0
 18  2  1  6  0  0  0
 18 19  1  0  0  0  0
 19 21  1  0  0  0  0
 19 20  1  1  0  0  0
 21 22  1  6  0  0  0
 23 20  1  1  0  0  0
 23 29  1  0  0  0  0
 23 24  1  0  0  0  0
 24 26  1  0  0  0  0
 24 25  1  6  0  0  0
 26 27  1  6  0  0  0
 28 26  1  0  0  0  0
 28 30  1  1  0  0  0
 29 28  1  0  0  0  0
 30 31  1  0  0  0  0
 32 27  1  6  0  0  0
 32 40  1  0  0  0  0
 32 33  1  0  0  0  0
 33 35  1  0  0  0  0
 33 34  1  6  0  0  0
 35 37  1  0  0  0  0
 35 36  1  1  0  0  0
 37 38  1  6  0  0  0
 39 37  1  0  0  0  0
 39 41  1  6  0  0  0
 40 39  1  0  0  0  0
 42 41  1  0  0  0  0
M  END
>  <CHROM.1>
-155.06870578,158.10348852,152.41059127,-129.71835830,-59.62854371,64.21259625
-49.99219816,172.54340442,-157.31061885,-155.51330258,90.26615047,-54.67966303
71.03998159,63.42704576,-132.47015512,-54.75898535,179.85282624,-172.11522101
127.82416306,-61.77694545,177.38148329,-58.56602749,0.33593302,3.46755680
0.59868375,2.66389757,0.83342933,-0.53019965

>  <Name>
lig.pdb

>  <RI>
3.17932e+07

>  <Rbt.Current_Directory>
/home/itssahil/PROJECTS/Mol_Feturizer/New_Systems/rnas/2mxs

>  <Rbt.Executable>
rbdock ($Id: //depot/dev/client3/rdock/2013.1/src/exe/rbdock.cxx#4 $)

>  <Rbt.Library>
libRbt.so (2013.1, Build901 2013/11/27)

>  <Rbt.Parameter_File>
/export/apps/rDock/src/rDock_2013.1_src/data/scripts/dock_solv.prm

>  <Rbt.Receptor>
prm/blind_docking_100.prm

>  <SCORE>
106.446

>  <SCORE.INTER>
81.0984

>  <SCORE.INTER.CONST>
1

>  <SCORE.INTER.POLAR>
-3.69655

>  <SCORE.INTER.ROT>
9

>  <SCORE.INTER.SOLV>
37.5369

>  <SCORE.INTER.VDW>
44.2752

>  <SCORE.INTER.norm>
1.93091

>  <SCORE.INTRA>
9.02986

>  <SCORE.INTRA.DIHEDRAL>
5.98992

>  <SCORE.INTRA.DIHEDRAL.0>
30.1357

>  <SCORE.INTRA.POLAR>
-0.454444

>  <SCORE.INTRA.POLAR.0>
-0.631696

>  <SCORE.INTRA.REPUL>
0

>  <SCORE.INTRA.REPUL.0>
0

>  <SCORE.INTRA.SOLV>
2.51092

>  <SCORE.INTRA.SOLV.lig_0>
-55.904

>  <SCORE.INTRA.VDW>
6.32455

>  <SCORE.INTRA.VDW.0>
-8.21197

>  <SCORE.INTRA.norm>
0.214997

>  <SCORE.RESTR>
16.3178

>  <SCORE.RESTR.CAVITY>
16.3178

>  <SCORE.RESTR.norm>
0.388519

>  <SCORE.SYSTEM>
0

>  <SCORE.SYSTEM.CONST>
0

>  <SCORE.SYSTEM.DIHEDRAL>
0

>  <SCORE.SYSTEM.SOLV>
0

>  <SCORE.SYSTEM.norm>
0

>  <SCORE.heavy>
42

>  <SCORE.norm>
2.53443

>  <RMSD>
7.966

$$$$
lig.pdb
 OpenBabel11021811453D
libRbt.so/2013.1/901 2013/11/27
 42 45  0  0  0  0  0  0  0  0999 V2000
   -0.0106    4.7570    7.0388 C   0  0  2  0  0  0  0  0  0  0  0  0
    0.2676    3.8166    5.9996 O   0  0  0  0  0  0  0  0  0  0  0  0
    1.1214    5.7882    7.1610 C   0  0  2  0  0  0  0  0  0  0  0  0
    1.3760    6.4500    5.8681 N   0  0  0  0  0  0  0  0  0  0  0  0
    2.3992    5.1397    7.7090 C   0  0  1  0  0  0  0  0  0  0  0  0
    3.3677    6.1421    7.9516 O   0  0  0  0  0  0  0  0  0  0  0  0
    2.0985    4.3949    9.0184 C   0  0  2  0  0  0  0  0  0  0  0  0
    3.2475    3.6751    9.4224 O   0  0  0  0  0  0  0  0  0  0  0  0
    0.9068    3.4291    8.8589 C   0  0  2  0  0  0  0  0  0  0  0  0
   -0.2188    4.0895    8.2810 O   0  0  0  0  0  0  0  0  0  0  0  0
    0.5353    2.8924   10.2542 C   0  0  0  0  0  0  0  0  0  0  0  0
   -0.5669    1.9475   10.2020 O   0  0  0  0  0  0  0  0  0  0  0  0
   -1.7676    0.2317    4.7598 C   0  0  2  0  0  0  0  0  0  0  0  0
   -2.6511   -0.9257    5.0049 N   0  0  0  0  0  0  0  0  0  0  0  0
   -0.5510    0.1781    5.6872 C   0  0  0  0  0  0  0  0  0  0  0  0
    0.2922    1.4391    5.5401 C   0  0  2  0  0  0  0  0  0  0  0  0
    1.5064    1.3355    6.3591 N   0  0  0  0  0  0  0  0  0  0  0  0
   -0.5744    2.6561    5.9395 C   0  0  2  0  0  0  0  0  0  0  0  0
   -1.6738    2.8038    4.9370 C   0  0  2  0  0  0  0  0  0  0  0  0
   -2.4288    3.9461    5.2970 O   0  0  0  0  0  0  0  0  0  0  0  0
   -2.5353    1.5552    4.9368 C   0  0  1  0  0  0  0  0  0  0  0  0
   -3.5440    1.6056    3.9454 O   0  0  0  0  0  0  0  0  0  0  0  0
   -2.9408    4.7603    4.2473 C   0  0  1  0  0  0  0  0  0  0  0  0
   -1.7508    5.2963    3.4486 C   0  0  2  0  0  0  0  0  0  0  0  0
   -2.0341    6.6127    3.0131 O   0  0  0  0  0  0  0  0  0  0  0  0
   -1.6508    4.2936    2.2912 C   0  0  2  0  0  0  0  0  0  0  0  0
   -0.9505    4.8186    1.1631 O   0  0  0  0  0  0  0  0  0  0  0  0
   -3.1397    4.0141    2.0523 C   0  0  2  0  0  0  0  0  0  0  0  0
   -3.7072    3.9626    3.3538 O   0  0  0  0  0  0  0  0  0  0  0  0
   -3.4279    2.6924    1.3309 C   0  0  0  0  0  0  0  0  0  0  0  0
   -4.7191    2.6822    0.7600 O   0  0  0  0  0  0  0  0  0  0  0  0
    0.3301    5.3705    1.4625 C   0  0  2  0  0  0  0  0  0  0  0  0
    0.6566    6.5743    0.5656 C   0  0  2  0  0  0  0  0  0  0  0  0
   -0.3998    7.5964    0.6514 N   0  0  0  0  0  0  0  0  0  0  0  0
    0.8970    6.1346   -0.8865 C   0  0  1  0  0  0  0  0  0  0  0  0
    1.2765    7.2671   -1.6442 O   0  0  0  0  0  0  0  0  0  0  0  0
    2.0235    5.0873   -0.8973 C   0  0  2  0  0  0  0  0  0  0  0  0
    2.2566    4.6154   -2.2116 O   0  0  0  0  0  0  0  0  0  0  0  0
    1.6951    3.9125    0.0469 C   0  0  1  0  0  0  0  0  0  0  0  0
    1.3438    4.3738    1.3535 O   0  0  0  0  0  0  0  0  0  0  0  0
    0.6438    2.9489   -0.5232 C   0  0  0  0  0  0  0  0  0  0  0  0
   -0.4893    3.6797   -1.1134 N   0  0  0  0  0  0  0  0  0  0  0  0
  1  3  1  0  0  0  0
  1  2  1  6  0  0  0
  3  4  1  6  0  0  0
  5  6  1  1  0  0  0
  5  3  1  0  0  0  0
  7  9  1  0  0  0  0
  7  5  1  0  0  0  0
  7  8  1  6  0  0  0
  9 10  1  0  0  0  0
  9 11  1  1  0  0  0
 10  1  1  0  0  0  0
 11 12  1  0  0  0  0
 13 14  1  1  0  0  0
 13 21  1  0  0  0  0
 15 13  1  0  0  0  0
 16 15  1  0  0  0  0
 16 18  1  0  0  0  0
 16 17  1  1  0  0  0
 18  2  1  6  0  0  0
 18 19  1  0  0  0  0
 19 21  1  0  0  0  0
 19 20  1  1  0  0  0
 21 22  1  6  0  0  0
 23 20  1  1  0  0  0
 23 29  1  0  0  0  0
 23 24  1  0  0  0  0
 24 26  1  0  0  0  0
 24 25  1  6  0  0  0
 26 27  1  6  0  0  0
 28 26  1  0  0  0  0
 28 30  1  1  0  0  0
 29 28  1  0  0  0  0
 30 31  1  0  0  0  0
 32 27  1  6  0  0  0
 32 40  1  0  0  0  0
 32 33  1  0  0  0  0
 33 35  1  0  0  0  0
 33 34  1  6  0  0  0
 35 37  1  0  0  0  0
 35 36  1  6  0  0  0
 37 38  1  6  0  0  0
 39 37  1  0  0  0  0
 39 41  1  6  0  0  0
 40 39  1  0  0  0  0
 42 41  1  0  0  0  0
M  END
>  <CHROM.1>
-142.48320124,168.64637170,-61.75798762,-66.92035335,64.23858609,57.95187181
-178.82775461,-55.61488419,172.16324669,143.11857058,-61.10648066,69.78929365
45.65430288,52.14748947,-145.89844718,-160.89549455,-58.59647288,-90.09057292
-91.09378673,57.89393998,-45.04665838,69.23578445,-0.32746181,3.91767446
3.99542467,-1.45007162,-0.67969306,-1.28077244

>  <Name>
lig.pdb

>  <RI>
3.99633e+07

>  <Rbt.Current_Directory>
/home/itssahil/PROJECTS/Mol_Feturizer/New_Systems/rnas/2mxs

>  <Rbt.Executable>
rbdock ($Id: //depot/dev/client3/rdock/2013.1/src/exe/rbdock.cxx#4 $)

>  <Rbt.Library>
libRbt.so (2013.1, Build901 2013/11/27)

>  <Rbt.Parameter_File>
/export/apps/rDock/src/rDock_2013.1_src/data/scripts/dock_solv.prm

>  <Rbt.Receptor>
prm/pocket_docking_5.prm

>  <SCORE>
-53.1485

>  <SCORE.INTER>
-50.507

>  <SCORE.INTER.CONST>
1

>  <SCORE.INTER.POLAR>
-7.18806

>  <SCORE.INTER.ROT>
9

>  <SCORE.INTER.SOLV>
17.1356

>  <SCORE.INTER.VDW>
-25.023

>  <SCORE.INTER.norm>
-1.20255

>  <SCORE.INTRA>
-2.64163

>  <SCORE.INTRA.DIHEDRAL>
-4.54244

>  <SCORE.INTRA.DIHEDRAL.0>
30.1357

>  <SCORE.INTRA.POLAR>
-1.30439

>  <SCORE.INTRA.POLAR.0>
-0.631696

>  <SCORE.INTRA.REPUL>
0.0095223

>  <SCORE.INTRA.REPUL.0>
0

>  <SCORE.INTRA.SOLV>
1.87643

>  <SCORE.INTRA.SOLV.lig_0>
-55.904

>  <SCORE.INTRA.VDW>
3.07868

>  <SCORE.INTRA.VDW.0>
-8.21197

>  <SCORE.INTRA.norm>
-0.0628959

>  <SCORE.RESTR>
0.000198287

>  <SCORE.RESTR.CAVITY>
0.000198287

>  <SCORE.RESTR.norm>
4.72112e-06

>  <SCORE.SYSTEM>
0

>  <SCORE.SYSTEM.CONST>
0

>  <SCORE.SYSTEM.DIHEDRAL>
0

>  <SCORE.SYSTEM.SOLV>
0

>  <SCORE.SYSTEM.norm>
0

>  <SCORE.heavy>
42

>  <SCORE.norm>
-1.26544

>  <RMSD>
7.974

$$$$
lig.pdb
 OpenBabel11021811453D
libRbt.so/2013.1/901 2013/11/27
 42 45  0  0  0  0  0  0  0  0999 V2000
   -1.8437   -0.1298    6.1375 C   0  0  2  0  0  0  0  0  0  0  0  0
   -2.8001   -1.1146    6.5336 O   0  0  0  0  0  0  0  0  0  0  0  0
   -0.5734   -0.2243    6.9961 C   0  0  2  0  0  0  0  0  0  0  0  0
   -0.0120   -1.5874    6.9620 N   0  0  0  0  0  0  0  0  0  0  0  0
   -0.8496    0.2219    8.4376 C   0  0  1  0  0  0  0  0  0  0  0  0
    0.3681    0.2681    9.1564 O   0  0  0  0  0  0  0  0  0  0  0  0
   -1.5001    1.6134    8.4486 C   0  0  2  0  0  0  0  0  0  0  0  0
   -1.8901    1.9379    9.7692 O   0  0  0  0  0  0  0  0  0  0  0  0
   -2.7248    1.6726    7.5131 C   0  0  2  0  0  0  0  0  0  0  0  0
   -2.4053    1.1781    6.2130 O   0  0  0  0  0  0  0  0  0  0  0  0
   -3.1811    3.1406    7.4139 C   0  0  0  0  0  0  0  0  0  0  0  0
   -4.4008    3.2838    6.6379 O   0  0  0  0  0  0  0  0  0  0  0  0
   -5.8742   -2.5184    3.8671 C   0  0  2  0  0  0  0  0  0  0  0  0
   -7.1862   -2.3987    3.2002 N   0  0  0  0  0  0  0  0  0  0  0  0
   -6.0524   -2.5685    5.3866 C   0  0  0  0  0  0  0  0  0  0  0  0
   -4.6987   -2.5498    6.0867 C   0  0  2  0  0  0  0  0  0  0  0  0
   -4.8760   -2.6972    7.5368 N   0  0  0  0  0  0  0  0  0  0  0  0
   -3.9777   -1.2314    5.7218 C   0  0  2  0  0  0  0  0  0  0  0  0
   -3.6600   -1.2541    4.2610 C   0  0  2  0  0  0  0  0  0  0  0  0
   -2.9645   -0.0590    3.9569 O   0  0  0  0  0  0  0  0  0  0  0  0
   -4.9447   -1.3593    3.4610 C   0  0  1  0  0  0  0  0  0  0  0  0
   -4.6982   -1.4694    2.0717 O   0  0  0  0  0  0  0  0  0  0  0  0
   -2.4620    0.0975    2.6340 C   0  0  1  0  0  0  0  0  0  0  0  0
   -2.6904    1.5516    2.2161 C   0  0  2  0  0  0  0  0  0  0  0  0
   -3.0044    1.5985    0.8370 O   0  0  0  0  0  0  0  0  0  0  0  0
   -1.3412    2.2055    2.5435 C   0  0  2  0  0  0  0  0  0  0  0  0
   -1.1246    3.4184    1.8219 O   0  0  0  0  0  0  0  0  0  0  0  0
   -0.3931    1.0580    2.1741 C   0  0  2  0  0  0  0  0  0  0  0  0
   -1.0558   -0.1137    2.6286 O   0  0  0  0  0  0  0  0  0  0  0  0
    0.9868    1.1386    2.8373 C   0  0  0  0  0  0  0  0  0  0  0  0
    1.8693    0.1647    2.3217 O   0  0  0  0  0  0  0  0  0  0  0  0
   -2.2161    4.3355    1.8597 C   0  0  2  0  0  0  0  0  0  0  0  0
   -1.9179    5.6110    1.0569 C   0  0  2  0  0  0  0  0  0  0  0  0
   -1.5410    5.2847   -0.3286 N   0  0  0  0  0  0  0  0  0  0  0  0
   -0.8409    6.4614    1.7472 C   0  0  1  0  0  0  0  0  0  0  0  0
   -0.6708    7.6580    1.0124 O   0  0  0  0  0  0  0  0  0  0  0  0
   -1.3138    6.7789    3.1760 C   0  0  2  0  0  0  0  0  0  0  0  0
   -0.3351    7.5274    3.8733 O   0  0  0  0  0  0  0  0  0  0  0  0
   -1.6533    5.4860    3.9460 C   0  0  1  0  0  0  0  0  0  0  0  0
   -2.5540    4.6580    3.2068 O   0  0  0  0  0  0  0  0  0  0  0  0
   -0.4117    4.7106    4.4110 C   0  0  0  0  0  0  0  0  0  0  0  0
    0.4105    5.5156    5.3287 N   0  0  0  0  0  0  0  0  0  0  0  0
  1  3  1  0  0  0  0
  1  2  1  1  0  0  0
  3  4  1  1  0  0  0
  5  6  1  1  0  0  0
  5  3  1  0  0  0  0
  7  9  1  0  0  0  0
  7  5  1  0  0  0  0
  7  8  1  1  0  0  0
  9 10  1  0  0  0  0
  9 11  1  6  0  0  0
 10  1  1  0  0  0  0
 11 12  1  0  0  0  0
 13 14  1  6  0  0  0
 13 21  1  0  0  0  0
 15 13  1  0  0  0  0
 16 15  1  0  0  0  0
 16 18  1  0  0  0  0
 16 17  1  1  0  0  0
 18  2  1  1  0  0  0
 18 19  1  0  0  0  0
 19 21  1  0  0  0  0
 19 20  1  6  0  0  0
 21 22  1  6  0  0  0
 23 20  1  1  0  0  0
 23 29  1  0  0  0  0
 23 24  1  0  0  0  0
 24 26  1  0  0  0  0
 24 25  1  6  0  0  0
 26 27  1  6  0  0  0
 28 26  1  0  0  0  0
 28 30  1  1  0  0  0
 29 28  1  0  0  0  0
 30 31  1  0  0  0  0
 32 27  1  1  0  0  0
 32 40  1  0  0  0  0
 32 33  1  0  0  0  0
 33 35  1  0  0  0  0
 33 34  1  6  0  0  0
 35 37  1  0  0  0  0
 35 36  1  6  0  0  0
 37 38  1  1  0  0  0
 39 37  1  0  0  0  0
 39 41  1  6  0  0  0
 40 39  1  0  0  0  0
 42 41  1  0  0  0  0
M  END
>  <CHROM.1>
166.07676895,-173.63002106,155.03602041,-58.99144074,67.81484676,178.20990110
-175.27914872,-52.31074014,64.38503879,175.17821554,139.97579792,-60.49581115
-55.95081931,48.54768466,-179.62810038,-171.97392843,65.22714592,172.33390069
-58.72356277,46.29144759,61.00382579,-33.25164455,-2.18963786,1.61996239
4.40350803,-2.23897580,-0.99671257,-1.07659704

>  <Name>
lig.pdb

>  <RI>
0

>  <Rbt.Current_Directory>
/home/itssahil/PROJECTS/Mol_Feturizer/New_Systems/rnas/2mxs

>  <Rbt.Executable>
rbdock ($Id: //depot/dev/client3/rdock/2013.1/src/exe/rbdock.cxx#4 $)

>  <Rbt.Library>
libRbt.so (2013.1, Build901 2013/11/27)

>  <Rbt.Parameter_File>
/export/apps/rDock/src/rDock_2013.1_src/data/scripts/dock_solv.prm

>  <Rbt.Receptor>
prm/pocket_docking_7.prm

>  <SCORE>
-42.2158

>  <SCORE.INTER>
-39.8196

>  <SCORE.INTER.CONST>
1

>  <SCORE.INTER.POLAR>
-5.66775

>  <SCORE.INTER.ROT>
9

>  <SCORE.INTER.SOLV>
19.5854

>  <SCORE.INTER.VDW>
-23.7824

>  <SCORE.INTER.norm>
-0.948087

>  <SCORE.INTRA>
-2.45435

>  <SCORE.INTRA.DIHEDRAL>
-17.2327

>  <SCORE.INTRA.DIHEDRAL.0>
30.1357

>  <SCORE.INTRA.POLAR>
-0.229691

>  <SCORE.INTRA.POLAR.0>
-0.631696

>  <SCORE.INTRA.REPUL>
0

>  <SCORE.INTRA.REPUL.0>
0

>  <SCORE.INTRA.SOLV>
-1.09463

>  <SCORE.INTRA.SOLV.lig_0>
-55.904

>  <SCORE.INTRA.VDW>
7.49027

>  <SCORE.INTRA.VDW.0>
-8.21197

>  <SCORE.INTRA.norm>
-0.0584368

>  <SCORE.RESTR>
0.0581793

>  <SCORE.RESTR.CAVITY>
0.0581793

>  <SCORE.RESTR.norm>
0.00138522

>  <SCORE.SYSTEM>
0

>  <SCORE.SYSTEM.CONST>
0

>  <SCORE.SYSTEM.DIHEDRAL>
0

>  <SCORE.SYSTEM.SOLV>
0

>  <SCORE.SYSTEM.norm>
0

>  <SCORE.heavy>
42

>  <SCORE.norm>
-1.00514

>  <RMSD>
7.976

$$$$
lig.pdb
 OpenBabel11021811453D
libRbt.so/2013.1/901 2013/11/27
 42 45  0  0  0  0  0  0  0  0999 V2000
   -2.0837    4.9538    1.7657 C   0  0  2  0  0  0  0  0  0  0  0  0
   -2.0099    6.1772    1.0314 O   0  0  0  0  0  0  0  0  0  0  0  0
   -3.4433    4.8182    2.4678 C   0  0  2  0  0  0  0  0  0  0  0  0
   -4.5519    4.9545    1.5050 N   0  0  0  0  0  0  0  0  0  0  0  0
   -3.5767    5.8347    3.6090 C   0  0  1  0  0  0  0  0  0  0  0  0
   -4.7692    5.5811    4.3269 O   0  0  0  0  0  0  0  0  0  0  0  0
   -2.3764    5.7259    4.5615 C   0  0  2  0  0  0  0  0  0  0  0  0
   -2.4367    6.7716    5.5125 O   0  0  0  0  0  0  0  0  0  0  0  0
   -1.0392    5.7927    3.7961 C   0  0  2  0  0  0  0  0  0  0  0  0
   -1.0195    4.8670    2.7100 O   0  0  0  0  0  0  0  0  0  0  0  0
    0.0952    5.4601    4.7840 C   0  0  0  0  0  0  0  0  0  0  0  0
   -0.0840    4.1596    5.4060 O   0  0  0  0  0  0  0  0  0  0  0  0
    1.0867    7.7798   -1.4931 C   0  0  2  0  0  0  0  0  0  0  0  0
    2.5005    7.9652   -1.8767 N   0  0  0  0  0  0  0  0  0  0  0  0
    0.8409    8.3293   -0.0857 C   0  0  0  0  0  0  0  0  0  0  0  0
   -0.5785    8.0160    0.3725 C   0  0  2  0  0  0  0  0  0  0  0  0
   -0.8362    8.6310    1.6807 N   0  0  0  0  0  0  0  0  0  0  0  0
   -0.7525    6.4799    0.4097 C   0  0  2  0  0  0  0  0  0  0  0  0
   -0.6718    5.9603   -0.9900 C   0  0  2  0  0  0  0  0  0  0  0  0
   -0.8749    4.5601   -0.9377 O   0  0  0  0  0  0  0  0  0  0  0  0
    0.6844    6.2956   -1.5813 C   0  0  1  0  0  0  0  0  0  0  0  0
    0.7859    5.9002   -2.9364 O   0  0  0  0  0  0  0  0  0  0  0  0
   -0.2281    3.7592   -1.9211 C   0  0  1  0  0  0  0  0  0  0  0  0
    1.0349    3.1711   -1.2883 C   0  0  2  0  0  0  0  0  0  0  0  0
    2.0591    3.1045   -2.2627 O   0  0  0  0  0  0  0  0  0  0  0  0
    0.5596    1.7869   -0.8266 C   0  0  2  0  0  0  0  0  0  0  0  0
    1.6348    0.8654   -0.6433 O   0  0  0  0  0  0  0  0  0  0  0  0
   -0.3987    1.4391   -1.9723 C   0  0  2  0  0  0  0  0  0  0  0  0
   -1.0620    2.6604   -2.2669 O   0  0  0  0  0  0  0  0  0  0  0  0
   -1.4459    0.3759   -1.6209 C   0  0  0  0  0  0  0  0  0  0  0  0
   -2.1126    0.6814   -0.4146 O   0  0  0  0  0  0  0  0  0  0  0  0
    2.6383    1.2976    0.2735 C   0  0  2  0  0  0  0  0  0  0  0  0
    4.0413    1.2463   -0.3502 C   0  0  2  0  0  0  0  0  0  0  0  0
    4.0899    2.0214   -1.6011 N   0  0  0  0  0  0  0  0  0  0  0  0
    4.4978   -0.2040   -0.5693 C   0  0  1  0  0  0  0  0  0  0  0  0
    5.8235   -0.1904   -1.0624 O   0  0  0  0  0  0  0  0  0  0  0  0
    4.4411   -0.9407    0.7797 C   0  0  2  0  0  0  0  0  0  0  0  0
    4.8123   -2.2982    0.6255 O   0  0  0  0  0  0  0  0  0  0  0  0
    3.0367   -0.8342    1.4090 C   0  0  1  0  0  0  0  0  0  0  0  0
    2.5921    0.5230    1.4696 O   0  0  0  0  0  0  0  0  0  0  0  0
    1.9992   -1.7485    0.7409 C   0  0  0  0  0  0  0  0  0  0  0  0
    1.8019   -1.3917   -0.6733 N   0  0  0  0  0  0  0  0  0  0  0  0
  1  3  1  0  0  0  0
  1  2  1  1  0  0  0
  3  4  1  6  0  0  0
  5  6  1  1  0  0  0
  5  3  1  0  0  0  0
  7  9  1  0  0  0  0
  7  5  1  0  0  0  0
  7  8  1  1  0  0  0
  9 10  1  0  0  0  0
  9 11  1  1  0  0  0
 10  1  1  0  0  0  0
 11 12  1  0  0  0  0
 13 14  1  1  0  0  0
 13 21  1  0  0  0  0
 15 13  1  0  0  0  0
 16 15  1  0  0  0  0
 16 18  1  0  0  0  0
 16 17  1  1  0  0  0
 18  2  1  6  0  0  0
 18 19  1  0  0  0  0
 19 21  1  0  0  0  0
 19 20  1  1  0  0  0
 21 22  1  6  0  0  0
 23 20  1  1  0  0  0
 23 29  1  0  0  0  0
 23 24  1  0  0  0  0
 24 26  1  0  0  0  0
 24 25  1  6  0  0  0
 26 27  1  6  0  0  0
 28 26  1  0  0  0  0
 28 30  1  1  0  0  0
 29 28  1  0  0  0  0
 30 31  1  0  0  0  0
 32 27  1  6  0  0  0
 32 40  1  0  0  0  0
 32 33  1  0  0  0  0
 33 35  1  0  0  0  0
 33 34  1  6  0  0  0
 35 37  1  0  0  0  0
 35 36  1  1  0  0  0
 37 38  1  6  0  0  0
 39 37  1  0  0  0  0
 39 41  1  6  0  0  0
 40 39  1  0  0  0  0
 42 41  1  0  0  0  0
M  END
>  <CHROM.1>
-148.95705186,175.34701698,64.82266206,66.09238528,78.25281671,-54.74587702
57.30921010,-164.11788022,53.98214815,-149.40041041,99.19430677,62.38139429
64.08500419,56.76102679,-126.52917932,49.98681681,54.97482074,-64.99048885
-50.34083297,56.77804963,-62.28871173,59.47349000,0.35324406,3.56782139,0.52090145
2.70021089,0.85602108,-0.58493694

>  <Name>
lig.pdb

>  <RI>
0

>  <Rbt.Current_Directory>
/home/itssahil/PROJECTS/Mol_Feturizer/New_Systems/rnas/2mxs

>  <Rbt.Executable>
rbdock ($Id: //depot/dev/client3/rdock/2013.1/src/exe/rbdock.cxx#4 $)

>  <Rbt.Library>
libRbt.so (2013.1, Build901 2013/11/27)

>  <Rbt.Parameter_File>
/export/apps/rDock/src/rDock_2013.1_src/data/scripts/dock_solv.prm

>  <Rbt.Receptor>
prm/blind_docking_60.prm

>  <SCORE>
116.417

>  <SCORE.INTER>
86.4247

>  <SCORE.INTER.CONST>
1

>  <SCORE.INTER.POLAR>
-3.24916

>  <SCORE.INTER.ROT>
9

>  <SCORE.INTER.SOLV>
36.0191

>  <SCORE.INTER.VDW>
46.8406

>  <SCORE.INTER.norm>
2.05773

>  <SCORE.INTRA>
10.4914

>  <SCORE.INTRA.DIHEDRAL>
-5.72846

>  <SCORE.INTRA.DIHEDRAL.0>
30.1357

>  <SCORE.INTRA.POLAR>
0.483884

>  <SCORE.INTRA.POLAR.0>
-0.631696

>  <SCORE.INTRA.REPUL>
0

>  <SCORE.INTRA.REPUL.0>
0

>  <SCORE.INTRA.SOLV>
2.4999

>  <SCORE.INTRA.SOLV.lig_0>
-55.904

>  <SCORE.INTRA.VDW>
10.4605

>  <SCORE.INTRA.VDW.0>
-8.21197

>  <SCORE.INTRA.norm>
0.249795

>  <SCORE.RESTR>
19.501

>  <SCORE.RESTR.CAVITY>
19.501

>  <SCORE.RESTR.norm>
0.46431

>  <SCORE.SYSTEM>
0

>  <SCORE.SYSTEM.CONST>
0

>  <SCORE.SYSTEM.DIHEDRAL>
0

>  <SCORE.SYSTEM.SOLV>
0

>  <SCORE.SYSTEM.norm>
0

>  <SCORE.heavy>
42

>  <SCORE.norm>
2.77184

>  <RMSD>
7.980

$$$$
lig.pdb
 OpenBabel11021811453D
libRbt.so/2013.1/901 2013/11/27
 42 45  0  0  0  0  0  0  0  0999 V2000
   -2.8094    3.9468    0.7335 C   0  0  2  0  0  0  0  0  0  0  0  0
   -3.2706    5.1699    1.3104 O   0  0  0  0  0  0  0  0  0  0  0  0
   -3.8187    2.8139    0.9734 C   0  0  2  0  0  0  0  0  0  0  0  0
   -5.1589    3.1869    0.4842 N   0  0  0  0  0  0  0  0  0  0  0  0
   -3.8629    2.4216    2.4559 C   0  0  1  0  0  0  0  0  0  0  0  0
   -4.6837    1.2803    2.6154 O   0  0  0  0  0  0  0  0  0  0  0  0
   -2.4484    2.1064    2.9653 C   0  0  2  0  0  0  0  0  0  0  0  0
   -2.4891    1.9024    4.3647 O   0  0  0  0  0  0  0  0  0  0  0  0
   -1.4609    3.2430    2.6318 C   0  0  2  0  0  0  0  0  0  0  0  0
   -1.5282    3.5964    1.2506 O   0  0  0  0  0  0  0  0  0  0  0  0
   -0.0395    2.7590    2.9764 C   0  0  0  0  0  0  0  0  0  0  0  0
    0.5647    3.5456    4.0378 O   0  0  0  0  0  0  0  0  0  0  0  0
   -1.5584    7.8098    4.2481 C   0  0  2  0  0  0  0  0  0  0  0  0
   -0.5050    8.1962    5.2079 N   0  0  0  0  0  0  0  0  0  0  0  0
   -2.1731    6.4654    4.6456 C   0  0  0  0  0  0  0  0  0  0  0  0
   -3.1605    5.9921    3.5855 C   0  0  2  0  0  0  0  0  0  0  0  0
   -3.8168    4.7530    4.0211 N   0  0  0  0  0  0  0  0  0  0  0  0
   -2.3965    5.8063    2.2539 C   0  0  2  0  0  0  0  0  0  0  0  0
   -1.9328    7.1475    1.7829 C   0  0  2  0  0  0  0  0  0  0  0  0
   -1.2735    6.9602    0.5441 O   0  0  0  0  0  0  0  0  0  0  0  0
   -1.0006    7.7559    2.8134 C   0  0  1  0  0  0  0  0  0  0  0  0
   -0.5965    9.0648    2.4575 O   0  0  0  0  0  0  0  0  0  0  0  0
    0.1396    6.7881    0.5645 C   0  0  1  0  0  0  0  0  0  0  0  0
    0.4264    5.2920    0.7090 C   0  0  2  0  0  0  0  0  0  0  0  0
    1.5774    5.1115    1.5124 O   0  0  0  0  0  0  0  0  0  0  0  0
    0.6397    4.8542   -0.7462 C   0  0  2  0  0  0  0  0  0  0  0  0
    1.3800    3.6381   -0.8553 O   0  0  0  0  0  0  0  0  0  0  0  0
    1.3546    6.0950   -1.2951 C   0  0  2  0  0  0  0  0  0  0  0  0
    0.6885    7.1910   -0.6840 O   0  0  0  0  0  0  0  0  0  0  0  0
    1.2742    6.2500   -2.8182 C   0  0  0  0  0  0  0  0  0  0  0  0
    2.0488    7.3397   -3.2717 O   0  0  0  0  0  0  0  0  0  0  0  0
    2.4985    3.5422    0.0245 C   0  0  2  0  0  0  0  0  0  0  0  0
    3.7469    3.0099   -0.6955 C   0  0  2  0  0  0  0  0  0  0  0  0
    4.0636    3.8310   -1.8760 N   0  0  0  0  0  0  0  0  0  0  0  0
    3.5826    1.5288   -1.0684 C   0  0  1  0  0  0  0  0  0  0  0  0
    4.7896    1.0726   -1.6478 O   0  0  0  0  0  0  0  0  0  0  0  0
    3.2765    0.7358    0.2135 C   0  0  2  0  0  0  0  0  0  0  0  0
    3.0728   -0.6340   -0.0810 O   0  0  0  0  0  0  0  0  0  0  0  0
    2.0490    1.3183    0.9440 C   0  0  1  0  0  0  0  0  0  0  0  0
    2.1825    2.7264    1.1504 O   0  0  0  0  0  0  0  0  0  0  0  0
    0.7147    0.9609    0.2725 C   0  0  0  0  0  0  0  0  0  0  0  0
    0.5237   -0.4967    0.2014 N   0  0  0  0  0  0  0  0  0  0  0  0
  1  3  1  0  0  0  0
  1  2  1  1  0  0  0
  3  4  1  1  0  0  0
  5  6  1  6  0  0  0
  5  3  1  0  0  0  0
  7  9  1  0  0  0  0
  7  5  1  0  0  0  0
  7  8  1  1  0  0  0
  9 10  1  0  0  0  0
  9 11  1  6  0  0  0
 10  1  1  0  0  0  0
 11 12  1  0  0  0  0
 13 14  1  1  0  0  0
 13 21  1  0  0  0  0
 15 13  1  0  0  0  0
 16 15  1  0  0  0  0
 16 18  1  0  0  0  0
 16 17  1  1  0  0  0
 18  2  1  6  0  0  0
 18 19  1  0  0  0  0
 19 21  1  0  0  0  0
 19 20  1  6  0  0  0
 21 22  1  6  0  0  0
 23 20  1  6  0  0  0
 23 29  1  0  0  0  0
 23 24  1  0  0  0  0
 24 26  1  0  0  0  0
 24 25  1  1  0  0  0
 26 27  1  1  0  0  0
 28 26  1  0  0  0  0
 28 30  1  6  0  0  0
 29 28  1  0  0  0  0
 30 31  1  0  0  0  0
 32 27  1  6  0  0  0
 32 40  1  0  0  0  0
 32 33  1  0  0  0  0
 33 35  1  0  0  0  0
 33 34  1  6  0  0  0
 35 37  1  0  0  0  0
 35 36  1  1  0  0  0
 37 38  1  6  0  0  0
 39 37  1  0  0  0  0
 39 41  1  6  0  0  0
 40 39  1  0  0  0  0
 42 41  1  0  0  0  0
M  END
>  <CHROM.1>
-123.46237448,123.82181622,-5.58844288,-170.31143964,175.93233265,65.59622004
-116.31092435,50.52840534,-58.11649701,-93.70138236,89.43069957,19.40177565
112.43338162,-42.46086866,-135.05326666,-174.71198712,-69.20938452,74.66002513
52.53519704,49.90955498,59.18787971,82.98253990,-0.20905543,4.17019001,1.16971919
2.72633042,0.61709285,-0.01787562

>  <Name>
lig.pdb

>  <RI>
3.17932e+07

>  <Rbt.Current_Directory>
/home/itssahil/PROJECTS/Mol_Feturizer/New_Systems/rnas/2mxs

>  <Rbt.Executable>
rbdock ($Id: //depot/dev/client3/rdock/2013.1/src/exe/rbdock.cxx#4 $)

>  <Rbt.Library>
libRbt.so (2013.1, Build901 2013/11/27)

>  <Rbt.Parameter_File>
/export/apps/rDock/src/rDock_2013.1_src/data/scripts/dock_solv.prm

>  <Rbt.Receptor>
prm/blind_docking_100.prm

>  <SCORE>
51.4375

>  <SCORE.INTER>
3.58543

>  <SCORE.INTER.CONST>
1

>  <SCORE.INTER.POLAR>
-3.19355

>  <SCORE.INTER.ROT>
9

>  <SCORE.INTER.SOLV>
33.4755

>  <SCORE.INTER.VDW>
-7.72308

>  <SCORE.INTER.norm>
0.0853673

>  <SCORE.INTRA>
25.2632

>  <SCORE.INTRA.DIHEDRAL>
24.4876

>  <SCORE.INTRA.DIHEDRAL.0>
30.1357

>  <SCORE.INTRA.POLAR>
-1.50198

>  <SCORE.INTRA.POLAR.0>
-0.631696

>  <SCORE.INTRA.REPUL>
0

>  <SCORE.INTRA.REPUL.0>
0

>  <SCORE.INTRA.SOLV>
4.42541

>  <SCORE.INTRA.SOLV.lig_0>
-55.904

>  <SCORE.INTRA.VDW>
15.9135

>  <SCORE.INTRA.VDW.0>
-8.21197

>  <SCORE.INTRA.norm>
0.601506

>  <SCORE.RESTR>
22.5888

>  <SCORE.RESTR.CAVITY>
22.5888

>  <SCORE.RESTR.norm>
0.537829

>  <SCORE.SYSTEM>
0

>  <SCORE.SYSTEM.CONST>
0

>  <SCORE.SYSTEM.DIHEDRAL>
0

>  <SCORE.SYSTEM.SOLV>
0

>  <SCORE.SYSTEM.norm>
0

>  <SCORE.heavy>
42

>  <SCORE.norm>
1.2247

>  <RMSD>
7.984

$$$$
lig.pdb
 OpenBabel11021811453D
libRbt.so/2013.1/901 2013/11/27
 42 45  0  0  0  0  0  0  0  0999 V2000
   -1.2837    4.7447    1.4771 C   0  0  2  0  0  0  0  0  0  0  0  0
   -1.5226    5.9853    0.8098 O   0  0  0  0  0  0  0  0  0  0  0  0
   -2.6032    4.1111    1.9433 C   0  0  2  0  0  0  0  0  0  0  0  0
   -3.5454    3.9632    0.8186 N   0  0  0  0  0  0  0  0  0  0  0  0
   -3.2302    4.9230    3.0840 C   0  0  1  0  0  0  0  0  0  0  0  0
   -4.3566    4.2315    3.5886 O   0  0  0  0  0  0  0  0  0  0  0  0
   -2.2104    5.1277    4.2144 C   0  0  2  0  0  0  0  0  0  0  0  0
   -2.7523    6.0078    5.1805 O   0  0  0  0  0  0  0  0  0  0  0  0
   -0.8797    5.6949    3.6797 C   0  0  2  0  0  0  0  0  0  0  0  0
   -0.3968    4.9265    2.5781 O   0  0  0  0  0  0  0  0  0  0  0  0
    0.1490    5.6643    4.8261 C   0  0  0  0  0  0  0  0  0  0  0  0
    0.3119    4.3315    5.3805 O   0  0  0  0  0  0  0  0  0  0  0  0
    1.1102    8.5329   -1.4504 C   0  0  2  0  0  0  0  0  0  0  0  0
    2.4308    9.1270   -1.7394 N   0  0  0  0  0  0  0  0  0  0  0  0
    0.6557    8.9082   -0.0377 C   0  0  0  0  0  0  0  0  0  0  0  0
   -0.6377    8.1855    0.3198 C   0  0  2  0  0  0  0  0  0  0  0  0
   -1.1174    8.6261    1.6357 N   0  0  0  0  0  0  0  0  0  0  0  0
   -0.3740    6.6623    0.2791 C   0  0  2  0  0  0  0  0  0  0  0  0
   -0.0866    6.2693   -1.1346 C   0  0  2  0  0  0  0  0  0  0  0  0
    0.1102    4.8674   -1.1561 O   0  0  0  0  0  0  0  0  0  0  0  0
    1.1461    7.0033   -1.6277 C   0  0  1  0  0  0  0  0  0  0  0  0
    1.4164    6.7324   -2.9902 O   0  0  0  0  0  0  0  0  0  0  0  0
    1.0297    4.3414   -2.1073 C   0  0  1  0  0  0  0  0  0  0  0  0
    2.1718    3.6769   -1.3356 C   0  0  2  0  0  0  0  0  0  0  0  0
    3.3870    3.8787   -2.0322 O   0  0  0  0  0  0  0  0  0  0  0  0
    1.7383    2.2051   -1.3058 C   0  0  2  0  0  0  0  0  0  0  0  0
    2.8282    1.3118   -1.0757 O   0  0  0  0  0  0  0  0  0  0  0  0
    1.0927    2.0901   -2.6922 C   0  0  2  0  0  0  0  0  0  0  0  0
    0.3991    3.3177   -2.8666 O   0  0  0  0  0  0  0  0  0  0  0  0
    0.0981    0.9319   -2.8331 C   0  0  0  0  0  0  0  0  0  0  0  0
   -1.2030    1.3129   -2.4393 O   0  0  0  0  0  0  0  0  0  0  0  0
    3.1860    1.1515    0.2956 C   0  0  2  0  0  0  0  0  0  0  0  0
    3.9850   -0.1396    0.5296 C   0  0  2  0  0  0  0  0  0  0  0  0
    5.1707   -0.1900   -0.3420 N   0  0  0  0  0  0  0  0  0  0  0  0
    3.0990   -1.3809    0.3461 C   0  0  1  0  0  0  0  0  0  0  0  0
    3.8623   -2.5304    0.6572 O   0  0  0  0  0  0  0  0  0  0  0  0
    1.8984   -1.2669    1.3008 C   0  0  2  0  0  0  0  0  0  0  0  0
    1.0242   -2.3689    1.1408 O   0  0  0  0  0  0  0  0  0  0  0  0
    1.1407    0.0586    1.0802 C   0  0  1  0  0  0  0  0  0  0  0  0
    2.0255    1.1805    1.1235 O   0  0  0  0  0  0  0  0  0  0  0  0
    0.2736    0.0604   -0.1874 C   0  0  0  0  0  0  0  0  0  0  0  0
   -1.0797   -0.4486    0.0881 N   0  0  0  0  0  0  0  0  0  0  0  0
  1  3  1  0  0  0  0
  1  2  1  1  0  0  0
  3  4  1  6  0  0  0
  5  6  1  1  0  0  0
  5  3  1  0  0  0  0
  7  9  1  0  0  0  0
  7  5  1  0  0  0  0
  7  8  1  1  0  0  0
  9 10  1  0  0  0  0
  9 11  1  1  0  0  0
 10  1  1  0  0  0  0
 11 12  1  0  0  0  0
 13 14  1  1  0  0  0
 13 21  1  0  0  0  0
 15 13  1  0  0  0  0
 16 15  1  0  0  0  0
 16 18  1  0  0  0  0
 16 17  1  1  0  0  0
 18  2  1  6  0  0  0
 18 19  1  0  0  0  0
 19 21  1  0  0  0  0
 19 20  1  1  0  0  0
 21 22  1  6  0  0  0
 23 20  1  1  0  0  0
 23 29  1  0  0  0  0
 23 24  1  0  0  0  0
 24 26  1  0  0  0  0
 24 25  1  6  0  0  0
 26 27  1  6  0  0  0
 28 26  1  0  0  0  0
 28 30  1  1  0  0  0
 29 28  1  0  0  0  0
 30 31  1  0  0  0  0
 32 27  1  6  0  0  0
 32 40  1  0  0  0  0
 32 33  1  0  0  0  0
 33 35  1  0  0  0  0
 33 34  1  6  0  0  0
 35 37  1  0  0  0  0
 35 36  1  1  0  0  0
 37 38  1  6  0  0  0
 39 37  1  0  0  0  0
 39 41  1  6  0  0  0
 40 39  1  0  0  0  0
 42 41  1  0  0  0  0
M  END
>  <CHROM.1>
-149.31657355,-177.83962751,42.32001538,175.40187114,-176.00210434,56.61399351
56.15980680,-173.93799625,-39.46295657,-147.62286388,117.09328446,-23.53482337
-70.15804996,82.74101169,159.88909510,87.53005018,176.10115131,58.56108358
-56.21841144,-48.75761661,88.88241242,74.53232326,0.42877062,3.58760302,0.41040711
2.31242647,0.90552979,-0.37827672

>  <Name>
lig.pdb

>  <RI>
3.17932e+07

>  <Rbt.Current_Directory>
/home/itssahil/PROJECTS/Mol_Feturizer/New_Systems/rnas/2mxs

>  <Rbt.Executable>
rbdock ($Id: //depot/dev/client3/rdock/2013.1/src/exe/rbdock.cxx#4 $)

>  <Rbt.Library>
libRbt.so (2013.1, Build901 2013/11/27)

>  <Rbt.Parameter_File>
/export/apps/rDock/src/rDock_2013.1_src/data/scripts/dock_solv.prm

>  <Rbt.Receptor>
prm/blind_docking_100.prm

>  <SCORE>
154.382

>  <SCORE.INTER>
120.318

>  <SCORE.INTER.CONST>
1

>  <SCORE.INTER.POLAR>
-2.50067

>  <SCORE.INTER.ROT>
9

>  <SCORE.INTER.SOLV>
34.4756

>  <SCORE.INTER.VDW>
67.456

>  <SCORE.INTER.norm>
2.86473

>  <SCORE.INTRA>
15.3366

>  <SCORE.INTRA.DIHEDRAL>
2.44949

>  <SCORE.INTRA.DIHEDRAL.0>
30.1357

>  <SCORE.INTRA.POLAR>
0.506034

>  <SCORE.INTRA.POLAR.0>
-0.631696

>  <SCORE.INTRA.REPUL>
0

>  <SCORE.INTRA.REPUL.0>
0

>  <SCORE.INTRA.SOLV>
0.673705

>  <SCORE.INTRA.SOLV.lig_0>
-55.904

>  <SCORE.INTRA.VDW>
12.0545

>  <SCORE.INTRA.VDW.0>
-8.21197

>  <SCORE.INTRA.norm>
0.365157

>  <SCORE.RESTR>
18.7268

>  <SCORE.RESTR.CAVITY>
18.7268

>  <SCORE.RESTR.norm>
0.445877

>  <SCORE.SYSTEM>
0

>  <SCORE.SYSTEM.CONST>
0

>  <SCORE.SYSTEM.DIHEDRAL>
0

>  <SCORE.SYSTEM.SOLV>
0

>  <SCORE.SYSTEM.norm>
0

>  <SCORE.heavy>
42

>  <SCORE.norm>
3.67576

>  <RMSD>
7.985

$$$$
lig.pdb
 OpenBabel11021811453D
libRbt.so/2013.1/901 2013/11/27
 42 45  0  0  0  0  0  0  0  0999 V2000
   -1.1308    2.1228    5.1260 C   0  0  2  0  0  0  0  0  0  0  0  0
   -1.4446    0.9151    5.8220 O   0  0  0  0  0  0  0  0  0  0  0  0
   -0.2691    3.0486    5.9978 C   0  0  2  0  0  0  0  0  0  0  0  0
    0.9407    2.3526    6.4735 N   0  0  0  0  0  0  0  0  0  0  0  0
   -1.0802    3.6091    7.1732 C   0  0  1  0  0  0  0  0  0  0  0  0
   -0.3050    4.5711    7.8624 O   0  0  0  0  0  0  0  0  0  0  0  0
   -2.3714    4.2666    6.6631 C   0  0  2  0  0  0  0  0  0  0  0  0
   -3.1773    4.6343    7.7663 O   0  0  0  0  0  0  0  0  0  0  0  0
   -3.1588    3.3208    5.7337 C   0  0  2  0  0  0  0  0  0  0  0  0
   -2.3202    2.7885    4.7088 O   0  0  0  0  0  0  0  0  0  0  0  0
   -4.3109    4.1227    5.0990 C   0  0  0  0  0  0  0  0  0  0  0  0
   -5.1198    3.3082    4.2088 O   0  0  0  0  0  0  0  0  0  0  0  0
   -3.1422   -2.7330    4.2921 C   0  0  2  0  0  0  0  0  0  0  0  0
   -4.1433   -3.4864    3.5107 N   0  0  0  0  0  0  0  0  0  0  0  0
   -3.8256   -1.9430    5.4110 C   0  0  0  0  0  0  0  0  0  0  0  0
   -2.8194   -1.0541    6.1324 C   0  0  2  0  0  0  0  0  0  0  0  0
   -3.4625   -0.3759    7.2648 N   0  0  0  0  0  0  0  0  0  0  0  0
   -2.2339   -0.0505    5.1120 C   0  0  2  0  0  0  0  0  0  0  0  0
   -1.4303   -0.8117    4.1068 C   0  0  2  0  0  0  0  0  0  0  0  0
   -0.8701    0.1281    3.2083 O   0  0  0  0  0  0  0  0  0  0  0  0
   -2.3246   -1.7987    3.3805 C   0  0  1  0  0  0  0  0  0  0  0  0
   -1.5979   -2.6068    2.4739 O   0  0  0  0  0  0  0  0  0  0  0  0
   -1.7648    0.9278    2.4422 C   0  0  1  0  0  0  0  0  0  0  0  0
   -0.9941    2.1576    1.9571 C   0  0  2  0  0  0  0  0  0  0  0  0
   -1.8577    3.2787    1.9510 O   0  0  0  0  0  0  0  0  0  0  0  0
   -0.5526    1.7368    0.5489 C   0  0  2  0  0  0  0  0  0  0  0  0
   -0.2406    2.8501   -0.2889 O   0  0  0  0  0  0  0  0  0  0  0  0
   -1.7818    0.9286    0.1154 C   0  0  2  0  0  0  0  0  0  0  0  0
   -2.1691    0.2141    1.2806 O   0  0  0  0  0  0  0  0  0  0  0  0
   -1.5152   -0.0711   -1.0160 C   0  0  0  0  0  0  0  0  0  0  0  0
   -2.6835   -0.7808   -1.3690 O   0  0  0  0  0  0  0  0  0  0  0  0
    0.5716    3.8480    0.3264 C   0  0  2  0  0  0  0  0  0  0  0  0
    1.0602    4.8921   -0.6890 C   0  0  2  0  0  0  0  0  0  0  0  0
   -0.0729    5.4948   -1.4107 N   0  0  0  0  0  0  0  0  0  0  0  0
    2.0855    4.2850   -1.6585 C   0  0  1  0  0  0  0  0  0  0  0  0
    2.5621    5.3085   -2.5107 O   0  0  0  0  0  0  0  0  0  0  0  0
    3.2444    3.6974   -0.8355 C   0  0  2  0  0  0  0  0  0  0  0  0
    4.2001    3.0850   -1.6816 O   0  0  0  0  0  0  0  0  0  0  0  0
    2.7245    2.6885    0.2092 C   0  0  1  0  0  0  0  0  0  0  0  0
    1.6756    3.2497    1.0019 O   0  0  0  0  0  0  0  0  0  0  0  0
    2.3238    1.3357   -0.3977 C   0  0  0  0  0  0  0  0  0  0  0  0
    3.4925    0.4576   -0.5687 N   0  0  0  0  0  0  0  0  0  0  0  0
  1  3  1  0  0  0  0
  1  2  1  1  0  0  0
  3  4  1  1  0  0  0
  5  6  1  6  0  0  0
  5  3  1  0  0  0  0
  7  9  1  0  0  0  0
  7  5  1  0  0  0  0
  7  8  1  1  0  0  0
  9 10  1  0  0  0  0
  9 11  1  6  0  0  0
 10  1  1  0  0  0  0
 11 12  1  0  0  0  0
 13 14  1  6  0  0  0
 13 21  1  0  0  0  0
 15 13  1  0  0  0  0
 16 15  1  0  0  0  0
 16 18  1  0  0  0  0
 16 17  1  1  0  0  0
 18  2  1  1  0  0  0
 18 19  1  0  0  0  0
 19 21  1  0  0  0  0
 19 20  1  6  0  0  0
 21 22  1  6  0  0  0
 23 20  1  1  0  0  0
 23 29  1  0  0  0  0
 23 24  1  0  0  0  0
 24 26  1  0  0  0  0
 24 25  1  6  0  0  0
 26 27  1  6  0  0  0
 28 26  1  0  0  0  0
 28 30  1  6  0  0  0
 29 28  1  0  0  0  0
 30 31  1  0  0  0  0
 32 27  1  6  0  0  0
 32 40  1  0  0  0  0
 32 33  1  0  0  0  0
 33 35  1  0  0  0  0
 33 34  1  6  0  0  0
 35 37  1  0  0  0  0
 35 36  1  6  0  0  0
 37 38  1  6  0  0  0
 39 37  1  0  0  0  0
 39 41  1  6  0  0  0
 40 39  1  0  0  0  0
 42 41  1  0  0  0  0
M  END
>  <CHROM.1>
-163.03038687,-179.21378189,174.11786521,-172.99257401,-59.46456491,-176.19164144
-179.59594848,-59.46144008,-157.07788635,-61.52221758,159.96913812,-55.02829361
60.58487572,45.68604542,170.52853558,-179.94184138,-61.23485805,155.38956058
-61.58465816,53.44304554,83.24977931,-168.65505768,-0.93773410,1.76570164
2.72277791,-2.77602825,-0.96398289,-2.39272204

>  <Name>
lig.pdb

>  <RI>
0

>  <Rbt.Current_Directory>
/home/itssahil/PROJECTS/Mol_Feturizer/New_Systems/rnas/2mxs

>  <Rbt.Executable>
rbdock ($Id: //depot/dev/client3/rdock/2013.1/src/exe/rbdock.cxx#4 $)

>  <Rbt.Library>
libRbt.so (2013.1, Build901 2013/11/27)

>  <Rbt.Parameter_File>
/export/apps/rDock/src/rDock_2013.1_src/data/scripts/dock_solv.prm

>  <Rbt.Receptor>
prm/pocket_docking_7.prm

>  <SCORE>
-33.9854

>  <SCORE.INTER>
-25.3909

>  <SCORE.INTER.CONST>
1

>  <SCORE.INTER.POLAR>
-3.94805

>  <SCORE.INTER.ROT>
9

>  <SCORE.INTER.SOLV>
15.375

>  <SCORE.INTER.VDW>
-18.4921

>  <SCORE.INTER.norm>
-0.604545

>  <SCORE.INTRA>
-8.59456

>  <SCORE.INTRA.DIHEDRAL>
-19.692

>  <SCORE.INTRA.DIHEDRAL.0>
30.1357

>  <SCORE.INTRA.POLAR>
-0.899585

>  <SCORE.INTRA.POLAR.0>
-0.631696

>  <SCORE.INTRA.REPUL>
0

>  <SCORE.INTRA.REPUL.0>
0

>  <SCORE.INTRA.SOLV>
-0.403633

>  <SCORE.INTRA.SOLV.lig_0>
-55.904

>  <SCORE.INTRA.VDW>
4.51186

>  <SCORE.INTRA.VDW.0>
-8.21197

>  <SCORE.INTRA.norm>
-0.204632

>  <SCORE.RESTR>
0

>  <SCORE.RESTR.CAVITY>
0

>  <SCORE.RESTR.norm>
0

>  <SCORE.SYSTEM>
0

>  <SCORE.SYSTEM.CONST>
0

>  <SCORE.SYSTEM.DIHEDRAL>
0

>  <SCORE.SYSTEM.SOLV>
0

>  <SCORE.SYSTEM.norm>
0

>  <SCORE.heavy>
42

>  <SCORE.norm>
-0.809177

>  <RMSD>
7.995

$$$$
lig.pdb
 OpenBabel11021811453D
libRbt.so/2013.1/901 2013/11/27
 42 45  0  0  0  0  0  0  0  0999 V2000
   -3.4171    2.5734    2.7957 C   0  0  2  0  0  0  0  0  0  0  0  0
   -2.0279    2.9049    2.7555 O   0  0  0  0  0  0  0  0  0  0  0  0
   -4.0943    2.8905    1.4538 C   0  0  2  0  0  0  0  0  0  0  0  0
   -3.3972    2.2234    0.3387 N   0  0  0  0  0  0  0  0  0  0  0  0
   -4.1775    4.4050    1.2242 C   0  0  1  0  0  0  0  0  0  0  0  0
   -4.9386    4.6624    0.0597 O   0  0  0  0  0  0  0  0  0  0  0  0
   -4.8417    5.0900    2.4280 C   0  0  2  0  0  0  0  0  0  0  0  0
   -4.7663    6.4937    2.2687 O   0  0  0  0  0  0  0  0  0  0  0  0
   -4.1707    4.6783    3.7542 C   0  0  2  0  0  0  0  0  0  0  0  0
   -4.0690    3.2588    3.8620 O   0  0  0  0  0  0  0  0  0  0  0  0
   -5.0234    5.2284    4.9133 C   0  0  0  0  0  0  0  0  0  0  0  0
   -4.2612    5.3505    6.1440 O   0  0  0  0  0  0  0  0  0  0  0  0
   -1.5101    4.7652    6.6029 C   0  0  2  0  0  0  0  0  0  0  0  0
   -0.6905    5.4143    7.6456 N   0  0  0  0  0  0  0  0  0  0  0  0
   -0.9948    3.3509    6.3249 C   0  0  0  0  0  0  0  0  0  0  0  0
   -1.7446    2.7268    5.1539 C   0  0  2  0  0  0  0  0  0  0  0  0
   -1.3124    1.3373    4.9580 N   0  0  0  0  0  0  0  0  0  0  0  0
   -1.4973    3.5935    3.8973 C   0  0  2  0  0  0  0  0  0  0  0  0
   -2.1424    4.9260    4.1068 C   0  0  2  0  0  0  0  0  0  0  0  0
   -1.9405    5.6875    2.9305 O   0  0  0  0  0  0  0  0  0  0  0  0
   -1.5253    5.6075    5.3135 C   0  0  1  0  0  0  0  0  0  0  0  0
   -2.1571    6.8389    5.6093 O   0  0  0  0  0  0  0  0  0  0  0  0
   -0.6344    6.1997    2.6882 C   0  0  1  0  0  0  0  0  0  0  0  0
    0.2999    5.0093    2.4614 C   0  0  2  0  0  0  0  0  0  0  0  0
    1.5702    5.2995    3.0136 O   0  0  0  0  0  0  0  0  0  0  0  0
    0.3262    4.8965    0.9311 C   0  0  2  0  0  0  0  0  0  0  0  0
    1.4714    4.1941    0.4477 O   0  0  0  0  0  0  0  0  0  0  0  0
    0.2750    6.3822    0.5542 C   0  0  2  0  0  0  0  0  0  0  0  0
   -0.6331    6.9560    1.4840 O   0  0  0  0  0  0  0  0  0  0  0  0
   -0.2279    6.6576   -0.8677 C   0  0  0  0  0  0  0  0  0  0  0  0
    0.0137    7.9935   -1.2552 O   0  0  0  0  0  0  0  0  0  0  0  0
    1.2512    3.4505   -0.7493 C   0  0  2  0  0  0  0  0  0  0  0  0
    2.2117    2.2571   -0.8647 C   0  0  2  0  0  0  0  0  0  0  0  0
    2.1240    1.3941    0.3251 N   0  0  0  0  0  0  0  0  0  0  0  0
    3.6528    2.7274   -1.1133 C   0  0  1  0  0  0  0  0  0  0  0  0
    4.4736    1.5901   -1.2964 O   0  0  0  0  0  0  0  0  0  0  0  0
    3.6675    3.6017   -2.3787 C   0  0  2  0  0  0  0  0  0  0  0  0
    4.9694    4.0983   -2.6297 O   0  0  0  0  0  0  0  0  0  0  0  0
    2.6609    4.7644   -2.2590 C   0  0  1  0  0  0  0  0  0  0  0  0
    1.3612    4.2957   -1.8923 O   0  0  0  0  0  0  0  0  0  0  0  0
    3.1437    5.8953   -1.3386 C   0  0  0  0  0  0  0  0  0  0  0  0
    4.1057    6.7720   -2.0258 N   0  0  0  0  0  0  0  0  0  0  0  0
  1  3  1  0  0  0  0
  1  2  1  6  0  0  0
  3  4  1  6  0  0  0
  5  6  1  6  0  0  0
  5  3  1  0  0  0  0
  7  9  1  0  0  0  0
  7  5  1  0  0  0  0
  7  8  1  6  0  0  0
  9 10  1  0  0  0  0
  9 11  1  1  0  0  0
 10  1  1  0  0  0  0
 11 12  1  0  0  0  0
 13 14  1  1  0  0  0
 13 21  1  0  0  0  0
 15 13  1  0  0  0  0
 16 15  1  0  0  0  0
 16 18  1  0  0  0  0
 16 17  1  6  0  0  0
 18  2  1  6  0  0  0
 18 19  1  0  0  0  0
 19 21  1  0  0  0  0
 19 20  1  6  0  0  0
 21 22  1  1  0  0  0
 23 20  1  6  0  0  0
 23 29  1  0  0  0  0
 23 24  1  0  0  0  0
 24 26  1  0  0  0  0
 24 25  1  6  0  0  0
 26 27  1  1  0  0  0
 28 26  1  0  0  0  0
 28 30  1  6  0  0  0
 29 28  1  0  0  0  0
 30 31  1  0  0  0  0
 32 27  1  1  0  0  0
 32 40  1  0  0  0  0
 32 33  1  0  0  0  0
 33 35  1  0  0  0  0
 33 34  1  1  0  0  0
 35 37  1  0  0  0  0
 35 36  1  6  0  0  0
 37 38  1  1  0  0  0
 39 37  1  0  0  0  0
 39 41  1  1  0  0  0
 40 39  1  0  0  0  0
 42 41  1  0  0  0  0
M  END
>  <CHROM.1>
57.82499639,135.84685297,6.94709328,56.29470468,172.94061891,81.56768273
-158.15262718,-166.70331205,-170.35308570,-73.51731705,65.42211154,64.68718406
-116.22363656,148.04866893,-153.34328111,-167.39707661,59.45299327,178.24285049
-175.84531694,52.97329378,79.34374906,-65.13002832,-0.65290794,4.50090027
1.84286117,2.42801370,-0.32148222,1.85589325

>  <Name>
lig.pdb

>  <RI>
3.31443e+07

>  <Rbt.Current_Directory>
/home/itssahil/PROJECTS/Mol_Feturizer/New_Systems/rnas/2mxs

>  <Rbt.Executable>
rbdock ($Id: //depot/dev/client3/rdock/2013.1/src/exe/rbdock.cxx#4 $)

>  <Rbt.Library>
libRbt.so (2013.1, Build901 2013/11/27)

>  <Rbt.Parameter_File>
/export/apps/rDock/src/rDock_2013.1_src/data/scripts/dock_solv.prm

>  <Rbt.Receptor>
prm/blind_docking_40.prm

>  <SCORE>
126.274

>  <SCORE.INTER>
70.5765

>  <SCORE.INTER.CONST>
1

>  <SCORE.INTER.POLAR>
-3.3433

>  <SCORE.INTER.ROT>
9

>  <SCORE.INTER.SOLV>
30.2631

>  <SCORE.INTER.VDW>
38.5076

>  <SCORE.INTER.norm>
1.68039

>  <SCORE.INTRA>
25.0545

>  <SCORE.INTRA.DIHEDRAL>
1.53681

>  <SCORE.INTRA.DIHEDRAL.0>
30.1357

>  <SCORE.INTRA.POLAR>
-0.570382

>  <SCORE.INTRA.POLAR.0>
-0.631696

>  <SCORE.INTRA.REPUL>
0

>  <SCORE.INTRA.REPUL.0>
0

>  <SCORE.INTRA.SOLV>
2.93386

>  <SCORE.INTRA.SOLV.lig_0>
-55.904

>  <SCORE.INTRA.VDW>
24.7585

>  <SCORE.INTRA.VDW.0>
-8.21197

>  <SCORE.INTRA.norm>
0.596536

>  <SCORE.RESTR>
30.6432

>  <SCORE.RESTR.CAVITY>
30.6432

>  <SCORE.RESTR.norm>
0.729601

>  <SCORE.SYSTEM>
0

>  <SCORE.SYSTEM.CONST>
0

>  <SCORE.SYSTEM.DIHEDRAL>
0

>  <SCORE.SYSTEM.SOLV>
0

>  <SCORE.SYSTEM.norm>
0

>  <SCORE.heavy>
42

>  <SCORE.norm>
3.00653

>  <RMSD>
8.001

$$$$
lig.pdb
 OpenBabel11021811453D
libRbt.so/2013.1/901 2013/11/27
 42 45  0  0  0  0  0  0  0  0999 V2000
   -2.5552    4.8291    2.0996 C   0  0  2  0  0  0  0  0  0  0  0  0
   -2.3799    6.1263    1.5268 O   0  0  0  0  0  0  0  0  0  0  0  0
   -3.7678    4.8066    3.0423 C   0  0  2  0  0  0  0  0  0  0  0  0
   -4.9832    5.2768    2.3523 N   0  0  0  0  0  0  0  0  0  0  0  0
   -3.4972    5.6332    4.3061 C   0  0  1  0  0  0  0  0  0  0  0  0
   -4.5684    5.4660    5.2150 O   0  0  0  0  0  0  0  0  0  0  0  0
   -2.1898    5.1766    4.9708 C   0  0  2  0  0  0  0  0  0  0  0  0
   -1.8771    6.0504    6.0386 O   0  0  0  0  0  0  0  0  0  0  0  0
   -1.0233    5.1460    3.9625 C   0  0  2  0  0  0  0  0  0  0  0  0
   -1.3763    4.4175    2.7870 O   0  0  0  0  0  0  0  0  0  0  0  0
    0.1837    4.4766    4.6467 C   0  0  0  0  0  0  0  0  0  0  0  0
   -0.0841    3.0929    4.9987 O   0  0  0  0  0  0  0  0  0  0  0  0
    0.8132    7.6522   -0.9241 C   0  0  2  0  0  0  0  0  0  0  0  0
    2.2403    7.8117   -1.2682 N   0  0  0  0  0  0  0  0  0  0  0  0
    0.5350    8.2219    0.4691 C   0  0  0  0  0  0  0  0  0  0  0  0
   -0.9018    7.9354    0.8892 C   0  0  2  0  0  0  0  0  0  0  0  0
   -1.1880    8.5696    2.1822 N   0  0  0  0  0  0  0  0  0  0  0  0
   -1.1004    6.4026    0.9387 C   0  0  2  0  0  0  0  0  0  0  0  0
   -0.9869    5.8654   -0.4520 C   0  0  2  0  0  0  0  0  0  0  0  0
   -1.2130    4.4691   -0.3898 O   0  0  0  0  0  0  0  0  0  0  0  0
    0.3909    6.1733   -1.0071 C   0  0  1  0  0  0  0  0  0  0  0  0
    0.5256    5.7604   -2.3541 O   0  0  0  0  0  0  0  0  0  0  0  0
   -0.7576    3.6745   -1.4798 C   0  0  1  0  0  0  0  0  0  0  0  0
    0.6832    3.2541   -1.1821 C   0  0  2  0  0  0  0  0  0  0  0  0
    1.4216    3.2263   -2.3891 O   0  0  0  0  0  0  0  0  0  0  0  0
    0.5002    1.8622   -0.5624 C   0  0  2  0  0  0  0  0  0  0  0  0
    1.6816    1.0638   -0.6365 O   0  0  0  0  0  0  0  0  0  0  0  0
   -0.6770    1.3503   -1.4016 C   0  0  2  0  0  0  0  0  0  0  0  0
   -1.5253    2.4798   -1.5541 O   0  0  0  0  0  0  0  0  0  0  0  0
   -1.4731    0.2143   -0.7488 C   0  0  0  0  0  0  0  0  0  0  0  0
   -2.2649   -0.4751   -1.6927 O   0  0  0  0  0  0  0  0  0  0  0  0
    2.7519    1.5074    0.1952 C   0  0  2  0  0  0  0  0  0  0  0  0
    4.1033    1.4469   -0.5330 C   0  0  2  0  0  0  0  0  0  0  0  0
    4.0559    2.2055   -1.7941 N   0  0  0  0  0  0  0  0  0  0  0  0
    4.5423   -0.0064   -0.7672 C   0  0  1  0  0  0  0  0  0  0  0  0
    5.8265   -0.0002   -1.3601 O   0  0  0  0  0  0  0  0  0  0  0  0
    4.5890   -0.7253    0.5918 C   0  0  2  0  0  0  0  0  0  0  0  0
    4.9479   -2.0849    0.4277 O   0  0  0  0  0  0  0  0  0  0  0  0
    3.2367   -0.6096    1.3251 C   0  0  1  0  0  0  0  0  0  0  0  0
    2.7975    0.7486    1.4015 O   0  0  0  0  0  0  0  0  0  0  0  0
    2.1516   -1.5319    0.7501 C   0  0  0  0  0  0  0  0  0  0  0  0
    1.9323   -1.2739   -0.6822 N   0  0  0  0  0  0  0  0  0  0  0  0
  1  3  1  0  0  0  0
  1  2  1  1  0  0  0
  3  4  1  6  0  0  0
  5  6  1  1  0  0  0
  5  3  1  0  0  0  0
  7  9  1  0  0  0  0
  7  5  1  0  0  0  0
  7  8  1  1  0  0  0
  9 10  1  0  0  0  0
  9 11  1  1  0  0  0
 10  1  1  0  0  0  0
 11 12  1  0  0  0  0
 13 14  1  1  0  0  0
 13 21  1  0  0  0  0
 15 13  1  0  0  0  0
 16 15  1  0  0  0  0
 16 18  1  0  0  0  0
 16 17  1  1  0  0  0
 18  2  1  6  0  0  0
 18 19  1  0  0  0  0
 19 21  1  0  0  0  0
 19 20  1  1  0  0  0
 21 22  1  6  0  0  0
 23 20  1  1  0  0  0
 23 29  1  0  0  0  0
 23 24  1  0  0  0  0
 24 26  1  0  0  0  0
 24 25  1  6  0  0  0
 26 27  1  6  0  0  0
 28 26  1  0  0  0  0
 28 30  1  1  0  0  0
 29 28  1  0  0  0  0
 30 31  1  0  0  0  0
 32 27  1  6  0  0  0
 32 40  1  0  0  0  0
 32 33  1  0  0  0  0
 33 35  1  0  0  0  0
 33 34  1  6  0  0  0
 35 37  1  0  0  0  0
 35 36  1  1  0  0  0
 37 38  1  6  0  0  0
 39 37  1  0  0  0  0
 39 41  1  6  0  0  0
 40 39  1  0  0  0  0
 42 41  1  0  0  0  0
M  END
>  <CHROM.1>
-158.01421539,162.93637472,38.92777595,-68.32749970,63.69279076,62.60012725
63.25003364,52.84072772,-53.23719770,-160.74573017,89.10639677,-44.36609780
68.76876474,69.19487179,-137.24026952,-162.42919011,-51.08510136,-167.83910468
-65.86669335,67.34564329,-57.19665124,-60.72714703,0.22783796,3.45439515
0.74792955,2.74251769,0.83906962,-0.53828460

>  <Name>
lig.pdb

>  <RI>
3.17932e+07

>  <Rbt.Current_Directory>
/home/itssahil/PROJECTS/Mol_Feturizer/New_Systems/rnas/2mxs

>  <Rbt.Executable>
rbdock ($Id: //depot/dev/client3/rdock/2013.1/src/exe/rbdock.cxx#4 $)

>  <Rbt.Library>
libRbt.so (2013.1, Build901 2013/11/27)

>  <Rbt.Parameter_File>
/export/apps/rDock/src/rDock_2013.1_src/data/scripts/dock_solv.prm

>  <Rbt.Receptor>
prm/blind_docking_100.prm

>  <SCORE>
87.0854

>  <SCORE.INTER>
66.4833

>  <SCORE.INTER.CONST>
1

>  <SCORE.INTER.POLAR>
-3.24254

>  <SCORE.INTER.ROT>
9

>  <SCORE.INTER.SOLV>
36.3575

>  <SCORE.INTER.VDW>
33.4115

>  <SCORE.INTER.norm>
1.58294

>  <SCORE.INTRA>
2.03416

>  <SCORE.INTRA.DIHEDRAL>
-9.23483

>  <SCORE.INTRA.DIHEDRAL.0>
30.1357

>  <SCORE.INTRA.POLAR>
-0.690189

>  <SCORE.INTRA.POLAR.0>
-0.631696

>  <SCORE.INTRA.REPUL>
0

>  <SCORE.INTRA.REPUL.0>
0

>  <SCORE.INTRA.SOLV>
1.61184

>  <SCORE.INTRA.SOLV.lig_0>
-55.904

>  <SCORE.INTRA.VDW>
8.19229

>  <SCORE.INTRA.VDW.0>
-8.21197

>  <SCORE.INTRA.norm>
0.0484324

>  <SCORE.RESTR>
18.568

>  <SCORE.RESTR.CAVITY>
18.568

>  <SCORE.RESTR.norm>
0.442094

>  <SCORE.SYSTEM>
0

>  <SCORE.SYSTEM.CONST>
0

>  <SCORE.SYSTEM.DIHEDRAL>
0

>  <SCORE.SYSTEM.SOLV>
0

>  <SCORE.SYSTEM.norm>
0

>  <SCORE.heavy>
42

>  <SCORE.norm>
2.07346

>  <RMSD>
8.005

$$$$
lig.pdb
 OpenBabel11021811453D
libRbt.so/2013.1/901 2013/11/27
 42 45  0  0  0  0  0  0  0  0999 V2000
    0.8464    6.0246    4.9897 C   0  0  2  0  0  0  0  0  0  0  0  0
    0.5057    4.8075    4.3233 O   0  0  0  0  0  0  0  0  0  0  0  0
    0.3389    6.0152    6.4396 C   0  0  2  0  0  0  0  0  0  0  0  0
    0.8314    4.8295    7.1648 N   0  0  0  0  0  0  0  0  0  0  0  0
   -1.1925    6.0929    6.4867 C   0  0  1  0  0  0  0  0  0  0  0  0
   -1.6144    6.2361    7.8295 O   0  0  0  0  0  0  0  0  0  0  0  0
   -1.6899    7.2926    5.6662 C   0  0  2  0  0  0  0  0  0  0  0  0
   -3.1022    7.2554    5.5909 O   0  0  0  0  0  0  0  0  0  0  0  0
   -1.0911    7.2931    4.2450 C   0  0  2  0  0  0  0  0  0  0  0  0
    0.3283    7.1489    4.2831 O   0  0  0  0  0  0  0  0  0  0  0  0
   -1.4607    8.6276    3.5701 C   0  0  0  0  0  0  0  0  0  0  0  0
   -2.3931    8.4459    2.4710 O   0  0  0  0  0  0  0  0  0  0  0  0
   -3.1977    3.3507    2.6820 C   0  0  2  0  0  0  0  0  0  0  0  0
   -4.6661    3.3810    2.5301 N   0  0  0  0  0  0  0  0  0  0  0  0
   -2.8192    3.0988    4.1437 C   0  0  0  0  0  0  0  0  0  0  0  0
   -1.3108    3.2061    4.3338 C   0  0  2  0  0  0  0  0  0  0  0  0
   -0.9486    2.8667    5.7156 N   0  0  0  0  0  0  0  0  0  0  0  0
   -0.8709    4.6392    3.9544 C   0  0  2  0  0  0  0  0  0  0  0  0
   -1.0930    4.8302    2.4882 C   0  0  2  0  0  0  0  0  0  0  0  0
   -0.6457    6.1314    2.1548 O   0  0  0  0  0  0  0  0  0  0  0  0
   -2.5660    4.6583    2.1686 C   0  0  1  0  0  0  0  0  0  0  0  0
   -2.8221    4.7456    0.7795 O   0  0  0  0  0  0  0  0  0  0  0  0
   -0.2313    6.3666    0.8132 C   0  0  1  0  0  0  0  0  0  0  0  0
    1.2436    5.9742    0.7039 C   0  0  2  0  0  0  0  0  0  0  0  0
    1.8984    6.8579   -0.1867 O   0  0  0  0  0  0  0  0  0  0  0  0
    1.1648    4.5380    0.1689 C   0  0  2  0  0  0  0  0  0  0  0  0
    2.3725    4.1169   -0.4659 O   0  0  0  0  0  0  0  0  0  0  0  0
   -0.0432    4.6688   -0.7668 C   0  0  2  0  0  0  0  0  0  0  0  0
   -0.9488    5.5098   -0.0661 O   0  0  0  0  0  0  0  0  0  0  0  0
   -0.7421    3.3424   -1.0875 C   0  0  0  0  0  0  0  0  0  0  0  0
   -0.1408    2.6901   -2.1857 O   0  0  0  0  0  0  0  0  0  0  0  0
    2.2026    3.1006   -1.4520 C   0  0  2  0  0  0  0  0  0  0  0  0
    2.7027    1.7353   -0.9562 C   0  0  2  0  0  0  0  0  0  0  0  0
    2.0517    1.3649    0.3115 N   0  0  0  0  0  0  0  0  0  0  0  0
    4.2334    1.7187   -0.8281 C   0  0  1  0  0  0  0  0  0  0  0  0
    4.6411    0.4171   -0.4534 O   0  0  0  0  0  0  0  0  0  0  0  0
    4.8396    2.0926   -2.1915 C   0  0  2  0  0  0  0  0  0  0  0  0
    6.2528    2.1342   -2.1173 O   0  0  0  0  0  0  0  0  0  0  0  0
    4.2861    3.4431   -2.6908 C   0  0  1  0  0  0  0  0  0  0  0  0
    2.8570    3.4645   -2.6654 O   0  0  0  0  0  0  0  0  0  0  0  0
    4.8910    4.6544   -1.9658 C   0  0  0  0  0  0  0  0  0  0  0  0
    5.2230    5.7335   -2.9101 N   0  0  0  0  0  0  0  0  0  0  0  0
  1  3  1  0  0  0  0
  1  2  1  6  0  0  0
  3  4  1  6  0  0  0
  5  6  1  1  0  0  0
  5  3  1  0  0  0  0
  7  9  1  0  0  0  0
  7  5  1  0  0  0  0
  7  8  1  6  0  0  0
  9 10  1  0  0  0  0
  9 11  1  1  0  0  0
 10  1  1  0  0  0  0
 11 12  1  0  0  0  0
 13 14  1  1  0  0  0
 13 21  1  0  0  0  0
 15 13  1  0  0  0  0
 16 15  1  0  0  0  0
 16 18  1  0  0  0  0
 16 17  1  1  0  0  0
 18  2  1  6  0  0  0
 18 19  1  0  0  0  0
 19 21  1  0  0  0  0
 19 20  1  1  0  0  0
 21 22  1  6  0  0  0
 23 20  1  1  0  0  0
 23 29  1  0  0  0  0
 23 24  1  0  0  0  0
 24 26  1  0  0  0  0
 24 25  1  6  0  0  0
 26 27  1  6  0  0  0
 28 26  1  0  0  0  0
 28 30  1  1  0  0  0
 29 28  1  0  0  0  0
 30 31  1  0  0  0  0
 32 27  1  1  0  0  0
 32 40  1  0  0  0  0
 32 33  1  0  0  0  0
 33 35  1  0  0  0  0
 33 34  1  1  0  0  0
 35 37  1  0  0  0  0
 35 36  1  6  0  0  0
 37 38  1  1  0  0  0
 39 37  1  0  0  0  0
 39 41  1  1  0  0  0
 40 39  1  0  0  0  0
 42 41  1  0  0  0  0
M  END
>  <CHROM.1>
-135.09120885,73.67594984,127.40848706,73.84064749,-66.69371202,-52.01066591
-112.06790951,177.92232933,-55.52268429,154.49685832,-86.14152051,-32.89923614
65.58624697,-153.89971115,-106.46084738,-86.45377811,-178.69476326,-139.56778622
66.96031774,-131.63978653,136.89294068,-52.62221842,0.43348252,4.63385201
1.73256583,-2.21000284,0.15616019,-1.85082193

>  <Name>
lig.pdb

>  <RI>
3.31443e+07

>  <Rbt.Current_Directory>
/home/itssahil/PROJECTS/Mol_Feturizer/New_Systems/rnas/2mxs

>  <Rbt.Executable>
rbdock ($Id: //depot/dev/client3/rdock/2013.1/src/exe/rbdock.cxx#4 $)

>  <Rbt.Library>
libRbt.so (2013.1, Build901 2013/11/27)

>  <Rbt.Parameter_File>
/export/apps/rDock/src/rDock_2013.1_src/data/scripts/dock_solv.prm

>  <Rbt.Receptor>
prm/blind_docking_40.prm

>  <SCORE>
84.5187

>  <SCORE.INTER>
27.9422

>  <SCORE.INTER.CONST>
1

>  <SCORE.INTER.POLAR>
-1.96787

>  <SCORE.INTER.ROT>
9

>  <SCORE.INTER.SOLV>
28.0862

>  <SCORE.INTER.VDW>
6.22564

>  <SCORE.INTER.norm>
0.665291

>  <SCORE.INTRA>
30.9605

>  <SCORE.INTRA.DIHEDRAL>
21.2204

>  <SCORE.INTRA.DIHEDRAL.0>
30.1357

>  <SCORE.INTRA.POLAR>
0.439804

>  <SCORE.INTRA.POLAR.0>
-0.631696

>  <SCORE.INTRA.REPUL>
0

>  <SCORE.INTRA.REPUL.0>
0

>  <SCORE.INTRA.SOLV>
3.33028

>  <SCORE.INTRA.SOLV.lig_0>
-55.904

>  <SCORE.INTRA.VDW>
17.1898

>  <SCORE.INTRA.VDW.0>
-8.21197

>  <SCORE.INTRA.norm>
0.737154

>  <SCORE.RESTR>
25.616

>  <SCORE.RESTR.CAVITY>
25.616

>  <SCORE.RESTR.norm>
0.609904

>  <SCORE.SYSTEM>
0

>  <SCORE.SYSTEM.CONST>
0

>  <SCORE.SYSTEM.DIHEDRAL>
0

>  <SCORE.SYSTEM.SOLV>
0

>  <SCORE.SYSTEM.norm>
0

>  <SCORE.heavy>
42

>  <SCORE.norm>
2.01235

>  <RMSD>
8.022

$$$$
lig.pdb
 OpenBabel11021811453D
libRbt.so/2013.1/901 2013/11/27
 42 45  0  0  0  0  0  0  0  0999 V2000
   -3.3403    3.5448    0.8509 C   0  0  2  0  0  0  0  0  0  0  0  0
   -4.0444    4.5100    1.6345 O   0  0  0  0  0  0  0  0  0  0  0  0
   -4.1423    2.2393    0.7405 C   0  0  2  0  0  0  0  0  0  0  0  0
   -5.4981    2.4937    0.2195 N   0  0  0  0  0  0  0  0  0  0  0  0
   -4.1984    1.5125    2.0904 C   0  0  1  0  0  0  0  0  0  0  0  0
   -4.8092    0.2481    1.9180 O   0  0  0  0  0  0  0  0  0  0  0  0
   -2.7810    1.3208    2.6508 C   0  0  2  0  0  0  0  0  0  0  0  0
   -2.8627    0.7946    3.9615 O   0  0  0  0  0  0  0  0  0  0  0  0
   -1.9958    2.6480    2.6691 C   0  0  2  0  0  0  0  0  0  0  0  0
   -2.0480    3.2960    1.3985 O   0  0  0  0  0  0  0  0  0  0  0  0
   -0.5323    2.3337    3.0332 C   0  0  0  0  0  0  0  0  0  0  0  0
   -0.0010    3.2618    4.0164 O   0  0  0  0  0  0  0  0  0  0  0  0
   -2.8540    6.8495    5.0463 C   0  0  2  0  0  0  0  0  0  0  0  0
   -2.0214    7.0966    6.2405 N   0  0  0  0  0  0  0  0  0  0  0  0
   -3.6427    5.5476    5.2078 C   0  0  0  0  0  0  0  0  0  0  0  0
   -4.3949    5.2129    3.9252 C   0  0  2  0  0  0  0  0  0  0  0  0
   -5.2248    4.0176    4.1214 N   0  0  0  0  0  0  0  0  0  0  0  0
   -3.3633    5.0224    2.7890 C   0  0  2  0  0  0  0  0  0  0  0  0
   -2.7047    6.3378    2.5220 C   0  0  2  0  0  0  0  0  0  0  0  0
   -1.7960    6.1508    1.4525 O   0  0  0  0  0  0  0  0  0  0  0  0
   -1.9891    6.8132    3.7723 C   0  0  1  0  0  0  0  0  0  0  0  0
   -1.4170    8.0964    3.6018 O   0  0  0  0  0  0  0  0  0  0  0  0
   -0.4044    6.2199    1.7451 C   0  0  1  0  0  0  0  0  0  0  0  0
    0.2589    4.9712    1.1602 C   0  0  2  0  0  0  0  0  0  0  0  0
    1.3023    4.5499    2.0184 O   0  0  0  0  0  0  0  0  0  0  0  0
    0.7689    5.4729   -0.1975 C   0  0  2  0  0  0  0  0  0  0  0  0
    1.8207    4.6650   -0.7264 O   0  0  0  0  0  0  0  0  0  0  0  0
    1.1821    6.8996    0.1845 C   0  0  2  0  0  0  0  0  0  0  0  0
    0.1692    7.3378    1.0791 O   0  0  0  0  0  0  0  0  0  0  0  0
    1.2589    7.8740   -0.9966 C   0  0  0  0  0  0  0  0  0  0  0  0
   -0.0251    8.2088   -1.4789 O   0  0  0  0  0  0  0  0  0  0  0  0
    1.3846    3.5892   -1.5550 C   0  0  2  0  0  0  0  0  0  0  0  0
    1.3849    2.2512   -0.8001 C   0  0  2  0  0  0  0  0  0  0  0  0
    0.5791    2.3403    0.4291 N   0  0  0  0  0  0  0  0  0  0  0  0
    2.8172    1.7837   -0.5009 C   0  0  1  0  0  0  0  0  0  0  0  0
    2.7576    0.5118    0.1150 O   0  0  0  0  0  0  0  0  0  0  0  0
    3.5871    1.6943   -1.8295 C   0  0  2  0  0  0  0  0  0  0  0  0
    4.9305    1.3077   -1.6053 O   0  0  0  0  0  0  0  0  0  0  0  0
    3.5319    3.0343   -2.5916 C   0  0  1  0  0  0  0  0  0  0  0  0
    2.1885    3.5029   -2.7295 O   0  0  0  0  0  0  0  0  0  0  0  0
    4.4565    4.1091   -2.0010 C   0  0  0  0  0  0  0  0  0  0  0  0
    4.0235    5.4611   -2.3891 N   0  0  0  0  0  0  0  0  0  0  0  0
  1  3  1  0  0  0  0
  1  2  1  1  0  0  0
  3  4  1  1  0  0  0
  5  6  1  6  0  0  0
  5  3  1  0  0  0  0
  7  9  1  0  0  0  0
  7  5  1  0  0  0  0
  7  8  1  1  0  0  0
  9 10  1  0  0  0  0
  9 11  1  6  0  0  0
 10  1  1  0  0  0  0
 11 12  1  0  0  0  0
 13 14  1  1  0  0  0
 13 21  1  0  0  0  0
 15 13  1  0  0  0  0
 16 15  1  0  0  0  0
 16 18  1  0  0  0  0
 16 17  1  1  0  0  0
 18  2  1  6  0  0  0
 18 19  1  0  0  0  0
 19 21  1  0  0  0  0
 19 20  1  6  0  0  0
 21 22  1  6  0  0  0
 23 20  1  6  0  0  0
 23 29  1  0  0  0  0
 23 24  1  0  0  0  0
 24 26  1  0  0  0  0
 24 25  1  1  0  0  0
 26 27  1  1  0  0  0
 28 26  1  0  0  0  0
 28 30  1  6  0  0  0
 29 28  1  0  0  0  0
 30 31  1  0  0  0  0
 32 27  1  1  0  0  0
 32 40  1  0  0  0  0
 32 33  1  0  0  0  0
 33 35  1  0  0  0  0
 33 34  1  1  0  0  0
 35 37  1  0  0  0  0
 35 36  1  6  0  0  0
 37 38  1  1  0  0  0
 39 37  1  0  0  0  0
 39 41  1  1  0  0  0
 40 39  1  0  0  0  0
 42 41  1  0  0  0  0
M  END
>  <CHROM.1>
-142.49309423,122.54959787,117.75623738,68.21834447,-65.14778120,148.58225112
-135.40574044,-49.64223865,-79.31061488,-110.55522139,129.19322396,72.97745673
53.52899249,90.29173097,-100.65809592,71.99810505,29.40636763,46.12495296
68.62283025,60.82485940,-158.30509492,-53.24668303,-0.65197237,4.15694303
1.23512399,2.90273270,0.60697609,0.23928939

>  <Name>
lig.pdb

>  <RI>
3.31443e+07

>  <Rbt.Current_Directory>
/home/itssahil/PROJECTS/Mol_Feturizer/New_Systems/rnas/2mxs

>  <Rbt.Executable>
rbdock ($Id: //depot/dev/client3/rdock/2013.1/src/exe/rbdock.cxx#4 $)

>  <Rbt.Library>
libRbt.so (2013.1, Build901 2013/11/27)

>  <Rbt.Parameter_File>
/export/apps/rDock/src/rDock_2013.1_src/data/scripts/dock_solv.prm

>  <Rbt.Receptor>
prm/blind_docking_40.prm

>  <SCORE>
97.4354

>  <SCORE.INTER>
47.2044

>  <SCORE.INTER.CONST>
1

>  <SCORE.INTER.POLAR>
-1.26092

>  <SCORE.INTER.ROT>
9

>  <SCORE.INTER.SOLV>
29.7513

>  <SCORE.INTER.VDW>
16.1555

>  <SCORE.INTER.norm>
1.12391

>  <SCORE.INTRA>
16.4872

>  <SCORE.INTRA.DIHEDRAL>
26.1778

>  <SCORE.INTRA.DIHEDRAL.0>
30.1357

>  <SCORE.INTRA.POLAR>
-2.02925

>  <SCORE.INTRA.POLAR.0>
-0.631696

>  <SCORE.INTRA.REPUL>
0.198658

>  <SCORE.INTRA.REPUL.0>
0

>  <SCORE.INTRA.SOLV>
3.86757

>  <SCORE.INTRA.SOLV.lig_0>
-55.904

>  <SCORE.INTRA.VDW>
7.37066

>  <SCORE.INTRA.VDW.0>
-8.21197

>  <SCORE.INTRA.norm>
0.392551

>  <SCORE.RESTR>
33.7439

>  <SCORE.RESTR.CAVITY>
33.7439

>  <SCORE.RESTR.norm>
0.803426

>  <SCORE.SYSTEM>
0

>  <SCORE.SYSTEM.CONST>
0

>  <SCORE.SYSTEM.DIHEDRAL>
0

>  <SCORE.SYSTEM.SOLV>
0

>  <SCORE.SYSTEM.norm>
0

>  <SCORE.heavy>
42

>  <SCORE.norm>
2.31989

>  <RMSD>
8.032

$$$$
lig.pdb
 OpenBabel11021811453D
libRbt.so/2013.1/901 2013/11/27
 42 45  0  0  0  0  0  0  0  0999 V2000
   -2.2938    4.6188    1.6912 C   0  0  2  0  0  0  0  0  0  0  0  0
   -2.1901    5.9189    1.1077 O   0  0  0  0  0  0  0  0  0  0  0  0
   -3.7208    4.3581    2.1965 C   0  0  2  0  0  0  0  0  0  0  0  0
   -4.7086    4.5634    1.1211 N   0  0  0  0  0  0  0  0  0  0  0  0
   -4.0418    5.2346    3.4140 C   0  0  1  0  0  0  0  0  0  0  0  0
   -5.2994    4.8607    3.9433 O   0  0  0  0  0  0  0  0  0  0  0  0
   -2.9631    5.0611    4.4938 C   0  0  2  0  0  0  0  0  0  0  0  0
   -3.1898    5.9905    5.5361 O   0  0  0  0  0  0  0  0  0  0  0  0
   -1.5472    5.2598    3.9159 C   0  0  2  0  0  0  0  0  0  0  0  0
   -1.3500    4.4633    2.7481 O   0  0  0  0  0  0  0  0  0  0  0  0
   -0.5274    4.8577    4.9983 C   0  0  0  0  0  0  0  0  0  0  0  0
    0.4221    3.8696    4.5162 O   0  0  0  0  0  0  0  0  0  0  0  0
    0.9878    7.7454   -1.1497 C   0  0  2  0  0  0  0  0  0  0  0  0
    2.4137    7.9714   -1.4595 N   0  0  0  0  0  0  0  0  0  0  0  0
    0.6809    8.1751    0.2870 C   0  0  0  0  0  0  0  0  0  0  0  0
   -0.7523    7.8155    0.6605 C   0  0  2  0  0  0  0  0  0  0  0  0
   -1.0677    8.3185    2.0033 N   0  0  0  0  0  0  0  0  0  0  0  0
   -0.9121    6.2803    0.5641 C   0  0  2  0  0  0  0  0  0  0  0  0
   -0.7708    5.8787   -0.8692 C   0  0  2  0  0  0  0  0  0  0  0  0
   -0.9618    4.4776   -0.9405 O   0  0  0  0  0  0  0  0  0  0  0  0
    0.6042    6.2709   -1.3758 C   0  0  1  0  0  0  0  0  0  0  0  0
    0.7632    5.9894   -2.7537 O   0  0  0  0  0  0  0  0  0  0  0  0
   -0.2848    3.7679   -1.9724 C   0  0  1  0  0  0  0  0  0  0  0  0
    1.0289    3.2397   -1.3924 C   0  0  2  0  0  0  0  0  0  0  0  0
    2.0330    3.2872   -2.3885 O   0  0  0  0  0  0  0  0  0  0  0  0
    0.6586    1.8069   -0.9863 C   0  0  2  0  0  0  0  0  0  0  0  0
    1.7974    0.9538   -0.8670 O   0  0  0  0  0  0  0  0  0  0  0  0
   -0.2997    1.4463   -2.1281 C   0  0  2  0  0  0  0  0  0  0  0  0
   -1.0503    2.6314   -2.3527 O   0  0  0  0  0  0  0  0  0  0  0  0
   -1.2647    0.2992   -1.8062 C   0  0  0  0  0  0  0  0  0  0  0  0
   -2.2201    0.6794   -0.8388 O   0  0  0  0  0  0  0  0  0  0  0  0
    2.7605    1.3792    0.0950 C   0  0  2  0  0  0  0  0  0  0  0  0
    4.1890    1.3321   -0.4683 C   0  0  2  0  0  0  0  0  0  0  0  0
    4.2910    2.1163   -1.7104 N   0  0  0  0  0  0  0  0  0  0  0  0
    4.6547   -0.1166   -0.6782 C   0  0  1  0  0  0  0  0  0  0  0  0
    6.0003   -0.0997   -1.1139 O   0  0  0  0  0  0  0  0  0  0  0  0
    4.5403   -0.8631    0.6618 C   0  0  2  0  0  0  0  0  0  0  0  0
    4.9181   -2.2195    0.5139 O   0  0  0  0  0  0  0  0  0  0  0  0
    3.1103   -0.7609    1.2312 C   0  0  1  0  0  0  0  0  0  0  0  0
    2.6633    0.5959    1.2825 O   0  0  0  0  0  0  0  0  0  0  0  0
    2.1025   -1.6702    0.5126 C   0  0  0  0  0  0  0  0  0  0  0  0
    0.7794   -1.6170    1.1551 N   0  0  0  0  0  0  0  0  0  0  0  0
  1  3  1  0  0  0  0
  1  2  1  1  0  0  0
  3  4  1  6  0  0  0
  5  6  1  1  0  0  0
  5  3  1  0  0  0  0
  7  9  1  0  0  0  0
  7  5  1  0  0  0  0
  7  8  1  1  0  0  0
  9 10  1  0  0  0  0
  9 11  1  1  0  0  0
 10  1  1  0  0  0  0
 11 12  1  0  0  0  0
 13 14  1  1  0  0  0
 13 21  1  0  0  0  0
 15 13  1  0  0  0  0
 16 15  1  0  0  0  0
 16 18  1  0  0  0  0
 16 17  1  1  0  0  0
 18  2  1  6  0  0  0
 18 19  1  0  0  0  0
 19 21  1  0  0  0  0
 19 20  1  1  0  0  0
 21 22  1  6  0  0  0
 23 20  1  1  0  0  0
 23 29  1  0  0  0  0
 23 24  1  0  0  0  0
 24 26  1  0  0  0  0
 24 25  1  6  0  0  0
 26 27  1  6  0  0  0
 28 26  1  0  0  0  0
 28 30  1  1  0  0  0
 29 28  1  0  0  0  0
 30 31  1  0  0  0  0
 32 27  1  6  0  0  0
 32 40  1  0  0  0  0
 32 33  1  0  0  0  0
 33 35  1  0  0  0  0
 33 34  1  6  0  0  0
 35 37  1  0  0  0  0
 35 36  1  1  0  0  0
 37 38  1  6  0  0  0
 39 37  1  0  0  0  0
 39 41  1  6  0  0  0
 40 39  1  0  0  0  0
 42 41  1  0  0  0  0
M  END
>  <CHROM.1>
-151.20271625,-178.54727495,-27.94020979,-164.55525564,-175.54875639,-25.12913859
126.17372085,169.96720290,-38.67285791,-150.35240337,94.38538204,73.34770574
73.47472833,59.56644982,-132.89162915,69.05702713,-74.34738263,93.41689579
142.28720239,-66.23536483,175.59949084,-72.34622568,0.24024797,3.41760268
0.51550417,2.66103835,0.73822178,-0.46034076

>  <Name>
lig.pdb

>  <RI>
3.17932e+07

>  <Rbt.Current_Directory>
/home/itssahil/PROJECTS/Mol_Feturizer/New_Systems/rnas/2mxs

>  <Rbt.Executable>
rbdock ($Id: //depot/dev/client3/rdock/2013.1/src/exe/rbdock.cxx#4 $)

>  <Rbt.Library>
libRbt.so (2013.1, Build901 2013/11/27)

>  <Rbt.Parameter_File>
/export/apps/rDock/src/rDock_2013.1_src/data/scripts/dock_solv.prm

>  <Rbt.Receptor>
prm/blind_docking_100.prm

>  <SCORE>
115.535

>  <SCORE.INTER>
87.3621

>  <SCORE.INTER.CONST>
1

>  <SCORE.INTER.POLAR>
-2.15732

>  <SCORE.INTER.ROT>
9

>  <SCORE.INTER.SOLV>
37.8558

>  <SCORE.INTER.VDW>
43.2139

>  <SCORE.INTER.norm>
2.08005

>  <SCORE.INTRA>
12.7843

>  <SCORE.INTRA.DIHEDRAL>
13.004

>  <SCORE.INTRA.DIHEDRAL.0>
30.1357

>  <SCORE.INTRA.POLAR>
-0.409992

>  <SCORE.INTRA.POLAR.0>
-0.631696

>  <SCORE.INTRA.REPUL>
0

>  <SCORE.INTRA.REPUL.0>
0

>  <SCORE.INTRA.SOLV>
0.460461

>  <SCORE.INTRA.SOLV.lig_0>
-55.904

>  <SCORE.INTRA.VDW>
7.44602

>  <SCORE.INTRA.VDW.0>
-8.21197

>  <SCORE.INTRA.norm>
0.304387

>  <SCORE.RESTR>
15.3881

>  <SCORE.RESTR.CAVITY>
15.3881

>  <SCORE.RESTR.norm>
0.366384

>  <SCORE.SYSTEM>
0

>  <SCORE.SYSTEM.CONST>
0

>  <SCORE.SYSTEM.DIHEDRAL>
0

>  <SCORE.SYSTEM.SOLV>
0

>  <SCORE.SYSTEM.norm>
0

>  <SCORE.heavy>
42

>  <SCORE.norm>
2.75082

>  <RMSD>
8.033

$$$$
lig.pdb
 OpenBabel11021811453D
libRbt.so/2013.1/901 2013/11/27
 42 45  0  0  0  0  0  0  0  0999 V2000
   -2.2077    4.9399    1.8471 C   0  0  2  0  0  0  0  0  0  0  0  0
   -2.1506    6.1825    1.1440 O   0  0  0  0  0  0  0  0  0  0  0  0
   -3.5403    4.7968    2.5977 C   0  0  2  0  0  0  0  0  0  0  0  0
   -4.6840    4.9692    1.6830 N   0  0  0  0  0  0  0  0  0  0  0  0
   -3.6195    5.7825    3.7706 C   0  0  1  0  0  0  0  0  0  0  0  0
   -4.7856    5.5195    4.5272 O   0  0  0  0  0  0  0  0  0  0  0  0
   -2.3843    5.6372    4.6722 C   0  0  2  0  0  0  0  0  0  0  0  0
   -2.3975    6.6568    5.6528 O   0  0  0  0  0  0  0  0  0  0  0  0
   -1.0772    5.7136    3.8573 C   0  0  2  0  0  0  0  0  0  0  0  0
   -1.1086    4.8180    2.7464 O   0  0  0  0  0  0  0  0  0  0  0  0
    0.0914    5.3441    4.7907 C   0  0  0  0  0  0  0  0  0  0  0  0
    0.4463    6.4348    5.6821 O   0  0  0  0  0  0  0  0  0  0  0  0
    0.9078    7.8682   -1.3730 C   0  0  2  0  0  0  0  0  0  0  0  0
    2.3164    8.0771   -1.7636 N   0  0  0  0  0  0  0  0  0  0  0  0
    0.6667    8.3881    0.0464 C   0  0  0  0  0  0  0  0  0  0  0  0
   -0.7455    8.0498    0.5094 C   0  0  2  0  0  0  0  0  0  0  0  0
   -1.0000    8.6369    1.8309 N   0  0  0  0  0  0  0  0  0  0  0  0
   -0.9016    6.5113    0.5187 C   0  0  2  0  0  0  0  0  0  0  0  0
   -0.8258    6.0193   -0.8912 C   0  0  2  0  0  0  0  0  0  0  0  0
   -1.0125    4.6161   -0.8640 O   0  0  0  0  0  0  0  0  0  0  0  0
    0.5218    6.3814   -1.4863 C   0  0  1  0  0  0  0  0  0  0  0  0
    0.6172    6.0128   -2.8494 O   0  0  0  0  0  0  0  0  0  0  0  0
   -0.4429    3.8508   -1.9208 C   0  0  1  0  0  0  0  0  0  0  0  0
    0.9493    3.3999   -1.4737 C   0  0  2  0  0  0  0  0  0  0  0  0
    1.8218    3.4006   -2.5880 O   0  0  0  0  0  0  0  0  0  0  0  0
    0.6809    1.9914   -0.9269 C   0  0  2  0  0  0  0  0  0  0  0  0
    1.8544    1.1786   -0.8917 O   0  0  0  0  0  0  0  0  0  0  0  0
   -0.3969    1.5244   -1.9129 C   0  0  2  0  0  0  0  0  0  0  0  0
   -1.2096    2.6705   -2.1235 O   0  0  0  0  0  0  0  0  0  0  0  0
   -1.2752    0.3794   -1.3951 C   0  0  0  0  0  0  0  0  0  0  0  0
   -2.3973    0.1683   -2.2254 O   0  0  0  0  0  0  0  0  0  0  0  0
    2.8347    1.5909    0.0586 C   0  0  2  0  0  0  0  0  0  0  0  0
    4.2615    1.2986   -0.4300 C   0  0  2  0  0  0  0  0  0  0  0  0
    4.5026    1.9110   -1.7471 N   0  0  0  0  0  0  0  0  0  0  0  0
    4.5414   -0.2116   -0.4524 C   0  0  1  0  0  0  0  0  0  0  0  0
    5.8905   -0.4154   -0.8254 O   0  0  0  0  0  0  0  0  0  0  0  0
    4.2900   -0.7737    0.9571 C   0  0  2  0  0  0  0  0  0  0  0  0
    4.4927   -2.1747    0.9816 O   0  0  0  0  0  0  0  0  0  0  0  0
    2.8685   -0.4263    1.4454 C   0  0  1  0  0  0  0  0  0  0  0  0
    2.6001    0.9723    1.3217 O   0  0  0  0  0  0  0  0  0  0  0  0
    1.7737   -1.2807    0.7895 C   0  0  0  0  0  0  0  0  0  0  0  0
    1.9649   -1.3713   -0.6670 N   0  0  0  0  0  0  0  0  0  0  0  0
  1  3  1  0  0  0  0
  1  2  1  1  0  0  0
  3  4  1  6  0  0  0
  5  6  1  1  0  0  0
  5  3  1  0  0  0  0
  7  9  1  0  0  0  0
  7  5  1  0  0  0  0
  7  8  1  1  0  0  0
  9 10  1  0  0  0  0
  9 11  1  1  0  0  0
 10  1  1  0  0  0  0
 11 12  1  0  0  0  0
 13 14  1  1  0  0  0
 13 21  1  0  0  0  0
 15 13  1  0  0  0  0
 16 15  1  0  0  0  0
 16 18  1  0  0  0  0
 16 17  1  1  0  0  0
 18  2  1  6  0  0  0
 18 19  1  0  0  0  0
 19 21  1  0  0  0  0
 19 20  1  1  0  0  0
 21 22  1  6  0  0  0
 23 20  1  1  0  0  0
 23 29  1  0  0  0  0
 23 24  1  0  0  0  0
 24 26  1  0  0  0  0
 24 25  1  6  0  0  0
 26 27  1  6  0  0  0
 28 26  1  0  0  0  0
 28 30  1  1  0  0  0
 29 28  1  0  0  0  0
 30 31  1  0  0  0  0
 32 27  1  6  0  0  0
 32 40  1  0  0  0  0
 32 33  1  0  0  0  0
 33 35  1  0  0  0  0
 33 34  1  6  0  0  0
 35 37  1  0  0  0  0
 35 36  1  1  0  0  0
 37 38  1  6  0  0  0
 39 37  1  0  0  0  0
 39 41  1  6  0  0  0
 40 39  1  0  0  0  0
 42 41  1  0  0  0  0
M  END
>  <CHROM.1>
-149.40965374,173.38779615,47.55144844,-170.83995367,-168.74673086,-168.89936700
-77.05534032,-63.27707150,88.40952930,-153.74748398,92.40548179,120.11154467
172.83732386,68.32031843,-147.14188674,168.64820370,-178.97499035,-50.23030465
-56.64000004,-16.43319541,-46.26066359,63.01102045,0.31283363,3.67945128
0.53491838,2.82607514,0.91383575,-0.71167614

>  <Name>
lig.pdb

>  <RI>
0

>  <Rbt.Current_Directory>
/home/itssahil/PROJECTS/Mol_Feturizer/New_Systems/rnas/2mxs

>  <Rbt.Executable>
rbdock ($Id: //depot/dev/client3/rdock/2013.1/src/exe/rbdock.cxx#4 $)

>  <Rbt.Library>
libRbt.so (2013.1, Build901 2013/11/27)

>  <Rbt.Parameter_File>
/export/apps/rDock/src/rDock_2013.1_src/data/scripts/dock_solv.prm

>  <Rbt.Receptor>
prm/blind_docking_60.prm

>  <SCORE>
114.914

>  <SCORE.INTER>
90.1904

>  <SCORE.INTER.CONST>
1

>  <SCORE.INTER.POLAR>
-4.81014

>  <SCORE.INTER.ROT>
9

>  <SCORE.INTER.SOLV>
39.2273

>  <SCORE.INTER.VDW>
53.485

>  <SCORE.INTER.norm>
2.14739

>  <SCORE.INTRA>
6.07608

>  <SCORE.INTRA.DIHEDRAL>
4.90218

>  <SCORE.INTRA.DIHEDRAL.0>
30.1357

>  <SCORE.INTRA.POLAR>
-1.90364

>  <SCORE.INTRA.POLAR.0>
-0.631696

>  <SCORE.INTRA.REPUL>
0.00888761

>  <SCORE.INTRA.REPUL.0>
0

>  <SCORE.INTRA.SOLV>
1.53907

>  <SCORE.INTRA.SOLV.lig_0>
-55.904

>  <SCORE.INTRA.VDW>
9.2834

>  <SCORE.INTRA.VDW.0>
-8.21197

>  <SCORE.INTRA.norm>
0.144669

>  <SCORE.RESTR>
18.6477

>  <SCORE.RESTR.CAVITY>
18.6477

>  <SCORE.RESTR.norm>
0.443992

>  <SCORE.SYSTEM>
0

>  <SCORE.SYSTEM.CONST>
0

>  <SCORE.SYSTEM.DIHEDRAL>
0

>  <SCORE.SYSTEM.SOLV>
0

>  <SCORE.SYSTEM.norm>
0

>  <SCORE.heavy>
42

>  <SCORE.norm>
2.73605

>  <RMSD>
8.046

$$$$
lig.pdb
 OpenBabel11021811453D
libRbt.so/2013.1/901 2013/11/27
 42 45  0  0  0  0  0  0  0  0999 V2000
   -2.6495    6.2501    3.8734 C   0  0  2  0  0  0  0  0  0  0  0  0
   -2.1823    5.1421    3.1017 O   0  0  0  0  0  0  0  0  0  0  0  0
   -1.6319    7.4006    3.8505 C   0  0  2  0  0  0  0  0  0  0  0  0
   -1.3028    7.7885    2.4664 N   0  0  0  0  0  0  0  0  0  0  0  0
   -0.3662    7.0310    4.6347 C   0  0  1  0  0  0  0  0  0  0  0  0
    0.4794    8.1619    4.7218 O   0  0  0  0  0  0  0  0  0  0  0  0
   -0.7353    6.5612    6.0499 C   0  0  2  0  0  0  0  0  0  0  0  0
    0.4242    6.0769    6.7000 O   0  0  0  0  0  0  0  0  0  0  0  0
   -1.8139    5.4595    6.0168 C   0  0  2  0  0  0  0  0  0  0  0  0
   -2.9267    5.8508    5.2133 O   0  0  0  0  0  0  0  0  0  0  0  0
   -2.2805    5.2025    7.4623 C   0  0  0  0  0  0  0  0  0  0  0  0
   -1.1750    4.8687    8.3436 O   0  0  0  0  0  0  0  0  0  0  0  0
   -4.6843    2.1426    1.2923 C   0  0  2  0  0  0  0  0  0  0  0  0
   -5.8088    1.7159    0.4357 N   0  0  0  0  0  0  0  0  0  0  0  0
   -5.1925    3.0190    2.4398 C   0  0  0  0  0  0  0  0  0  0  0  0
   -4.0258    3.5784    3.2454 C   0  0  2  0  0  0  0  0  0  0  0  0
   -4.5241    4.3359    4.4002 N   0  0  0  0  0  0  0  0  0  0  0  0
   -3.1595    4.4523    2.3088 C   0  0  2  0  0  0  0  0  0  0  0  0
   -2.5329    3.5665    1.2801 C   0  0  2  0  0  0  0  0  0  0  0  0
   -1.7127    4.3786    0.4602 O   0  0  0  0  0  0  0  0  0  0  0  0
   -3.6162    2.8840    0.4665 C   0  0  1  0  0  0  0  0  0  0  0  0
   -3.0802    1.9673   -0.4692 O   0  0  0  0  0  0  0  0  0  0  0  0
   -0.5419    4.9408    1.0435 C   0  0  1  0  0  0  0  0  0  0  0  0
    0.6716    4.2998    0.3668 C   0  0  2  0  0  0  0  0  0  0  0  0
    1.7059    4.1358    1.3187 O   0  0  0  0  0  0  0  0  0  0  0  0
    1.0205    5.3218   -0.7234 C   0  0  2  0  0  0  0  0  0  0  0  0
    2.3702    5.2094   -1.1757 O   0  0  0  0  0  0  0  0  0  0  0  0
    0.6962    6.6238    0.0192 C   0  0  2  0  0  0  0  0  0  0  0  0
   -0.4842    6.3319    0.7540 O   0  0  0  0  0  0  0  0  0  0  0  0
    0.4289    7.8247   -0.8957 C   0  0  0  0  0  0  0  0  0  0  0  0
    1.5625    8.1495   -1.6720 O   0  0  0  0  0  0  0  0  0  0  0  0
    2.5259    4.5258   -2.4177 C   0  0  2  0  0  0  0  0  0  0  0  0
    2.8611    3.0406   -2.2135 C   0  0  2  0  0  0  0  0  0  0  0  0
    1.8519    2.3851   -1.3650 N   0  0  0  0  0  0  0  0  0  0  0  0
    4.2761    2.8651   -1.6419 C   0  0  1  0  0  0  0  0  0  0  0  0
    4.5604    1.4821   -1.5568 O   0  0  0  0  0  0  0  0  0  0  0  0
    5.2724    3.5542   -2.5897 C   0  0  2  0  0  0  0  0  0  0  0  0
    6.5919    3.4589   -2.0855 O   0  0  0  0  0  0  0  0  0  0  0  0
    4.8878    5.0306   -2.8175 C   0  0  1  0  0  0  0  0  0  0  0  0
    3.5216    5.1597   -3.2177 O   0  0  0  0  0  0  0  0  0  0  0  0
    5.2246    5.9384   -1.6253 C   0  0  0  0  0  0  0  0  0  0  0  0
    4.4559    7.1926   -1.6725 N   0  0  0  0  0  0  0  0  0  0  0  0
  1  3  1  0  0  0  0
  1  2  1  6  0  0  0
  3  4  1  6  0  0  0
  5  6  1  1  0  0  0
  5  3  1  0  0  0  0
  7  9  1  0  0  0  0
  7  5  1  0  0  0  0
  7  8  1  6  0  0  0
  9 10  1  0  0  0  0
  9 11  1  1  0  0  0
 10  1  1  0  0  0  0
 11 12  1  0  0  0  0
 13 14  1  6  0  0  0
 13 21  1  0  0  0  0
 15 13  1  0  0  0  0
 16 15  1  0  0  0  0
 16 18  1  0  0  0  0
 16 17  1  1  0  0  0
 18  2  1  1  0  0  0
 18 19  1  0  0  0  0
 19 21  1  0  0  0  0
 19 20  1  6  0  0  0
 21 22  1  6  0  0  0
 23 20  1  6  0  0  0
 23 29  1  0  0  0  0
 23 24  1  0  0  0  0
 24 26  1  0  0  0  0
 24 25  1  1  0  0  0
 26 27  1  1  0  0  0
 28 26  1  0  0  0  0
 28 30  1  6  0  0  0
 29 28  1  0  0  0  0
 30 31  1  0  0  0  0
 32 27  1  1  0  0  0
 32 40  1  0  0  0  0
 32 33  1  0  0  0  0
 33 35  1  0  0  0  0
 33 34  1  1  0  0  0
 35 37  1  0  0  0  0
 35 36  1  6  0  0  0
 37 38  1  1  0  0  0
 39 37  1  0  0  0  0
 39 41  1  1  0  0  0
 40 39  1  0  0  0  0
 42 41  1  0  0  0  0
M  END
>  <CHROM.1>
-75.31310624,-140.35462079,-147.82964941,178.42574399,57.02876550,-62.84677835
-55.51769544,-179.38674121,-74.63344143,68.32735025,113.27128303,56.91518721
128.16794942,101.20396016,-95.81029899,-62.35579823,-70.69832369,-92.26690735
166.54883751,-59.34450122,-160.53976508,-55.82229727,0.00693039,4.89348024
1.29981531,-2.48039041,-0.42261814,-2.12707037

>  <Name>
lig.pdb

>  <RI>
3.31443e+07

>  <Rbt.Current_Directory>
/home/itssahil/PROJECTS/Mol_Feturizer/New_Systems/rnas/2mxs

>  <Rbt.Executable>
rbdock ($Id: //depot/dev/client3/rdock/2013.1/src/exe/rbdock.cxx#4 $)

>  <Rbt.Library>
libRbt.so (2013.1, Build901 2013/11/27)

>  <Rbt.Parameter_File>
/export/apps/rDock/src/rDock_2013.1_src/data/scripts/dock_solv.prm

>  <Rbt.Receptor>
prm/blind_docking_40.prm

>  <SCORE>
41.311

>  <SCORE.INTER>
-0.200091

>  <SCORE.INTER.CONST>
1

>  <SCORE.INTER.POLAR>
-3.38702

>  <SCORE.INTER.ROT>
9

>  <SCORE.INTER.SOLV>
27.7049

>  <SCORE.INTER.VDW>
-7.6783

>  <SCORE.INTER.norm>
-0.00476408

>  <SCORE.INTRA>
10.1828

>  <SCORE.INTRA.DIHEDRAL>
8.27292

>  <SCORE.INTRA.DIHEDRAL.0>
30.1357

>  <SCORE.INTRA.POLAR>
-1.38891

>  <SCORE.INTRA.POLAR.0>
-0.631696

>  <SCORE.INTRA.REPUL>
2.875e-05

>  <SCORE.INTRA.REPUL.0>
0

>  <SCORE.INTRA.SOLV>
2.29115

>  <SCORE.INTRA.SOLV.lig_0>
-55.904

>  <SCORE.INTRA.VDW>
9.62288

>  <SCORE.INTRA.VDW.0>
-8.21197

>  <SCORE.INTRA.norm>
0.242447

>  <SCORE.RESTR>
31.3284

>  <SCORE.RESTR.CAVITY>
31.3284

>  <SCORE.RESTR.norm>
0.745913

>  <SCORE.SYSTEM>
0

>  <SCORE.SYSTEM.CONST>
0

>  <SCORE.SYSTEM.DIHEDRAL>
0

>  <SCORE.SYSTEM.SOLV>
0

>  <SCORE.SYSTEM.norm>
0

>  <SCORE.heavy>
42

>  <SCORE.norm>
0.983596

>  <RMSD>
8.064

$$$$
lig.pdb
 OpenBabel11021811453D
libRbt.so/2013.1/901 2013/11/27
 42 45  0  0  0  0  0  0  0  0999 V2000
    0.7091    5.8801    4.5146 C   0  0  2  0  0  0  0  0  0  0  0  0
   -0.0821    4.7825    4.0555 O   0  0  0  0  0  0  0  0  0  0  0  0
    0.8688    5.8384    6.0419 C   0  0  2  0  0  0  0  0  0  0  0  0
    1.4131    4.5405    6.4817 N   0  0  0  0  0  0  0  0  0  0  0  0
   -0.4615    6.1438    6.7423 C   0  0  1  0  0  0  0  0  0  0  0  0
   -0.2451    6.2476    8.1366 O   0  0  0  0  0  0  0  0  0  0  0  0
   -1.0481    7.4634    6.2186 C   0  0  2  0  0  0  0  0  0  0  0  0
   -2.3435    7.6466    6.7570 O   0  0  0  0  0  0  0  0  0  0  0  0
   -1.1158    7.4802    4.6780 C   0  0  2  0  0  0  0  0  0  0  0  0
    0.1395    7.1200    4.1024 O   0  0  0  0  0  0  0  0  0  0  0  0
   -1.5042    8.9024    4.2312 C   0  0  0  0  0  0  0  0  0  0  0  0
   -1.2071    9.1363    2.8286 O   0  0  0  0  0  0  0  0  0  0  0  0
   -4.3349    4.1197    3.9839 C   0  0  2  0  0  0  0  0  0  0  0  0
   -5.7155    4.4177    4.4143 N   0  0  0  0  0  0  0  0  0  0  0  0
   -3.4823    3.7004    5.1841 C   0  0  0  0  0  0  0  0  0  0  0  0
   -2.0249    3.5276    4.7732 C   0  0  2  0  0  0  0  0  0  0  0  0
   -1.2341    3.0311    5.9063 N   0  0  0  0  0  0  0  0  0  0  0  0
   -1.5000    4.8852    4.2505 C   0  0  2  0  0  0  0  0  0  0  0  0
   -2.2244    5.2175    2.9855 C   0  0  2  0  0  0  0  0  0  0  0  0
   -1.7004    6.4409    2.5025 O   0  0  0  0  0  0  0  0  0  0  0  0
   -3.7115    5.3299    3.2634 C   0  0  1  0  0  0  0  0  0  0  0  0
   -4.4569    5.5610    2.0827 O   0  0  0  0  0  0  0  0  0  0  0  0
   -1.4611    6.5534    1.1036 C   0  0  1  0  0  0  0  0  0  0  0  0
    0.0537    6.5666    0.8880 C   0  0  2  0  0  0  0  0  0  0  0  0
    0.3662    7.4344   -0.1854 O   0  0  0  0  0  0  0  0  0  0  0  0
    0.3557    5.0953    0.5730 C   0  0  2  0  0  0  0  0  0  0  0  0
    1.5884    4.9208   -0.1260 O   0  0  0  0  0  0  0  0  0  0  0  0
   -0.8984    4.7331   -0.2322 C   0  0  2  0  0  0  0  0  0  0  0  0
   -1.9589    5.3991    0.4389 O   0  0  0  0  0  0  0  0  0  0  0  0
   -1.2062    3.2321   -0.2832 C   0  0  0  0  0  0  0  0  0  0  0  0
   -1.8394    2.7906    0.8989 O   0  0  0  0  0  0  0  0  0  0  0  0
    1.4912    4.1429   -1.3174 C   0  0  2  0  0  0  0  0  0  0  0  0
    2.3205    2.8529   -1.2259 C   0  0  2  0  0  0  0  0  0  0  0  0
    1.9407    2.0660   -0.0408 N   0  0  0  0  0  0  0  0  0  0  0  0
    3.8257    3.1594   -1.2387 C   0  0  1  0  0  0  0  0  0  0  0  0
    4.5356    1.9360   -1.2398 O   0  0  0  0  0  0  0  0  0  0  0  0
    4.1479    3.9609   -2.5113 C   0  0  2  0  0  0  0  0  0  0  0  0
    5.5200    4.3078   -2.5513 O   0  0  0  0  0  0  0  0  0  0  0  0
    3.2695    5.2254   -2.6054 C   0  0  1  0  0  0  0  0  0  0  0  0
    1.8832    4.9121   -2.4522 O   0  0  0  0  0  0  0  0  0  0  0  0
    3.7127    6.3468   -1.6542 C   0  0  0  0  0  0  0  0  0  0  0  0
    2.6610    7.3646   -1.4983 N   0  0  0  0  0  0  0  0  0  0  0  0
  1  3  1  0  0  0  0
  1  2  1  1  0  0  0
  3  4  1  6  0  0  0
  5  6  1  1  0  0  0
  5  3  1  0  0  0  0
  7  9  1  0  0  0  0
  7  5  1  0  0  0  0
  7  8  1  1  0  0  0
  9 10  1  0  0  0  0
  9 11  1  6  0  0  0
 10  1  1  0  0  0  0
 11 12  1  0  0  0  0
 13 14  1  1  0  0  0
 13 21  1  0  0  0  0
 15 13  1  0  0  0  0
 16 15  1  0  0  0  0
 16 18  1  0  0  0  0
 16 17  1  1  0  0  0
 18  2  1  6  0  0  0
 18 19  1  0  0  0  0
 19 21  1  0  0  0  0
 19 20  1  1  0  0  0
 21 22  1  6  0  0  0
 23 20  1  1  0  0  0
 23 29  1  0  0  0  0
 23 24  1  0  0  0  0
 24 26  1  0  0  0  0
 24 25  1  6  0  0  0
 26 27  1  6  0  0  0
 28 26  1  0  0  0  0
 28 30  1  1  0  0  0
 29 28  1  0  0  0  0
 30 31  1  0  0  0  0
 32 27  1  1  0  0  0
 32 40  1  0  0  0  0
 32 33  1  0  0  0  0
 33 35  1  0  0  0  0
 33 34  1  1  0  0  0
 35 37  1  0  0  0  0
 35 36  1  6  0  0  0
 37 38  1  1  0  0  0
 39 37  1  0  0  0  0
 39 41  1  1  0  0  0
 40 39  1  0  0  0  0
 42 41  1  0  0  0  0
M  END
>  <CHROM.1>
-136.13614495,76.83191378,76.96716856,-68.07513391,-156.76271993,64.79355144
162.61713847,-45.80168727,-77.93455584,138.01314004,-109.38030410,-58.47718349
-45.23450513,-128.30991178,-117.11955288,79.72292127,-59.57255213,-162.53225553
176.57156128,-179.08652507,-164.25740949,-41.01970767,-0.11354074,5.24566370
2.12335142,-2.21029915,-0.21731458,-1.93850482

>  <Name>
lig.pdb

>  <RI>
3.31443e+07

>  <Rbt.Current_Directory>
/home/itssahil/PROJECTS/Mol_Feturizer/New_Systems/rnas/2mxs

>  <Rbt.Executable>
rbdock ($Id: //depot/dev/client3/rdock/2013.1/src/exe/rbdock.cxx#4 $)

>  <Rbt.Library>
libRbt.so (2013.1, Build901 2013/11/27)

>  <Rbt.Parameter_File>
/export/apps/rDock/src/rDock_2013.1_src/data/scripts/dock_solv.prm

>  <Rbt.Receptor>
prm/blind_docking_40.prm

>  <SCORE>
27.3576

>  <SCORE.INTER>
-13.6187

>  <SCORE.INTER.CONST>
1

>  <SCORE.INTER.POLAR>
-2.2053

>  <SCORE.INTER.ROT>
9

>  <SCORE.INTER.SOLV>
26.4295

>  <SCORE.INTER.VDW>
-20.138

>  <SCORE.INTER.norm>
-0.324254

>  <SCORE.INTRA>
16.813

>  <SCORE.INTRA.DIHEDRAL>
14.2361

>  <SCORE.INTRA.DIHEDRAL.0>
30.1357

>  <SCORE.INTRA.POLAR>
-0.81341

>  <SCORE.INTRA.POLAR.0>
-0.631696

>  <SCORE.INTRA.REPUL>
0

>  <SCORE.INTRA.REPUL.0>
0

>  <SCORE.INTRA.SOLV>
4.36735

>  <SCORE.INTRA.SOLV.lig_0>
-55.904

>  <SCORE.INTRA.VDW>
10.2768

>  <SCORE.INTRA.VDW.0>
-8.21197

>  <SCORE.INTRA.norm>
0.400309

>  <SCORE.RESTR>
24.1633

>  <SCORE.RESTR.CAVITY>
24.1633

>  <SCORE.RESTR.norm>
0.575317

>  <SCORE.SYSTEM>
0

>  <SCORE.SYSTEM.CONST>
0

>  <SCORE.SYSTEM.DIHEDRAL>
0

>  <SCORE.SYSTEM.SOLV>
0

>  <SCORE.SYSTEM.norm>
0

>  <SCORE.heavy>
42

>  <SCORE.norm>
0.651371

>  <RMSD>
8.087

$$$$
lig.pdb
 OpenBabel11021811453D
libRbt.so/2013.1/901 2013/11/27
 42 45  0  0  0  0  0  0  0  0999 V2000
    0.0734    0.8714    2.0527 C   0  0  2  0  0  0  0  0  0  0  0  0
    0.0676    2.2215    2.5204 O   0  0  0  0  0  0  0  0  0  0  0  0
    1.3954    0.1747    2.4085 C   0  0  2  0  0  0  0  0  0  0  0  0
    1.6663    0.2613    3.8555 N   0  0  0  0  0  0  0  0  0  0  0  0
    2.5592    0.7549    1.5946 C   0  0  1  0  0  0  0  0  0  0  0  0
    3.7261   -0.0084    1.8338 O   0  0  0  0  0  0  0  0  0  0  0  0
    2.2281    0.7220    0.0949 C   0  0  2  0  0  0  0  0  0  0  0  0
    3.2396    1.4022   -0.6232 O   0  0  0  0  0  0  0  0  0  0  0  0
    0.8578    1.3668   -0.1960 C   0  0  2  0  0  0  0  0  0  0  0  0
   -0.1577    0.8234    0.6469 O   0  0  0  0  0  0  0  0  0  0  0  0
    0.5066    1.1000   -1.6721 C   0  0  0  0  0  0  0  0  0  0  0  0
   -0.8566    1.4888   -1.9897 O   0  0  0  0  0  0  0  0  0  0  0  0
   -3.2745    4.9160    2.8379 C   0  0  2  0  0  0  0  0  0  0  0  0
   -4.4440    5.6254    2.2816 N   0  0  0  0  0  0  0  0  0  0  0  0
   -2.0045    5.3064    2.0777 C   0  0  0  0  0  0  0  0  0  0  0  0
   -0.8183    4.4750    2.5515 C   0  0  2  0  0  0  0  0  0  0  0  0
    0.4124    4.9236    1.8881 N   0  0  0  0  0  0  0  0  0  0  0  0
   -1.1205    2.9854    2.2669 C   0  0  2  0  0  0  0  0  0  0  0  0
   -2.2638    2.5606    3.1318 C   0  0  2  0  0  0  0  0  0  0  0  0
   -2.4964    1.1857    2.8865 O   0  0  0  0  0  0  0  0  0  0  0  0
   -3.4894    3.3912    2.8016 C   0  0  1  0  0  0  0  0  0  0  0  0
   -4.5810    3.0884    3.6500 O   0  0  0  0  0  0  0  0  0  0  0  0
   -2.8032    0.3559    4.0019 C   0  0  1  0  0  0  0  0  0  0  0  0
   -4.1662   -0.2898    3.7434 C   0  0  2  0  0  0  0  0  0  0  0  0
   -4.8697   -0.4035    4.9661 O   0  0  0  0  0  0  0  0  0  0  0  0
   -3.7798   -1.6507    3.1486 C   0  0  2  0  0  0  0  0  0  0  0  0
   -4.8211   -2.6207    3.2639 O   0  0  0  0  0  0  0  0  0  0  0  0
   -2.5226   -1.9538    3.9730 C   0  0  2  0  0  0  0  0  0  0  0  0
   -1.8579   -0.7032    4.0844 O   0  0  0  0  0  0  0  0  0  0  0  0
   -1.5712   -2.9676    3.3269 C   0  0  0  0  0  0  0  0  0  0  0  0
   -0.4750   -3.2606    4.1669 O   0  0  0  0  0  0  0  0  0  0  0  0
   -4.8078   -3.6299    2.2562 C   0  0  2  0  0  0  0  0  0  0  0  0
   -5.6401   -3.2234    1.0305 C   0  0  2  0  0  0  0  0  0  0  0  0
   -5.1908   -1.9272    0.4957 N   0  0  0  0  0  0  0  0  0  0  0  0
   -7.1403   -3.2062    1.3601 C   0  0  1  0  0  0  0  0  0  0  0  0
   -7.8589   -2.9113    0.1781 O   0  0  0  0  0  0  0  0  0  0  0  0
   -7.5377   -4.5944    1.8902 C   0  0  2  0  0  0  0  0  0  0  0  0
   -8.9065   -4.6203    2.2508 O   0  0  0  0  0  0  0  0  0  0  0  0
   -6.6567   -5.0012    3.0893 C   0  0  1  0  0  0  0  0  0  0  0  0
   -5.2661   -4.8724    2.7844 O   0  0  0  0  0  0  0  0  0  0  0  0
   -7.0280   -4.2761    4.3913 C   0  0  0  0  0  0  0  0  0  0  0  0
   -7.9829   -5.0621    5.1892 N   0  0  0  0  0  0  0  0  0  0  0  0
  1  3  1  0  0  0  0
  1  2  1  6  0  0  0
  3  4  1  1  0  0  0
  5  6  1  6  0  0  0
  5  3  1  0  0  0  0
  7  9  1  0  0  0  0
  7  5  1  0  0  0  0
  7  8  1  6  0  0  0
  9 10  1  0  0  0  0
  9 11  1  6  0  0  0
 10  1  1  0  0  0  0
 11 12  1  0  0  0  0
 13 14  1  6  0  0  0
 13 21  1  0  0  0  0
 15 13  1  0  0  0  0
 16 15  1  0  0  0  0
 16 18  1  0  0  0  0
 16 17  1  6  0  0  0
 18  2  1  1  0  0  0
 18 19  1  0  0  0  0
 19 21  1  0  0  0  0
 19 20  1  6  0  0  0
 21 22  1  1  0  0  0
 23 20  1  6  0  0  0
 23 29  1  0  0  0  0
 23 24  1  0  0  0  0
 24 26  1  0  0  0  0
 24 25  1  1  0  0  0
 26 27  1  1  0  0  0
 28 26  1  0  0  0  0
 28 30  1  6  0  0  0
 29 28  1  0  0  0  0
 30 31  1  0  0  0  0
 32 27  1  1  0  0  0
 32 40  1  0  0  0  0
 32 33  1  0  0  0  0
 33 35  1  0  0  0  0
 33 34  1  1  0  0  0
 35 37  1  0  0  0  0
 35 36  1  6  0  0  0
 37 38  1  1  0  0  0
 39 37  1  0  0  0  0
 39 41  1  1  0  0  0
 40 39  1  0  0  0  0
 42 41  1  0  0  0  0
M  END
>  <CHROM.1>
-167.39794476,-179.29218041,147.55418851,59.23387550,162.07867757,64.27320644
171.12874834,39.99667863,-173.80454163,139.66690001,121.73050743,77.74274440
71.50915913,152.33450595,-89.73464553,-176.62856015,-55.79230033,53.76696328
-54.91266029,-173.12167710,93.17393104,-177.74164421,-2.62077533,-0.17523677
2.29508122,-0.69449846,-0.20517823,-3.13248484

>  <Name>
lig.pdb

>  <RI>
4.11275e+07

>  <Rbt.Current_Directory>
/home/itssahil/PROJECTS/Mol_Feturizer/New_Systems/rnas/2mxs

>  <Rbt.Executable>
rbdock ($Id: //depot/dev/client3/rdock/2013.1/src/exe/rbdock.cxx#4 $)

>  <Rbt.Library>
libRbt.so (2013.1, Build901 2013/11/27)

>  <Rbt.Parameter_File>
/export/apps/rDock/src/rDock_2013.1_src/data/scripts/dock_solv.prm

>  <Rbt.Receptor>
prm/pocket_docking_8.prm

>  <SCORE>
-45.9263

>  <SCORE.INTER>
-50.1542

>  <SCORE.INTER.CONST>
1

>  <SCORE.INTER.POLAR>
-7.84839

>  <SCORE.INTER.ROT>
9

>  <SCORE.INTER.SOLV>
24.0426

>  <SCORE.INTER.VDW>
-24.8891

>  <SCORE.INTER.norm>
-1.19415

>  <SCORE.INTRA>
4.07613

>  <SCORE.INTRA.DIHEDRAL>
0.882444

>  <SCORE.INTRA.DIHEDRAL.0>
30.1357

>  <SCORE.INTRA.POLAR>
0.610945

>  <SCORE.INTRA.POLAR.0>
-0.631696

>  <SCORE.INTRA.REPUL>
0

>  <SCORE.INTRA.REPUL.0>
0

>  <SCORE.INTRA.SOLV>
-2.04656

>  <SCORE.INTRA.SOLV.lig_0>
-55.904

>  <SCORE.INTRA.VDW>
2.58097

>  <SCORE.INTRA.VDW.0>
-8.21197

>  <SCORE.INTRA.norm>
0.0970506

>  <SCORE.RESTR>
0.151825

>  <SCORE.RESTR.CAVITY>
0.151825

>  <SCORE.RESTR.norm>
0.00361488

>  <SCORE.SYSTEM>
0

>  <SCORE.SYSTEM.CONST>
0

>  <SCORE.SYSTEM.DIHEDRAL>
0

>  <SCORE.SYSTEM.SOLV>
0

>  <SCORE.SYSTEM.norm>
0

>  <SCORE.heavy>
42

>  <SCORE.norm>
-1.09348

>  <RMSD>
8.088

$$$$
lig.pdb
 OpenBabel11021811453D
libRbt.so/2013.1/901 2013/11/27
 42 45  0  0  0  0  0  0  0  0999 V2000
   -2.8039    2.7996    2.9619 C   0  0  2  0  0  0  0  0  0  0  0  0
   -1.4604    3.2303    2.7362 O   0  0  0  0  0  0  0  0  0  0  0  0
   -3.6645    3.0113    1.7072 C   0  0  2  0  0  0  0  0  0  0  0  0
   -3.0609    2.3525    0.5342 N   0  0  0  0  0  0  0  0  0  0  0  0
   -3.8932    4.5051    1.4430 C   0  0  1  0  0  0  0  0  0  0  0  0
   -4.8103    4.6584    0.3766 O   0  0  0  0  0  0  0  0  0  0  0  0
   -4.4548    5.1879    2.6993 C   0  0  2  0  0  0  0  0  0  0  0  0
   -4.5092    6.5857    2.4881 O   0  0  0  0  0  0  0  0  0  0  0  0
   -3.5949    4.8807    3.9420 C   0  0  2  0  0  0  0  0  0  0  0  0
   -3.3702    3.4781    4.0803 O   0  0  0  0  0  0  0  0  0  0  0  0
   -4.3378    5.4134    5.1820 C   0  0  0  0  0  0  0  0  0  0  0  0
   -3.9014    4.7608    6.4043 O   0  0  0  0  0  0  0  0  0  0  0  0
   -0.7759    5.6799    6.2092 C   0  0  2  0  0  0  0  0  0  0  0  0
    0.0604    6.5631    7.0463 N   0  0  0  0  0  0  0  0  0  0  0  0
   -0.1145    4.3077    6.0580 C   0  0  0  0  0  0  0  0  0  0  0  0
   -0.8991    3.4382    5.0826 C   0  0  2  0  0  0  0  0  0  0  0  0
   -0.3141    2.0929    5.0192 N   0  0  0  0  0  0  0  0  0  0  0  0
   -0.9035    4.1341    3.7017 C   0  0  2  0  0  0  0  0  0  0  0  0
   -1.6895    5.4012    3.8126 C   0  0  2  0  0  0  0  0  0  0  0  0
   -1.7162    6.0003    2.5301 O   0  0  0  0  0  0  0  0  0  0  0  0
   -1.0393    6.3174    4.8320 C   0  0  1  0  0  0  0  0  0  0  0  0
   -1.7898    7.4992    5.0394 O   0  0  0  0  0  0  0  0  0  0  0  0
   -0.4966    6.5279    2.0192 C   0  0  1  0  0  0  0  0  0  0  0  0
    0.5461    5.4085    2.0496 C   0  0  2  0  0  0  0  0  0  0  0  0
    1.8126    5.9569    2.3628 O   0  0  0  0  0  0  0  0  0  0  0  0
    0.4740    4.8506    0.6217 C   0  0  2  0  0  0  0  0  0  0  0  0
    1.6527    4.1375    0.2461 O   0  0  0  0  0  0  0  0  0  0  0  0
    0.2299    6.1482   -0.1585 C   0  0  2  0  0  0  0  0  0  0  0  0
   -0.6670    6.8912    0.6549 O   0  0  0  0  0  0  0  0  0  0  0  0
   -0.4022    5.9463   -1.5406 C   0  0  0  0  0  0  0  0  0  0  0  0
    0.5490    6.0913   -2.5737 O   0  0  0  0  0  0  0  0  0  0  0  0
    1.5272    3.3696   -0.9491 C   0  0  2  0  0  0  0  0  0  0  0  0
    2.4767    2.1619   -0.9538 C   0  0  2  0  0  0  0  0  0  0  0  0
    2.2728    1.3275    0.2420 N   0  0  0  0  0  0  0  0  0  0  0  0
    3.9407    2.6083   -1.0850 C   0  0  1  0  0  0  0  0  0  0  0  0
    4.7578    1.4569   -1.1707 O   0  0  0  0  0  0  0  0  0  0  0  0
    4.0788    3.4531   -2.3629 C   0  0  2  0  0  0  0  0  0  0  0  0
    5.4047    3.9275   -2.5094 O   0  0  0  0  0  0  0  0  0  0  0  0
    3.0826    4.6308   -2.3573 C   0  0  1  0  0  0  0  0  0  0  0  0
    1.7492    4.1870   -2.0961 O   0  0  0  0  0  0  0  0  0  0  0  0
    3.4994    5.7762   -1.4229 C   0  0  0  0  0  0  0  0  0  0  0  0
    2.8238    7.0337   -1.7817 N   0  0  0  0  0  0  0  0  0  0  0  0
  1  3  1  0  0  0  0
  1  2  1  6  0  0  0
  3  4  1  6  0  0  0
  5  6  1  6  0  0  0
  5  3  1  0  0  0  0
  7  9  1  0  0  0  0
  7  5  1  0  0  0  0
  7  8  1  6  0  0  0
  9 10  1  0  0  0  0
  9 11  1  1  0  0  0
 10  1  1  0  0  0  0
 11 12  1  0  0  0  0
 13 14  1  1  0  0  0
 13 21  1  0  0  0  0
 15 13  1  0  0  0  0
 16 15  1  0  0  0  0
 16 18  1  0  0  0  0
 16 17  1  6  0  0  0
 18  2  1  6  0  0  0
 18 19  1  0  0  0  0
 19 21  1  0  0  0  0
 19 20  1  6  0  0  0
 21 22  1  1  0  0  0
 23 20  1  6  0  0  0
 23 29  1  0  0  0  0
 23 24  1  0  0  0  0
 24 26  1  0  0  0  0
 24 25  1  6  0  0  0
 26 27  1  6  0  0  0
 28 26  1  0  0  0  0
 28 30  1  6  0  0  0
 29 28  1  0  0  0  0
 30 31  1  0  0  0  0
 32 27  1  1  0  0  0
 32 40  1  0  0  0  0
 32 33  1  0  0  0  0
 33 35  1  0  0  0  0
 33 34  1  1  0  0  0
 35 37  1  0  0  0  0
 35 36  1  6  0  0  0
 37 38  1  1  0  0  0
 39 37  1  0  0  0  0
 39 41  1  1  0  0  0
 40 39  1  0  0  0  0
 42 41  1  0  0  0  0
M  END
>  <CHROM.1>
60.51996085,128.54571414,113.40438217,53.64839950,57.41902509,66.34769427
158.28342744,179.07088004,-169.40515087,-68.93435118,55.04413983,-60.75689930
145.75102199,167.49193244,-152.52658846,-103.65508934,162.48481114,-53.90370041
-179.54248899,61.15946823,159.99442963,54.93077062,-0.31104632,4.62640623
1.68289841,2.35544300,-0.20692031,1.60299307

>  <Name>
lig.pdb

>  <RI>
3.31443e+07

>  <Rbt.Current_Directory>
/home/itssahil/PROJECTS/Mol_Feturizer/New_Systems/rnas/2mxs

>  <Rbt.Executable>
rbdock ($Id: //depot/dev/client3/rdock/2013.1/src/exe/rbdock.cxx#4 $)

>  <Rbt.Library>
libRbt.so (2013.1, Build901 2013/11/27)

>  <Rbt.Parameter_File>
/export/apps/rDock/src/rDock_2013.1_src/data/scripts/dock_solv.prm

>  <Rbt.Receptor>
prm/blind_docking_40.prm

>  <SCORE>
146.011

>  <SCORE.INTER>
89.614

>  <SCORE.INTER.CONST>
1

>  <SCORE.INTER.POLAR>
-3.26539

>  <SCORE.INTER.ROT>
9

>  <SCORE.INTER.SOLV>
29.3416

>  <SCORE.INTER.VDW>
51.2467

>  <SCORE.INTER.norm>
2.13367

>  <SCORE.INTRA>
32.5873

>  <SCORE.INTRA.DIHEDRAL>
-1.06167

>  <SCORE.INTRA.DIHEDRAL.0>
30.1357

>  <SCORE.INTRA.POLAR>
-0.310589

>  <SCORE.INTRA.POLAR.0>
-0.631696

>  <SCORE.INTRA.REPUL>
0

>  <SCORE.INTRA.REPUL.0>
0

>  <SCORE.INTRA.SOLV>
5.10902

>  <SCORE.INTRA.SOLV.lig_0>
-55.904

>  <SCORE.INTRA.VDW>
31.6196

>  <SCORE.INTRA.VDW.0>
-8.21197

>  <SCORE.INTRA.norm>
0.775887

>  <SCORE.RESTR>
23.8102

>  <SCORE.RESTR.CAVITY>
23.8102

>  <SCORE.RESTR.norm>
0.56691

>  <SCORE.SYSTEM>
0

>  <SCORE.SYSTEM.CONST>
0

>  <SCORE.SYSTEM.DIHEDRAL>
0

>  <SCORE.SYSTEM.SOLV>
0

>  <SCORE.SYSTEM.norm>
0

>  <SCORE.heavy>
42

>  <SCORE.norm>
3.47646

>  <RMSD>
8.092

$$$$
lig.pdb
 OpenBabel11021811453D
libRbt.so/2013.1/901 2013/11/27
 42 45  0  0  0  0  0  0  0  0999 V2000
   -3.5744    4.8914    4.0774 C   0  0  2  0  0  0  0  0  0  0  0  0
   -3.5633    5.9599    3.1288 O   0  0  0  0  0  0  0  0  0  0  0  0
   -4.8678    4.9088    4.9060 C   0  0  2  0  0  0  0  0  0  0  0  0
   -6.0559    4.8872    4.0328 N   0  0  0  0  0  0  0  0  0  0  0  0
   -4.8999    6.1176    5.8500 C   0  0  1  0  0  0  0  0  0  0  0  0
   -6.0256    6.0189    6.7013 O   0  0  0  0  0  0  0  0  0  0  0  0
   -3.6213    6.1629    6.7002 C   0  0  2  0  0  0  0  0  0  0  0  0
   -3.5971    7.3646    7.4463 O   0  0  0  0  0  0  0  0  0  0  0  0
   -2.3558    6.0667    5.8241 C   0  0  2  0  0  0  0  0  0  0  0  0
   -2.4321    4.9591    4.9272 O   0  0  0  0  0  0  0  0  0  0  0  0
   -1.1401    5.8994    6.7553 C   0  0  0  0  0  0  0  0  0  0  0  0
   -0.9108    7.0775    7.5738 O   0  0  0  0  0  0  0  0  0  0  0  0
   -0.6078    7.2858    0.2937 C   0  0  2  0  0  0  0  0  0  0  0  0
    0.7465    7.2661   -0.2941 N   0  0  0  0  0  0  0  0  0  0  0  0
   -0.5427    7.6992    1.7661 C   0  0  0  0  0  0  0  0  0  0  0  0
   -1.9162    7.5860    2.4168 C   0  0  2  0  0  0  0  0  0  0  0  0
   -1.8642    8.0772    3.7995 N   0  0  0  0  0  0  0  0  0  0  0  0
   -2.3723    6.1102    2.3426 C   0  0  2  0  0  0  0  0  0  0  0  0
   -2.5911    5.7539    0.9071 C   0  0  2  0  0  0  0  0  0  0  0  0
   -3.0474    4.4144    0.8647 O   0  0  0  0  0  0  0  0  0  0  0  0
   -1.2936    5.9155    0.1378 C   0  0  1  0  0  0  0  0  0  0  0  0
   -1.4623    5.6717   -1.2461 O   0  0  0  0  0  0  0  0  0  0  0  0
   -2.2042    3.4089    1.4168 C   0  0  1  0  0  0  0  0  0  0  0  0
   -1.1143    3.0967    0.3892 C   0  0  2  0  0  0  0  0  0  0  0  0
   -0.8070    1.7161    0.4375 O   0  0  0  0  0  0  0  0  0  0  0  0
    0.0469    3.9832    0.8591 C   0  0  2  0  0  0  0  0  0  0  0  0
    1.3145    3.5357    0.3779 O   0  0  0  0  0  0  0  0  0  0  0  0
   -0.1384    3.8807    2.3781 C   0  0  2  0  0  0  0  0  0  0  0  0
   -1.5456    3.9173    2.5700 O   0  0  0  0  0  0  0  0  0  0  0  0
    0.5024    5.0246    3.1726 C   0  0  0  0  0  0  0  0  0  0  0  0
   -0.4132    5.6076    4.0753 O   0  0  0  0  0  0  0  0  0  0  0  0
    1.2473    2.6398   -0.7298 C   0  0  2  0  0  0  0  0  0  0  0  0
    2.4053    1.6303   -0.7183 C   0  0  2  0  0  0  0  0  0  0  0  0
    2.4536    0.8993    0.5589 N   0  0  0  0  0  0  0  0  0  0  0  0
    3.7442    2.3191   -1.0230 C   0  0  1  0  0  0  0  0  0  0  0  0
    4.7558    1.3323   -1.0844 O   0  0  0  0  0  0  0  0  0  0  0  0
    3.6233    3.0400   -2.3763 C   0  0  2  0  0  0  0  0  0  0  0  0
    4.8205    3.7295   -2.6857 O   0  0  0  0  0  0  0  0  0  0  0  0
    2.4254    4.0118   -2.3799 C   0  0  1  0  0  0  0  0  0  0  0  0
    1.2236    3.3625   -1.9587 O   0  0  0  0  0  0  0  0  0  0  0  0
    2.6867    5.3031   -1.5906 C   0  0  0  0  0  0  0  0  0  0  0  0
    4.1276    5.5833   -1.4827 N   0  0  0  0  0  0  0  0  0  0  0  0
  1  3  1  0  0  0  0
  1  2  1  6  0  0  0
  3  4  1  6  0  0  0
  5  6  1  1  0  0  0
  5  3  1  0  0  0  0
  7  9  1  0  0  0  0
  7  5  1  0  0  0  0
  7  8  1  6  0  0  0
  9 10  1  0  0  0  0
  9 11  1  1  0  0  0
 10  1  1  0  0  0  0
 11 12  1  0  0  0  0
 13 14  1  1  0  0  0
 13 21  1  0  0  0  0
 15 13  1  0  0  0  0
 16 15  1  0  0  0  0
 16 18  1  0  0  0  0
 16 17  1  1  0  0  0
 18  2  1  1  0  0  0
 18 19  1  0  0  0  0
 19 21  1  0  0  0  0
 19 20  1  1  0  0  0
 21 22  1  6  0  0  0
 23 20  1  6  0  0  0
 23 29  1  0  0  0  0
 23 24  1  0  0  0  0
 24 26  1  0  0  0  0
 24 25  1  1  0  0  0
 26 27  1  1  0  0  0
 28 26  1  0  0  0  0
 28 30  1  1  0  0  0
 29 28  1  0  0  0  0
 30 31  1  0  0  0  0
 32 27  1  1  0  0  0
 32 40  1  0  0  0  0
 32 33  1  0  0  0  0
 33 35  1  0  0  0  0
 33 34  1  1  0  0  0
 35 37  1  0  0  0  0
 35 36  1  6  0  0  0
 37 38  1  1  0  0  0
 39 37  1  0  0  0  0
 39 41  1  1  0  0  0
 40 39  1  0  0  0  0
 42 41  1  0  0  0  0
M  END
>  <CHROM.1>
-129.70378850,176.28263215,-174.37560359,63.25859350,-46.39225696,-28.53895953
-65.98098256,-153.76699673,-169.76612901,-59.28027075,-79.14014735,-134.69702132
104.09105326,17.79811541,-148.26759463,128.91969998,51.23295047,177.25911158
40.15111255,52.88724918,23.36191338,-84.47999208,-0.66924641,4.86274564,1.90224110
2.51076680,0.62377488,0.49591226

>  <Name>
lig.pdb

>  <RI>
3.31443e+07

>  <Rbt.Current_Directory>
/home/itssahil/PROJECTS/Mol_Feturizer/New_Systems/rnas/2mxs

>  <Rbt.Executable>
rbdock ($Id: //depot/dev/client3/rdock/2013.1/src/exe/rbdock.cxx#4 $)

>  <Rbt.Library>
libRbt.so (2013.1, Build901 2013/11/27)

>  <Rbt.Parameter_File>
/export/apps/rDock/src/rDock_2013.1_src/data/scripts/dock_solv.prm

>  <Rbt.Receptor>
prm/blind_docking_40.prm

>  <SCORE>
68.049

>  <SCORE.INTER>
-5.1302

>  <SCORE.INTER.CONST>
1

>  <SCORE.INTER.POLAR>
-3.94597

>  <SCORE.INTER.ROT>
9

>  <SCORE.INTER.SOLV>
26.7301

>  <SCORE.INTER.VDW>
-8.77695

>  <SCORE.INTER.norm>
-0.122148

>  <SCORE.INTRA>
40.7841

>  <SCORE.INTRA.DIHEDRAL>
19.0041

>  <SCORE.INTRA.DIHEDRAL.0>
30.1357

>  <SCORE.INTRA.POLAR>
-0.713744

>  <SCORE.INTRA.POLAR.0>
-0.631696

>  <SCORE.INTRA.REPUL>
0.0609493

>  <SCORE.INTRA.REPUL.0>
0

>  <SCORE.INTRA.SOLV>
7.62043

>  <SCORE.INTRA.SOLV.lig_0>
-55.904

>  <SCORE.INTRA.VDW>
29.5938

>  <SCORE.INTRA.VDW.0>
-8.21197

>  <SCORE.INTRA.norm>
0.971049

>  <SCORE.RESTR>
32.3951

>  <SCORE.RESTR.CAVITY>
32.3951

>  <SCORE.RESTR.norm>
0.771312

>  <SCORE.SYSTEM>
0

>  <SCORE.SYSTEM.CONST>
0

>  <SCORE.SYSTEM.DIHEDRAL>
0

>  <SCORE.SYSTEM.SOLV>
0

>  <SCORE.SYSTEM.norm>
0

>  <SCORE.heavy>
42

>  <SCORE.norm>
1.62021

>  <RMSD>
8.106

$$$$
lig.pdb
 OpenBabel11021811453D
libRbt.so/2013.1/901 2013/11/27
 42 45  0  0  0  0  0  0  0  0999 V2000
    0.5657    3.3794    6.1749 C   0  0  2  0  0  0  0  0  0  0  0  0
    0.1199    2.3309    7.0371 O   0  0  0  0  0  0  0  0  0  0  0  0
    1.7667    4.1168    6.7860 C   0  0  2  0  0  0  0  0  0  0  0  0
    2.8512    3.1754    7.1206 N   0  0  0  0  0  0  0  0  0  0  0  0
    1.3445    4.9305    8.0162 C   0  0  1  0  0  0  0  0  0  0  0  0
    2.4368    5.7129    8.4592 O   0  0  0  0  0  0  0  0  0  0  0  0
    0.1669    5.8526    7.6657 C   0  0  2  0  0  0  0  0  0  0  0  0
   -0.3083    6.4741    8.8444 O   0  0  0  0  0  0  0  0  0  0  0  0
   -0.9787    5.0740    6.9876 C   0  0  2  0  0  0  0  0  0  0  0  0
   -0.4952    4.2900    5.8974 O   0  0  0  0  0  0  0  0  0  0  0  0
   -2.0139    6.0939    6.4763 C   0  0  0  0  0  0  0  0  0  0  0  0
   -1.4996    6.8920    5.3768 O   0  0  0  0  0  0  0  0  0  0  0  0
   -3.4462   -0.0669    6.7824 C   0  0  2  0  0  0  0  0  0  0  0  0
   -4.9027   -0.2358    6.6082 N   0  0  0  0  0  0  0  0  0  0  0  0
   -3.1543    0.8007    8.0093 C   0  0  0  0  0  0  0  0  0  0  0  0
   -1.6629    1.0964    8.1151 C   0  0  2  0  0  0  0  0  0  0  0  0
   -1.3806    1.8450    9.3463 N   0  0  0  0  0  0  0  0  0  0  0  0
   -1.2277    1.8740    6.8512 C   0  0  2  0  0  0  0  0  0  0  0  0
   -1.3621    0.9688    5.6688 C   0  0  2  0  0  0  0  0  0  0  0  0
   -0.9199    1.6853    4.5305 O   0  0  0  0  0  0  0  0  0  0  0  0
   -2.8089    0.5384    5.5175 C   0  0  1  0  0  0  0  0  0  0  0  0
   -2.9801   -0.3883    4.4616 O   0  0  0  0  0  0  0  0  0  0  0  0
   -1.8304    2.5982    3.9268 C   0  0  1  0  0  0  0  0  0  0  0  0
   -1.0110    3.7176    3.2813 C   0  0  2  0  0  0  0  0  0  0  0  0
   -1.7077    4.9425    3.4115 O   0  0  0  0  0  0  0  0  0  0  0  0
   -0.8982    3.2472    1.8249 C   0  0  2  0  0  0  0  0  0  0  0  0
   -0.6063    4.3127    0.9203 O   0  0  0  0  0  0  0  0  0  0  0  0
   -2.2809    2.6089    1.6439 C   0  0  2  0  0  0  0  0  0  0  0  0
   -2.5334    1.9476    2.8757 O   0  0  0  0  0  0  0  0  0  0  0  0
   -2.3619    1.5867    0.5042 C   0  0  0  0  0  0  0  0  0  0  0  0
   -2.0227    2.1650   -0.7382 O   0  0  0  0  0  0  0  0  0  0  0  0
    0.5648    5.0609    1.2411 C   0  0  2  0  0  0  0  0  0  0  0  0
    0.5823    6.4246    0.5339 C   0  0  2  0  0  0  0  0  0  0  0  0
   -0.6398    7.1889    0.8344 N   0  0  0  0  0  0  0  0  0  0  0  0
    0.7856    6.2615   -0.9799 C   0  0  1  0  0  0  0  0  0  0  0  0
    0.8796    7.5464   -1.5638 O   0  0  0  0  0  0  0  0  0  0  0  0
    2.0871    5.4759   -1.2139 C   0  0  2  0  0  0  0  0  0  0  0  0
    2.3004    5.2597   -2.5968 O   0  0  0  0  0  0  0  0  0  0  0  0
    2.0660    4.1328   -0.4554 C   0  0  1  0  0  0  0  0  0  0  0  0
    1.7385    4.3159    0.9239 O   0  0  0  0  0  0  0  0  0  0  0  0
    1.1763    3.0720   -1.1204 C   0  0  0  0  0  0  0  0  0  0  0  0
    1.6884    2.6990   -2.4489 N   0  0  0  0  0  0  0  0  0  0  0  0
  1  3  1  0  0  0  0
  1  2  1  1  0  0  0
  3  4  1  1  0  0  0
  5  6  1  6  0  0  0
  5  3  1  0  0  0  0
  7  9  1  0  0  0  0
  7  5  1  0  0  0  0
  7  8  1  1  0  0  0
  9 10  1  0  0  0  0
  9 11  1  6  0  0  0
 10  1  1  0  0  0  0
 11 12  1  0  0  0  0
 13 14  1  6  0  0  0
 13 21  1  0  0  0  0
 15 13  1  0  0  0  0
 16 15  1  0  0  0  0
 16 18  1  0  0  0  0
 16 17  1  1  0  0  0
 18  2  1  1  0  0  0
 18 19  1  0  0  0  0
 19 21  1  0  0  0  0
 19 20  1  6  0  0  0
 21 22  1  6  0  0  0
 23 20  1  6  0  0  0
 23 29  1  0  0  0  0
 23 24  1  0  0  0  0
 24 26  1  0  0  0  0
 24 25  1  6  0  0  0
 26 27  1  6  0  0  0
 28 26  1  0  0  0  0
 28 30  1  6  0  0  0
 29 28  1  0  0  0  0
 30 31  1  0  0  0  0
 32 27  1  6  0  0  0
 32 40  1  0  0  0  0
 32 33  1  0  0  0  0
 33 35  1  0  0  0  0
 33 34  1  6  0  0  0
 35 37  1  0  0  0  0
 35 36  1  6  0  0  0
 37 38  1  6  0  0  0
 39 37  1  0  0  0  0
 39 41  1  6  0  0  0
 40 39  1  0  0  0  0
 42 41  1  0  0  0  0
M  END
>  <CHROM.1>
-162.30277292,158.83555087,-80.29943934,-63.55152865,-54.33056890,170.73886294
68.35321656,-165.22149961,-53.12573056,-80.74629409,150.63316234,69.17674471
-56.98159312,55.43687759,-161.75818628,-59.06165079,53.36603074,125.50677452
-142.89839249,65.13034997,64.18702367,83.74403829,-0.52004471,3.62047058
3.81908072,-1.96866043,-0.93779385,-1.63336162

>  <Name>
lig.pdb

>  <RI>
224

>  <Rbt.Current_Directory>
/home/itssahil/PROJECTS/Mol_Feturizer/New_Systems/rnas/2mxs

>  <Rbt.Executable>
rbdock ($Id: //depot/dev/client3/rdock/2013.1/src/exe/rbdock.cxx#4 $)

>  <Rbt.Library>
libRbt.so (2013.1, Build901 2013/11/27)

>  <Rbt.Parameter_File>
/export/apps/rDock/src/rDock_2013.1_src/data/scripts/dock_solv.prm

>  <Rbt.Receptor>
prm/pocket_docking_2.prm

>  <SCORE>
-17.4769

>  <SCORE.INTER>
-24.6834

>  <SCORE.INTER.CONST>
1

>  <SCORE.INTER.POLAR>
-3.37516

>  <SCORE.INTER.ROT>
9

>  <SCORE.INTER.SOLV>
15.4515

>  <SCORE.INTER.VDW>
-19.9556

>  <SCORE.INTER.norm>
-0.587701

>  <SCORE.INTRA>
1.59089

>  <SCORE.INTRA.DIHEDRAL>
-6.05459

>  <SCORE.INTRA.DIHEDRAL.0>
30.1357

>  <SCORE.INTRA.POLAR>
-0.331983

>  <SCORE.INTRA.POLAR.0>
-0.631696

>  <SCORE.INTRA.REPUL>
0

>  <SCORE.INTRA.REPUL.0>
0

>  <SCORE.INTRA.SOLV>
2.03292

>  <SCORE.INTRA.SOLV.lig_0>
-55.904

>  <SCORE.INTRA.VDW>
4.73047

>  <SCORE.INTRA.VDW.0>
-8.21197

>  <SCORE.INTRA.norm>
0.0378784

>  <SCORE.RESTR>
5.61564

>  <SCORE.RESTR.CAVITY>
5.61564

>  <SCORE.RESTR.norm>
0.133706

>  <SCORE.SYSTEM>
0

>  <SCORE.SYSTEM.CONST>
0

>  <SCORE.SYSTEM.DIHEDRAL>
0

>  <SCORE.SYSTEM.SOLV>
0

>  <SCORE.SYSTEM.norm>
0

>  <SCORE.heavy>
42

>  <SCORE.norm>
-0.416116

>  <RMSD>
8.109

$$$$
lig.pdb
 OpenBabel11021811453D
libRbt.so/2013.1/901 2013/11/27
 42 45  0  0  0  0  0  0  0  0999 V2000
    0.8948    5.4926    1.6825 C   0  0  2  0  0  0  0  0  0  0  0  0
    0.6851    5.6997    0.2844 O   0  0  0  0  0  0  0  0  0  0  0  0
    0.4069    4.0997    2.1085 C   0  0  2  0  0  0  0  0  0  0  0  0
    1.0364    3.0459    1.2915 N   0  0  0  0  0  0  0  0  0  0  0  0
   -1.1231    4.0086    2.0414 C   0  0  1  0  0  0  0  0  0  0  0  0
   -1.5441    2.7714    2.5831 O   0  0  0  0  0  0  0  0  0  0  0  0
   -1.7600    5.1566    2.8391 C   0  0  2  0  0  0  0  0  0  0  0  0
   -3.1599    5.1483    2.6354 O   0  0  0  0  0  0  0  0  0  0  0  0
   -1.1800    6.5238    2.4236 C   0  0  2  0  0  0  0  0  0  0  0  0
    0.2469    6.5073    2.4457 O   0  0  0  0  0  0  0  0  0  0  0  0
   -1.7035    7.5856    3.4094 C   0  0  0  0  0  0  0  0  0  0  0  0
   -0.6982    8.5872    3.7204 O   0  0  0  0  0  0  0  0  0  0  0  0
    1.8248    8.9496   -2.2983 C   0  0  2  0  0  0  0  0  0  0  0  0
    2.6218   10.1499   -2.6214 N   0  0  0  0  0  0  0  0  0  0  0  0
    0.9916    9.1880   -1.0365 C   0  0  0  0  0  0  0  0  0  0  0  0
    0.2754    7.9098   -0.6167 C   0  0  2  0  0  0  0  0  0  0  0  0
   -0.5969    8.1724    0.5349 N   0  0  0  0  0  0  0  0  0  0  0  0
    1.3402    6.8329   -0.3038 C   0  0  2  0  0  0  0  0  0  0  0  0
    2.0476    6.4835   -1.5738 C   0  0  2  0  0  0  0  0  0  0  0  0
    2.9874    5.4681   -1.2733 O   0  0  0  0  0  0  0  0  0  0  0  0
    2.7327    7.7165   -2.1322 C   0  0  1  0  0  0  0  0  0  0  0  0
    3.3493    7.4625   -3.3805 O   0  0  0  0  0  0  0  0  0  0  0  0
    3.1194    4.3925   -2.1966 C   0  0  1  0  0  0  0  0  0  0  0  0
    3.6354    3.1755   -1.4259 C   0  0  2  0  0  0  0  0  0  0  0  0
    4.5150    2.4365   -2.2524 O   0  0  0  0  0  0  0  0  0  0  0  0
    2.3416    2.4162   -1.1023 C   0  0  2  0  0  0  0  0  0  0  0  0
    2.5668    1.0351   -0.8184 O   0  0  0  0  0  0  0  0  0  0  0  0
    1.5456    2.6889   -2.3845 C   0  0  2  0  0  0  0  0  0  0  0  0
    1.8396    4.0409   -2.7072 O   0  0  0  0  0  0  0  0  0  0  0  0
    0.0281    2.5319   -2.2329 C   0  0  0  0  0  0  0  0  0  0  0  0
   -0.4331    1.3371   -2.8271 O   0  0  0  0  0  0  0  0  0  0  0  0
    2.9169    0.7560    0.5357 C   0  0  2  0  0  0  0  0  0  0  0  0
    3.6370   -0.5942    0.6723 C   0  0  2  0  0  0  0  0  0  0  0  0
    4.8157   -0.6534   -0.2080 N   0  0  0  0  0  0  0  0  0  0  0  0
    2.6773   -1.7637    0.4065 C   0  0  1  0  0  0  0  0  0  0  0  0
    3.3703   -2.9763    0.6303 O   0  0  0  0  0  0  0  0  0  0  0  0
    1.4876   -1.6462    1.3743 C   0  0  2  0  0  0  0  0  0  0  0  0
    0.5481   -2.6795    1.1416 O   0  0  0  0  0  0  0  0  0  0  0  0
    0.8109   -0.2652    1.2533 C   0  0  1  0  0  0  0  0  0  0  0  0
    1.7618    0.7955    1.3708 O   0  0  0  0  0  0  0  0  0  0  0  0
   -0.0570   -0.1208   -0.0056 C   0  0  0  0  0  0  0  0  0  0  0  0
    0.6584   -0.5831   -1.2059 N   0  0  0  0  0  0  0  0  0  0  0  0
  1  3  1  0  0  0  0
  1  2  1  6  0  0  0
  3  4  1  6  0  0  0
  5  6  1  1  0  0  0
  5  3  1  0  0  0  0
  7  9  1  0  0  0  0
  7  5  1  0  0  0  0
  7  8  1  6  0  0  0
  9 10  1  0  0  0  0
  9 11  1  1  0  0  0
 10  1  1  0  0  0  0
 11 12  1  0  0  0  0
 13 14  1  1  0  0  0
 13 21  1  0  0  0  0
 15 13  1  0  0  0  0
 16 15  1  0  0  0  0
 16 18  1  0  0  0  0
 16 17  1  1  0  0  0
 18  2  1  6  0  0  0
 18 19  1  0  0  0  0
 19 21  1  0  0  0  0
 19 20  1  1  0  0  0
 21 22  1  6  0  0  0
 23 20  1  1  0  0  0
 23 29  1  0  0  0  0
 23 24  1  0  0  0  0
 24 26  1  0  0  0  0
 24 25  1  6  0  0  0
 26 27  1  6  0  0  0
 28 26  1  0  0  0  0
 28 30  1  1  0  0  0
 29 28  1  0  0  0  0
 30 31  1  0  0  0  0
 32 27  1  6  0  0  0
 32 40  1  0  0  0  0
 32 33  1  0  0  0  0
 33 35  1  0  0  0  0
 33 34  1  6  0  0  0
 35 37  1  0  0  0  0
 35 36  1  1  0  0  0
 37 38  1  6  0  0  0
 39 37  1  0  0  0  0
 39 41  1  6  0  0  0
 40 39  1  0  0  0  0
 42 41  1  0  0  0  0
M  END
>  <CHROM.1>
-107.66867405,-167.37112165,163.00457983,70.73423425,-167.65641587,120.19562142
142.30695023,132.81173767,-164.25564852,138.39649656,-154.23685377,77.90673317
178.79323508,85.11356126,-158.80604559,-104.97640490,178.98235992,-178.98898222
-64.68438740,-173.79906993,-47.75960137,-48.51999869,1.22216701,3.71801923
0.01359416,1.83090771,0.84035598,-0.20073592

>  <Name>
lig.pdb

>  <RI>
0

>  <Rbt.Current_Directory>
/home/itssahil/PROJECTS/Mol_Feturizer/New_Systems/rnas/2mxs

>  <Rbt.Executable>
rbdock ($Id: //depot/dev/client3/rdock/2013.1/src/exe/rbdock.cxx#4 $)

>  <Rbt.Library>
libRbt.so (2013.1, Build901 2013/11/27)

>  <Rbt.Parameter_File>
/export/apps/rDock/src/rDock_2013.1_src/data/scripts/dock_solv.prm

>  <Rbt.Receptor>
prm/blind_docking_60.prm

>  <SCORE>
124.851

>  <SCORE.INTER>
90.3488

>  <SCORE.INTER.CONST>
1

>  <SCORE.INTER.POLAR>
-3.77246

>  <SCORE.INTER.ROT>
9

>  <SCORE.INTER.SOLV>
36.065

>  <SCORE.INTER.VDW>
51.1857

>  <SCORE.INTER.norm>
2.15116

>  <SCORE.INTRA>
18.62

>  <SCORE.INTRA.DIHEDRAL>
14.4853

>  <SCORE.INTRA.DIHEDRAL.0>
30.1357

>  <SCORE.INTRA.POLAR>
-1.45962

>  <SCORE.INTRA.POLAR.0>
-0.631696

>  <SCORE.INTRA.REPUL>
0

>  <SCORE.INTRA.REPUL.0>
0

>  <SCORE.INTRA.SOLV>
3.76806

>  <SCORE.INTRA.SOLV.lig_0>
-55.904

>  <SCORE.INTRA.VDW>
14.456

>  <SCORE.INTRA.VDW.0>
-8.21197

>  <SCORE.INTRA.norm>
0.443333

>  <SCORE.RESTR>
15.8823

>  <SCORE.RESTR.CAVITY>
15.8823

>  <SCORE.RESTR.norm>
0.37815

>  <SCORE.SYSTEM>
0

>  <SCORE.SYSTEM.CONST>
0

>  <SCORE.SYSTEM.DIHEDRAL>
0

>  <SCORE.SYSTEM.SOLV>
0

>  <SCORE.SYSTEM.norm>
0

>  <SCORE.heavy>
42

>  <SCORE.norm>
2.97265

>  <RMSD>
8.115

$$$$
lig.pdb
 OpenBabel11021811453D
libRbt.so/2013.1/901 2013/11/27
 42 45  0  0  0  0  0  0  0  0999 V2000
   -0.0353    6.8418    4.6634 C   0  0  2  0  0  0  0  0  0  0  0  0
    0.6574    5.7248    4.1032 O   0  0  0  0  0  0  0  0  0  0  0  0
   -0.6995    6.4618    5.9954 C   0  0  2  0  0  0  0  0  0  0  0  0
    0.2850    5.8926    6.9341 N   0  0  0  0  0  0  0  0  0  0  0  0
   -1.8691    5.4949    5.7705 C   0  0  1  0  0  0  0  0  0  0  0  0
   -2.5493    5.2880    6.9937 O   0  0  0  0  0  0  0  0  0  0  0  0
   -2.8465    6.0734    4.7362 C   0  0  2  0  0  0  0  0  0  0  0  0
   -3.8287    5.1036    4.4261 O   0  0  0  0  0  0  0  0  0  0  0  0
   -2.1163    6.5071    3.4489 C   0  0  2  0  0  0  0  0  0  0  0  0
   -1.0019    7.3479    3.7461 O   0  0  0  0  0  0  0  0  0  0  0  0
   -3.1202    7.2680    2.5621 C   0  0  0  0  0  0  0  0  0  0  0  0
   -4.2155    6.4206    2.1234 O   0  0  0  0  0  0  0  0  0  0  0  0
   -0.5967    2.6619    1.3506 C   0  0  2  0  0  0  0  0  0  0  0  0
   -1.6245    1.8249    0.7001 N   0  0  0  0  0  0  0  0  0  0  0  0
   -0.5953    2.4235    2.8626 C   0  0  0  0  0  0  0  0  0  0  0  0
    0.3632    3.3841    3.5567 C   0  0  2  0  0  0  0  0  0  0  0  0
    0.4315    3.0830    4.9921 N   0  0  0  0  0  0  0  0  0  0  0  0
   -0.1154    4.8302    3.2898 C   0  0  2  0  0  0  0  0  0  0  0  0
    0.0353    5.1169    1.8301 C   0  0  2  0  0  0  0  0  0  0  0  0
   -0.3680    6.4568    1.6145 O   0  0  0  0  0  0  0  0  0  0  0  0
   -0.8188    4.1519    1.0297 C   0  0  1  0  0  0  0  0  0  0  0  0
   -0.6498    4.3235   -0.3649 O   0  0  0  0  0  0  0  0  0  0  0  0
    0.2945    7.1922    0.5913 C   0  0  1  0  0  0  0  0  0  0  0  0
    1.7082    6.6245    0.4482 C   0  0  2  0  0  0  0  0  0  0  0  0
    2.6071    7.6763    0.1502 O   0  0  0  0  0  0  0  0  0  0  0  0
    1.5493    5.6295   -0.7093 C   0  0  2  0  0  0  0  0  0  0  0  0
    2.7879    5.3248   -1.3510 O   0  0  0  0  0  0  0  0  0  0  0  0
    0.5434    6.3928   -1.5797 C   0  0  2  0  0  0  0  0  0  0  0  0
   -0.3604    6.9774   -0.6525 O   0  0  0  0  0  0  0  0  0  0  0  0
   -0.2452    5.5120   -2.5559 C   0  0  0  0  0  0  0  0  0  0  0  0
   -1.6262    5.5185   -2.2629 O   0  0  0  0  0  0  0  0  0  0  0  0
    2.6876    4.3897   -2.4232 C   0  0  2  0  0  0  0  0  0  0  0  0
    2.5839    2.9446   -1.9123 C   0  0  2  0  0  0  0  0  0  0  0  0
    1.4627    2.7991   -0.9689 N   0  0  0  0  0  0  0  0  0  0  0  0
    3.9084    2.4811   -1.2874 C   0  0  1  0  0  0  0  0  0  0  0  0
    3.7809    1.1225   -0.9151 O   0  0  0  0  0  0  0  0  0  0  0  0
    5.0229    2.6418   -2.3351 C   0  0  2  0  0  0  0  0  0  0  0  0
    6.2768    2.2677   -1.7946 O   0  0  0  0  0  0  0  0  0  0  0  0
    5.0759    4.0883   -2.8684 C   0  0  1  0  0  0  0  0  0  0  0  0
    3.7914    4.5287   -3.3150 O   0  0  0  0  0  0  0  0  0  0  0  0
    5.7103    5.0785   -1.8805 C   0  0  0  0  0  0  0  0  0  0  0  0
    7.0796    4.6750   -1.5219 N   0  0  0  0  0  0  0  0  0  0  0  0
  1  3  1  0  0  0  0
  1  2  1  6  0  0  0
  3  4  1  1  0  0  0
  5  6  1  1  0  0  0
  5  3  1  0  0  0  0
  7  9  1  0  0  0  0
  7  5  1  0  0  0  0
  7  8  1  6  0  0  0
  9 10  1  0  0  0  0
  9 11  1  6  0  0  0
 10  1  1  0  0  0  0
 11 12  1  0  0  0  0
 13 14  1  6  0  0  0
 13 21  1  0  0  0  0
 15 13  1  0  0  0  0
 16 15  1  0  0  0  0
 16 18  1  0  0  0  0
 16 17  1  1  0  0  0
 18  2  1  1  0  0  0
 18 19  1  0  0  0  0
 19 21  1  0  0  0  0
 19 20  1  1  0  0  0
 21 22  1  6  0  0  0
 23 20  1  1  0  0  0
 23 29  1  0  0  0  0
 23 24  1  0  0  0  0
 24 26  1  0  0  0  0
 24 25  1  6  0  0  0
 26 27  1  6  0  0  0
 28 26  1  0  0  0  0
 28 30  1  6  0  0  0
 29 28  1  0  0  0  0
 30 31  1  0  0  0  0
 32 27  1  1  0  0  0
 32 40  1  0  0  0  0
 32 33  1  0  0  0  0
 33 35  1  0  0  0  0
 33 34  1  1  0  0  0
 35 37  1  0  0  0  0
 35 36  1  6  0  0  0
 37 38  1  1  0  0  0
 39 37  1  0  0  0  0
 39 41  1  1  0  0  0
 40 39  1  0  0  0  0
 42 41  1  0  0  0  0
M  END
>  <CHROM.1>
-142.32538131,86.20491865,-99.22970103,-162.03537097,-169.34372472,-72.86241958
-63.97839240,-176.62993422,-50.54271621,146.94892761,-28.22744006,146.58815757
-65.68652867,179.25903712,-78.92639661,116.21553528,117.53040004,43.18930993
179.36775705,159.12528191,57.94981172,-43.15479704,0.69227531,4.89747519
1.12837839,-2.40251390,0.46600524,-1.38979862

>  <Name>
lig.pdb

>  <RI>
3.31443e+07

>  <Rbt.Current_Directory>
/home/itssahil/PROJECTS/Mol_Feturizer/New_Systems/rnas/2mxs

>  <Rbt.Executable>
rbdock ($Id: //depot/dev/client3/rdock/2013.1/src/exe/rbdock.cxx#4 $)

>  <Rbt.Library>
libRbt.so (2013.1, Build901 2013/11/27)

>  <Rbt.Parameter_File>
/export/apps/rDock/src/rDock_2013.1_src/data/scripts/dock_solv.prm

>  <Rbt.Receptor>
prm/blind_docking_40.prm

>  <SCORE>
202.257

>  <SCORE.INTER>
156.211

>  <SCORE.INTER.CONST>
1

>  <SCORE.INTER.POLAR>
-0.808656

>  <SCORE.INTER.ROT>
9

>  <SCORE.INTER.SOLV>
27.3111

>  <SCORE.INTER.VDW>
88.1325

>  <SCORE.INTER.norm>
3.71931

>  <SCORE.INTRA>
22.0682

>  <SCORE.INTRA.DIHEDRAL>
13.7383

>  <SCORE.INTRA.DIHEDRAL.0>
30.1357

>  <SCORE.INTRA.POLAR>
-1.89765

>  <SCORE.INTRA.POLAR.0>
-0.631696

>  <SCORE.INTRA.REPUL>
0.0102363

>  <SCORE.INTRA.REPUL.0>
0

>  <SCORE.INTRA.SOLV>
5.37151

>  <SCORE.INTRA.SOLV.lig_0>
-55.904

>  <SCORE.INTRA.VDW>
18.9141

>  <SCORE.INTRA.VDW.0>
-8.21197

>  <SCORE.INTRA.norm>
0.525433

>  <SCORE.RESTR>
23.9781

>  <SCORE.RESTR.CAVITY>
23.9781

>  <SCORE.RESTR.norm>
0.570908

>  <SCORE.SYSTEM>
0

>  <SCORE.SYSTEM.CONST>
0

>  <SCORE.SYSTEM.DIHEDRAL>
0

>  <SCORE.SYSTEM.SOLV>
0

>  <SCORE.SYSTEM.norm>
0

>  <SCORE.heavy>
42

>  <SCORE.norm>
4.81565

>  <RMSD>
8.125

$$$$
lig.pdb
 OpenBabel11021811453D
libRbt.so/2013.1/901 2013/11/27
 42 45  0  0  0  0  0  0  0  0999 V2000
   -0.5195    1.6980    4.0711 C   0  0  2  0  0  0  0  0  0  0  0  0
   -1.1848    0.8976    3.0922 O   0  0  0  0  0  0  0  0  0  0  0  0
    0.2208    0.8159    5.0878 C   0  0  2  0  0  0  0  0  0  0  0  0
    1.1446   -0.1120    4.4095 N   0  0  0  0  0  0  0  0  0  0  0  0
   -0.7691    0.0545    5.9788 C   0  0  1  0  0  0  0  0  0  0  0  0
   -0.0586   -0.6246    6.9964 O   0  0  0  0  0  0  0  0  0  0  0  0
   -1.7676    1.0303    6.6196 C   0  0  2  0  0  0  0  0  0  0  0  0
   -2.7636    0.2973    7.3067 O   0  0  0  0  0  0  0  0  0  0  0  0
   -2.4252    1.9413    5.5632 C   0  0  2  0  0  0  0  0  0  0  0  0
   -1.4435    2.5592    4.7316 O   0  0  0  0  0  0  0  0  0  0  0  0
   -3.2366    3.0227    6.3018 C   0  0  0  0  0  0  0  0  0  0  0  0
   -3.5042    4.1766    5.4609 O   0  0  0  0  0  0  0  0  0  0  0  0
   -0.7432    0.9327   -1.1897 C   0  0  2  0  0  0  0  0  0  0  0  0
    0.0504    1.0932   -2.4245 N   0  0  0  0  0  0  0  0  0  0  0  0
   -0.7284    2.2289   -0.3756 C   0  0  0  0  0  0  0  0  0  0  0  0
   -1.4257    2.0291    0.9648 C   0  0  2  0  0  0  0  0  0  0  0  0
   -1.4931    3.3007    1.6957 N   0  0  0  0  0  0  0  0  0  0  0  0
   -0.6597    0.9446    1.7575 C   0  0  2  0  0  0  0  0  0  0  0  0
   -0.8102   -0.3597    1.0422 C   0  0  2  0  0  0  0  0  0  0  0  0
   -0.1380   -1.3448    1.8052 O   0  0  0  0  0  0  0  0  0  0  0  0
   -0.2202   -0.2486   -0.3510 C   0  0  1  0  0  0  0  0  0  0  0  0
   -0.4105   -1.4313   -1.1046 O   0  0  0  0  0  0  0  0  0  0  0  0
   -0.9259   -2.3569    2.4229 C   0  0  1  0  0  0  0  0  0  0  0  0
   -1.9556   -1.6658    3.3194 C   0  0  2  0  0  0  0  0  0  0  0  0
   -2.1655   -2.4479    4.4800 O   0  0  0  0  0  0  0  0  0  0  0  0
   -3.1919   -1.5997    2.4127 C   0  0  2  0  0  0  0  0  0  0  0  0
   -4.4076   -1.4443    3.1453 O   0  0  0  0  0  0  0  0  0  0  0  0
   -3.0514   -2.9362    1.6737 C   0  0  2  0  0  0  0  0  0  0  0  0
   -1.6576   -3.0656    1.4306 O   0  0  0  0  0  0  0  0  0  0  0  0
   -3.7983   -3.0017    0.3364 C   0  0  0  0  0  0  0  0  0  0  0  0
   -3.2248   -2.1386   -0.6223 O   0  0  0  0  0  0  0  0  0  0  0  0
   -5.5595   -1.2001    2.3405 C   0  0  2  0  0  0  0  0  0  0  0  0
   -6.4219   -0.0627    2.9086 C   0  0  2  0  0  0  0  0  0  0  0  0
   -5.6253    1.1625    3.0882 N   0  0  0  0  0  0  0  0  0  0  0  0
   -7.1053   -0.4860    4.2176 C   0  0  1  0  0  0  0  0  0  0  0  0
   -7.9497    0.5647    4.6464 O   0  0  0  0  0  0  0  0  0  0  0  0
   -7.9324   -1.7542    3.9463 C   0  0  2  0  0  0  0  0  0  0  0  0
   -8.5510   -2.2128    5.1344 O   0  0  0  0  0  0  0  0  0  0  0  0
   -7.0559   -2.8648    3.3317 C   0  0  1  0  0  0  0  0  0  0  0  0
   -6.3311   -2.3902    2.1947 O   0  0  0  0  0  0  0  0  0  0  0  0
   -6.1363   -3.5499    4.3533 C   0  0  0  0  0  0  0  0  0  0  0  0
   -6.8336   -4.6384    5.0571 N   0  0  0  0  0  0  0  0  0  0  0  0
  1  3  1  0  0  0  0
  1  2  1  6  0  0  0
  3  4  1  6  0  0  0
  5  6  1  1  0  0  0
  5  3  1  0  0  0  0
  7  9  1  0  0  0  0
  7  5  1  0  0  0  0
  7  8  1  6  0  0  0
  9 10  1  0  0  0  0
  9 11  1  1  0  0  0
 10  1  1  0  0  0  0
 11 12  1  0  0  0  0
 13 14  1  6  0  0  0
 13 21  1  0  0  0  0
 15 13  1  0  0  0  0
 16 15  1  0  0  0  0
 16 18  1  0  0  0  0
 16 17  1  1  0  0  0
 18  2  1  1  0  0  0
 18 19  1  0  0  0  0
 19 21  1  0  0  0  0
 19 20  1  1  0  0  0
 21 22  1  6  0  0  0
 23 20  1  6  0  0  0
 23 29  1  0  0  0  0
 23 24  1  0  0  0  0
 24 26  1  0  0  0  0
 24 25  1  1  0  0  0
 26 27  1  1  0  0  0
 28 26  1  0  0  0  0
 28 30  1  6  0  0  0
 29 28  1  0  0  0  0
 30 31  1  0  0  0  0
 32 27  1  1  0  0  0
 32 40  1  0  0  0  0
 32 33  1  0  0  0  0
 33 35  1  0  0  0  0
 33 34  1  1  0  0  0
 35 37  1  0  0  0  0
 35 36  1  6  0  0  0
 37 38  1  1  0  0  0
 39 37  1  0  0  0  0
 39 41  1  1  0  0  0
 40 39  1  0  0  0  0
 42 41  1  0  0  0  0
M  END
>  <CHROM.1>
-93.12787243,-110.92373957,-58.75622977,-178.57465027,59.81362599,-60.51142693
159.97951232,-30.73798877,-50.07069266,112.86847107,-56.88617529,98.29325082
-68.40884719,172.05085541,-134.68498275,67.76392094,43.15082441,36.96305162
64.80555375,-59.43121816,85.19042307,159.26977931,-2.93187739,-0.36497923
3.04923221,-0.21673377,0.52038724,1.08990394

>  <Name>
lig.pdb

>  <RI>
4.11275e+07

>  <Rbt.Current_Directory>
/home/itssahil/PROJECTS/Mol_Feturizer/New_Systems/rnas/2mxs

>  <Rbt.Executable>
rbdock ($Id: //depot/dev/client3/rdock/2013.1/src/exe/rbdock.cxx#4 $)

>  <Rbt.Library>
libRbt.so (2013.1, Build901 2013/11/27)

>  <Rbt.Parameter_File>
/export/apps/rDock/src/rDock_2013.1_src/data/scripts/dock_solv.prm

>  <Rbt.Receptor>
prm/pocket_docking_8.prm

>  <SCORE>
-36.5059

>  <SCORE.INTER>
-37.7029

>  <SCORE.INTER.CONST>
1

>  <SCORE.INTER.POLAR>
-6.97083

>  <SCORE.INTER.ROT>
9

>  <SCORE.INTER.SOLV>
13.2509

>  <SCORE.INTER.VDW>
-15.9162

>  <SCORE.INTER.norm>
-0.897688

>  <SCORE.INTRA>
1.19701

>  <SCORE.INTRA.DIHEDRAL>
9.11193

>  <SCORE.INTRA.DIHEDRAL.0>
30.1357

>  <SCORE.INTRA.POLAR>
-1.85403

>  <SCORE.INTRA.POLAR.0>
-0.631696

>  <SCORE.INTRA.REPUL>
0

>  <SCORE.INTRA.REPUL.0>
0

>  <SCORE.INTRA.SOLV>
2.22769

>  <SCORE.INTRA.SOLV.lig_0>
-55.904

>  <SCORE.INTRA.VDW>
1.83092

>  <SCORE.INTRA.VDW.0>
-8.21197

>  <SCORE.INTRA.norm>
0.0285003

>  <SCORE.RESTR>
0

>  <SCORE.RESTR.CAVITY>
0

>  <SCORE.RESTR.norm>
0

>  <SCORE.SYSTEM>
0

>  <SCORE.SYSTEM.CONST>
0

>  <SCORE.SYSTEM.DIHEDRAL>
0

>  <SCORE.SYSTEM.SOLV>
0

>  <SCORE.SYSTEM.norm>
0

>  <SCORE.heavy>
42

>  <SCORE.norm>
-0.869188

>  <RMSD>
8.136

$$$$
lig.pdb
 OpenBabel11021811453D
libRbt.so/2013.1/901 2013/11/27
 42 45  0  0  0  0  0  0  0  0999 V2000
   -2.9323   -0.7532    3.3965 C   0  0  2  0  0  0  0  0  0  0  0  0
   -1.5297   -0.7266    3.1252 O   0  0  0  0  0  0  0  0  0  0  0  0
   -3.7291   -1.0858    2.1260 C   0  0  2  0  0  0  0  0  0  0  0  0
   -3.2578   -2.3448    1.5202 N   0  0  0  0  0  0  0  0  0  0  0  0
   -3.6638    0.0688    1.1179 C   0  0  1  0  0  0  0  0  0  0  0  0
   -4.5284   -0.2061    0.0323 O   0  0  0  0  0  0  0  0  0  0  0  0
   -4.0897    1.3843    1.7872 C   0  0  2  0  0  0  0  0  0  0  0  0
   -3.8722    2.4575    0.8914 O   0  0  0  0  0  0  0  0  0  0  0  0
   -3.3118    1.6307    3.0958 C   0  0  2  0  0  0  0  0  0  0  0  0
   -3.3629    0.4880    3.9494 O   0  0  0  0  0  0  0  0  0  0  0  0
   -3.9446    2.8412    3.8084 C   0  0  0  0  0  0  0  0  0  0  0  0
   -5.3675    2.6595    4.0377 O   0  0  0  0  0  0  0  0  0  0  0  0
    0.0404    0.7374    6.8564 C   0  0  2  0  0  0  0  0  0  0  0  0
    1.1247    0.9155    7.8427 N   0  0  0  0  0  0  0  0  0  0  0  0
   -0.2418   -0.7513    6.6390 C   0  0  0  0  0  0  0  0  0  0  0  0
   -1.2595   -0.9472    5.5215 C   0  0  2  0  0  0  0  0  0  0  0  0
   -1.5969   -2.3699    5.3869 N   0  0  0  0  0  0  0  0  0  0  0  0
   -0.6699   -0.3651    4.2157 C   0  0  2  0  0  0  0  0  0  0  0  0
   -0.5442    1.1165    4.3723 C   0  0  2  0  0  0  0  0  0  0  0  0
   -0.0429    1.6334    3.1533 O   0  0  0  0  0  0  0  0  0  0  0  0
    0.3898    1.4302    5.5258 C   0  0  1  0  0  0  0  0  0  0  0  0
    0.4802    2.8208    5.7734 O   0  0  0  0  0  0  0  0  0  0  0  0
   -0.6377    2.8217    2.6425 C   0  0  1  0  0  0  0  0  0  0  0  0
    0.4905    3.7804    2.2559 C   0  0  2  0  0  0  0  0  0  0  0  0
    0.0917    5.1093    2.5348 O   0  0  0  0  0  0  0  0  0  0  0  0
    0.6547    3.5094    0.7544 C   0  0  2  0  0  0  0  0  0  0  0  0
    1.2906    4.5855    0.0642 O   0  0  0  0  0  0  0  0  0  0  0  0
   -0.8095    3.2704    0.3657 C   0  0  2  0  0  0  0  0  0  0  0  0
   -1.3495    2.5248    1.4478 O   0  0  0  0  0  0  0  0  0  0  0  0
   -0.9984    2.4743   -0.9308 C   0  0  0  0  0  0  0  0  0  0  0  0
   -0.3792    1.2076   -0.8583 O   0  0  0  0  0  0  0  0  0  0  0  0
    1.3350    4.4385   -1.3538 C   0  0  2  0  0  0  0  0  0  0  0  0
    2.7675    4.2088   -1.8590 C   0  0  2  0  0  0  0  0  0  0  0  0
    3.3860    3.0567   -1.1820 N   0  0  0  0  0  0  0  0  0  0  0  0
    3.6204    5.4768   -1.7031 C   0  0  1  0  0  0  0  0  0  0  0  0
    4.8971    5.2337   -2.2613 O   0  0  0  0  0  0  0  0  0  0  0  0
    2.9242    6.6262   -2.4516 C   0  0  2  0  0  0  0  0  0  0  0  0
    3.6495    7.8330   -2.3032 O   0  0  0  0  0  0  0  0  0  0  0  0
    1.4727    6.8060   -1.9613 C   0  0  1  0  0  0  0  0  0  0  0  0
    0.7526    5.5715   -1.9941 O   0  0  0  0  0  0  0  0  0  0  0  0
    1.3736    7.4917   -0.5906 C   0  0  0  0  0  0  0  0  0  0  0  0
    0.0972    7.1813    0.0732 N   0  0  0  0  0  0  0  0  0  0  0  0
  1  3  1  0  0  0  0
  1  2  1  6  0  0  0
  3  4  1  6  0  0  0
  5  6  1  6  0  0  0
  5  3  1  0  0  0  0
  7  9  1  0  0  0  0
  7  5  1  0  0  0  0
  7  8  1  6  0  0  0
  9 10  1  0  0  0  0
  9 11  1  1  0  0  0
 10  1  1  0  0  0  0
 11 12  1  0  0  0  0
 13 14  1  1  0  0  0
 13 21  1  0  0  0  0
 15 13  1  0  0  0  0
 16 15  1  0  0  0  0
 16 18  1  0  0  0  0
 16 17  1  6  0  0  0
 18  2  1  6  0  0  0
 18 19  1  0  0  0  0
 19 21  1  0  0  0  0
 19 20  1  6  0  0  0
 21 22  1  1  0  0  0
 23 20  1  6  0  0  0
 23 29  1  0  0  0  0
 23 24  1  0  0  0  0
 24 26  1  0  0  0  0
 24 25  1  6  0  0  0
 26 27  1  6  0  0  0
 28 26  1  0  0  0  0
 28 30  1  6  0  0  0
 29 28  1  0  0  0  0
 30 31  1  0  0  0  0
 32 27  1  1  0  0  0
 32 40  1  0  0  0  0
 32 33  1  0  0  0  0
 33 35  1  0  0  0  0
 33 34  1  1  0  0  0
 35 37  1  0  0  0  0
 35 36  1  6  0  0  0
 37 38  1  1  0  0  0
 39 37  1  0  0  0  0
 39 41  1  1  0  0  0
 40 39  1  0  0  0  0
 42 41  1  0  0  0  0
M  END
>  <CHROM.1>
36.11872763,177.16526032,57.51420092,-67.44786610,58.98441374,-74.59049741
55.60474445,-71.40987844,-65.83112788,136.69828320,132.10940346,-171.35736601
-54.45971620,-173.61870130,-111.31105400,58.37298230,-176.67647956,-171.66337616
-71.79117434,173.29105989,-157.58788256,-61.96421293,-0.50879629,2.47577299
1.76518970,2.16786735,0.53391154,2.03441771

>  <Name>
lig.pdb

>  <RI>
3.99633e+07

>  <Rbt.Current_Directory>
/home/itssahil/PROJECTS/Mol_Feturizer/New_Systems/rnas/2mxs

>  <Rbt.Executable>
rbdock ($Id: //depot/dev/client3/rdock/2013.1/src/exe/rbdock.cxx#4 $)

>  <Rbt.Library>
libRbt.so (2013.1, Build901 2013/11/27)

>  <Rbt.Parameter_File>
/export/apps/rDock/src/rDock_2013.1_src/data/scripts/dock_solv.prm

>  <Rbt.Receptor>
prm/pocket_docking_5.prm

>  <SCORE>
-27.5868

>  <SCORE.INTER>
-31.6174

>  <SCORE.INTER.CONST>
1

>  <SCORE.INTER.POLAR>
-3.09649

>  <SCORE.INTER.ROT>
9

>  <SCORE.INTER.SOLV>
14.9114

>  <SCORE.INTER.VDW>
-25.3271

>  <SCORE.INTER.norm>
-0.752795

>  <SCORE.INTRA>
4.03059

>  <SCORE.INTRA.DIHEDRAL>
-2.60552

>  <SCORE.INTRA.DIHEDRAL.0>
30.1357

>  <SCORE.INTRA.POLAR>
0.0334677

>  <SCORE.INTRA.POLAR.0>
-0.631696

>  <SCORE.INTRA.REPUL>
0.00508502

>  <SCORE.INTRA.REPUL.0>
0

>  <SCORE.INTRA.SOLV>
2.27151

>  <SCORE.INTRA.SOLV.lig_0>
-55.904

>  <SCORE.INTRA.VDW>
4.05838

>  <SCORE.INTRA.VDW.0>
-8.21197

>  <SCORE.INTRA.norm>
0.0959665

>  <SCORE.RESTR>
0

>  <SCORE.RESTR.CAVITY>
0

>  <SCORE.RESTR.norm>
0

>  <SCORE.SYSTEM>
0

>  <SCORE.SYSTEM.CONST>
0

>  <SCORE.SYSTEM.DIHEDRAL>
0

>  <SCORE.SYSTEM.SOLV>
0

>  <SCORE.SYSTEM.norm>
0

>  <SCORE.heavy>
42

>  <SCORE.norm>
-0.656828

>  <RMSD>
8.149

$$$$
lig.pdb
 OpenBabel11021811453D
libRbt.so/2013.1/901 2013/11/27
 42 45  0  0  0  0  0  0  0  0999 V2000
   -3.7998    4.9208    4.0079 C   0  0  2  0  0  0  0  0  0  0  0  0
   -2.6064    4.4390    4.6286 O   0  0  0  0  0  0  0  0  0  0  0  0
   -4.8555    3.8088    3.9147 C   0  0  2  0  0  0  0  0  0  0  0  0
   -5.1196    3.2176    5.2395 N   0  0  0  0  0  0  0  0  0  0  0  0
   -4.4334    2.7331    2.9057 C   0  0  1  0  0  0  0  0  0  0  0  0
   -5.4917    1.8102    2.7329 O   0  0  0  0  0  0  0  0  0  0  0  0
   -4.0933    3.3765    1.5528 C   0  0  2  0  0  0  0  0  0  0  0  0
   -3.5573    2.3935    0.6881 O   0  0  0  0  0  0  0  0  0  0  0  0
   -3.0875    4.5344    1.7142 C   0  0  2  0  0  0  0  0  0  0  0  0
   -3.5169    5.4549    2.7169 O   0  0  0  0  0  0  0  0  0  0  0  0
   -2.9693    5.2584    0.3596 C   0  0  0  0  0  0  0  0  0  0  0  0
   -4.2605    5.4324   -0.2830 O   0  0  0  0  0  0  0  0  0  0  0  0
   -0.8791    8.0304    6.2561 C   0  0  2  0  0  0  0  0  0  0  0  0
    0.2462    8.8092    6.8106 N   0  0  0  0  0  0  0  0  0  0  0  0
   -1.1705    6.8144    7.1390 C   0  0  0  0  0  0  0  0  0  0  0  0
   -2.2348    5.9299    6.5003 C   0  0  2  0  0  0  0  0  0  0  0  0
   -2.5779    4.8204    7.3987 N   0  0  0  0  0  0  0  0  0  0  0  0
   -1.7011    5.4289    5.1381 C   0  0  2  0  0  0  0  0  0  0  0  0
   -1.5685    6.6023    4.2210 C   0  0  2  0  0  0  0  0  0  0  0  0
   -1.1193    6.1169    2.9692 O   0  0  0  0  0  0  0  0  0  0  0  0
   -0.5863    7.5992    4.8067 C   0  0  1  0  0  0  0  0  0  0  0  0
   -0.4852    8.7709    4.0194 O   0  0  0  0  0  0  0  0  0  0  0  0
   -0.0133    5.2204    2.9637 C   0  0  1  0  0  0  0  0  0  0  0  0
   -0.5165    3.8602    2.4760 C   0  0  2  0  0  0  0  0  0  0  0  0
    0.1674    2.8325    3.1680 O   0  0  0  0  0  0  0  0  0  0  0  0
   -0.1779    3.8996    0.9797 C   0  0  2  0  0  0  0  0  0  0  0  0
   -0.1019    2.5991    0.3951 O   0  0  0  0  0  0  0  0  0  0  0  0
    1.1513    4.6630    1.0280 C   0  0  2  0  0  0  0  0  0  0  0  0
    0.9547    5.6610    2.0198 O   0  0  0  0  0  0  0  0  0  0  0  0
    1.5399    5.3415   -0.2908 C   0  0  0  0  0  0  0  0  0  0  0  0
    1.0179    6.6504   -0.3758 O   0  0  0  0  0  0  0  0  0  0  0  0
    0.7252    2.5158   -0.7638 C   0  0  2  0  0  0  0  0  0  0  0  0
    0.1750    1.5099   -1.7864 C   0  0  2  0  0  0  0  0  0  0  0  0
   -1.2166    1.8313   -2.1443 N   0  0  0  0  0  0  0  0  0  0  0  0
    0.3047    0.0686   -1.2713 C   0  0  1  0  0  0  0  0  0  0  0  0
   -0.1356   -0.8144   -2.2848 O   0  0  0  0  0  0  0  0  0  0  0  0
    1.7828   -0.1985   -0.9404 C   0  0  2  0  0  0  0  0  0  0  0  0
    1.9519   -1.5038   -0.4190 O   0  0  0  0  0  0  0  0  0  0  0  0
    2.3260    0.8520    0.0501 C   0  0  1  0  0  0  0  0  0  0  0  0
    2.0635    2.1824   -0.4020 O   0  0  0  0  0  0  0  0  0  0  0  0
    1.8489    0.6319    1.4933 C   0  0  0  0  0  0  0  0  0  0  0  0
    2.4931   -0.5456    2.0973 N   0  0  0  0  0  0  0  0  0  0  0  0
  1  3  1  0  0  0  0
  1  2  1  6  0  0  0
  3  4  1  1  0  0  0
  5  6  1  6  0  0  0
  5  3  1  0  0  0  0
  7  9  1  0  0  0  0
  7  5  1  0  0  0  0
  7  8  1  6  0  0  0
  9 10  1  0  0  0  0
  9 11  1  6  0  0  0
 10  1  1  0  0  0  0
 11 12  1  0  0  0  0
 13 14  1  1  0  0  0
 13 21  1  0  0  0  0
 15 13  1  0  0  0  0
 16 15  1  0  0  0  0
 16 18  1  0  0  0  0
 16 17  1  1  0  0  0
 18  2  1  6  0  0  0
 18 19  1  0  0  0  0
 19 21  1  0  0  0  0
 19 20  1  6  0  0  0
 21 22  1  6  0  0  0
 23 20  1  6  0  0  0
 23 29  1  0  0  0  0
 23 24  1  0  0  0  0
 24 26  1  0  0  0  0
 24 25  1  1  0  0  0
 26 27  1  1  0  0  0
 28 26  1  0  0  0  0
 28 30  1  6  0  0  0
 29 28  1  0  0  0  0
 30 31  1  0  0  0  0
 32 27  1  1  0  0  0
 32 40  1  0  0  0  0
 32 33  1  0  0  0  0
 33 35  1  0  0  0  0
 33 34  1  1  0  0  0
 35 37  1  0  0  0  0
 35 36  1  6  0  0  0
 37 38  1  1  0  0  0
 39 37  1  0  0  0  0
 39 41  1  1  0  0  0
 40 39  1  0  0  0  0
 42 41  1  0  0  0  0
M  END
>  <CHROM.1>
79.27349818,-162.10530307,59.16259681,55.64378674,-173.16731908,22.12625112
42.08929808,52.63621931,-29.55588149,-48.11560135,113.79864095,76.50213647
-74.98188114,-154.63655725,-145.42790784,89.12050941,46.63544680,141.54202428
21.75675427,40.10433798,71.47932995,97.72177710,-1.04436339,3.86913714,2.16445489
1.91999689,0.25685643,0.72095722

>  <Name>
lig.pdb

>  <RI>
3.17932e+07

>  <Rbt.Current_Directory>
/home/itssahil/PROJECTS/Mol_Feturizer/New_Systems/rnas/2mxs

>  <Rbt.Executable>
rbdock ($Id: //depot/dev/client3/rdock/2013.1/src/exe/rbdock.cxx#4 $)

>  <Rbt.Library>
libRbt.so (2013.1, Build901 2013/11/27)

>  <Rbt.Parameter_File>
/export/apps/rDock/src/rDock_2013.1_src/data/scripts/dock_solv.prm

>  <Rbt.Receptor>
prm/blind_docking_100.prm

>  <SCORE>
25.9992

>  <SCORE.INTER>
-21.1747

>  <SCORE.INTER.CONST>
1

>  <SCORE.INTER.POLAR>
-6.27412

>  <SCORE.INTER.ROT>
9

>  <SCORE.INTER.SOLV>
31.0192

>  <SCORE.INTER.VDW>
-13.1425

>  <SCORE.INTER.norm>
-0.50416

>  <SCORE.INTRA>
17.1779

>  <SCORE.INTRA.DIHEDRAL>
14.7335

>  <SCORE.INTRA.DIHEDRAL.0>
30.1357

>  <SCORE.INTRA.POLAR>
-0.157229

>  <SCORE.INTRA.POLAR.0>
-0.631696

>  <SCORE.INTRA.REPUL>
0.0172759

>  <SCORE.INTRA.REPUL.0>
0

>  <SCORE.INTRA.SOLV>
2.03709

>  <SCORE.INTRA.SOLV.lig_0>
-55.904

>  <SCORE.INTRA.VDW>
9.24082

>  <SCORE.INTRA.VDW.0>
-8.21197

>  <SCORE.INTRA.norm>
0.408998

>  <SCORE.RESTR>
29.996

>  <SCORE.RESTR.CAVITY>
29.996

>  <SCORE.RESTR.norm>
0.71419

>  <SCORE.SYSTEM>
0

>  <SCORE.SYSTEM.CONST>
0

>  <SCORE.SYSTEM.DIHEDRAL>
0

>  <SCORE.SYSTEM.SOLV>
0

>  <SCORE.SYSTEM.norm>
0

>  <SCORE.heavy>
42

>  <SCORE.norm>
0.619028

>  <RMSD>
8.155

$$$$
lig.pdb
 OpenBabel11021811453D
libRbt.so/2013.1/901 2013/11/27
 42 45  0  0  0  0  0  0  0  0999 V2000
    0.1385    4.4078    5.9017 C   0  0  2  0  0  0  0  0  0  0  0  0
    0.1332    3.1338    6.5487 O   0  0  0  0  0  0  0  0  0  0  0  0
    0.9407    5.4325    6.7178 C   0  0  2  0  0  0  0  0  0  0  0  0
    2.3050    4.9424    6.9881 N   0  0  0  0  0  0  0  0  0  0  0  0
    0.2144    5.7871    8.0217 C   0  0  1  0  0  0  0  0  0  0  0  0
    0.9012    6.8401    8.6706 O   0  0  0  0  0  0  0  0  0  0  0  0
   -1.2274    6.2264    7.7252 C   0  0  2  0  0  0  0  0  0  0  0  0
   -1.9257    6.3956    8.9439 O   0  0  0  0  0  0  0  0  0  0  0  0
   -1.9616    5.1978    6.8413 C   0  0  2  0  0  0  0  0  0  0  0  0
   -1.1926    4.8691    5.6847 O   0  0  0  0  0  0  0  0  0  0  0  0
   -3.3093    5.8093    6.4135 C   0  0  0  0  0  0  0  0  0  0  0  0
   -4.0289    4.9542    5.4854 O   0  0  0  0  0  0  0  0  0  0  0  0
   -1.5811   -0.6279    5.3480 C   0  0  2  0  0  0  0  0  0  0  0  0
   -2.6217   -1.4444    4.6916 N   0  0  0  0  0  0  0  0  0  0  0  0
   -2.1915    0.2016    6.4804 C   0  0  0  0  0  0  0  0  0  0  0  0
   -1.1546    1.1504    7.0700 C   0  0  2  0  0  0  0  0  0  0  0  0
   -1.7206    1.8700    8.2179 N   0  0  0  0  0  0  0  0  0  0  0  0
   -0.6845    2.1144    5.9559 C   0  0  2  0  0  0  0  0  0  0  0  0
    0.0542    1.3223    4.9252 C   0  0  2  0  0  0  0  0  0  0  0  0
    0.5111    2.2280    3.9376 O   0  0  0  0  0  0  0  0  0  0  0  0
   -0.8688    0.2780    4.3260 C   0  0  1  0  0  0  0  0  0  0  0  0
   -0.1971   -0.5577    3.4022 O   0  0  0  0  0  0  0  0  0  0  0  0
   -0.4551    3.0572    3.3005 C   0  0  1  0  0  0  0  0  0  0  0  0
    0.2833    4.2477    2.6852 C   0  0  2  0  0  0  0  0  0  0  0  0
   -0.5251    5.4046    2.7893 O   0  0  0  0  0  0  0  0  0  0  0  0
    0.4912    3.7937    1.2340 C   0  0  2  0  0  0  0  0  0  0  0  0
    0.7188    4.8838    0.3404 O   0  0  0  0  0  0  0  0  0  0  0  0
   -0.8210    3.0342    1.0027 C   0  0  2  0  0  0  0  0  0  0  0  0
   -1.0579    2.3492    2.2246 O   0  0  0  0  0  0  0  0  0  0  0  0
   -0.7680    2.0122   -0.1389 C   0  0  0  0  0  0  0  0  0  0  0  0
   -2.0617    1.6291   -0.5544 O   0  0  0  0  0  0  0  0  0  0  0  0
    0.7780    4.5205   -1.0375 C   0  0  2  0  0  0  0  0  0  0  0  0
    2.1662    3.9914   -1.4290 C   0  0  2  0  0  0  0  0  0  0  0  0
    2.5657    2.8701   -0.5624 N   0  0  0  0  0  0  0  0  0  0  0  0
    3.2129    5.1156   -1.4122 C   0  0  1  0  0  0  0  0  0  0  0  0
    4.4467    4.5905   -1.8623 O   0  0  0  0  0  0  0  0  0  0  0  0
    2.7383    6.2360   -2.3532 C   0  0  2  0  0  0  0  0  0  0  0  0
    3.6493    7.3197   -2.3417 O   0  0  0  0  0  0  0  0  0  0  0  0
    1.3236    6.7171   -1.9703 C   0  0  1  0  0  0  0  0  0  0  0  0
    0.4099    5.6230   -1.8632 O   0  0  0  0  0  0  0  0  0  0  0  0
    1.3012    7.6077   -0.7192 C   0  0  0  0  0  0  0  0  0  0  0  0
    0.0489    7.4403    0.0357 N   0  0  0  0  0  0  0  0  0  0  0  0
  1  3  1  0  0  0  0
  1  2  1  1  0  0  0
  3  4  1  1  0  0  0
  5  6  1  6  0  0  0
  5  3  1  0  0  0  0
  7  9  1  0  0  0  0
  7  5  1  0  0  0  0
  7  8  1  1  0  0  0
  9 10  1  0  0  0  0
  9 11  1  6  0  0  0
 10  1  1  0  0  0  0
 11 12  1  0  0  0  0
 13 14  1  6  0  0  0
 13 21  1  0  0  0  0
 15 13  1  0  0  0  0
 16 15  1  0  0  0  0
 16 18  1  0  0  0  0
 16 17  1  1  0  0  0
 18  2  1  1  0  0  0
 18 19  1  0  0  0  0
 19 21  1  0  0  0  0
 19 20  1  6  0  0  0
 21 22  1  6  0  0  0
 23 20  1  6  0  0  0
 23 29  1  0  0  0  0
 23 24  1  0  0  0  0
 24 26  1  0  0  0  0
 24 25  1  6  0  0  0
 26 27  1  6  0  0  0
 28 26  1  0  0  0  0
 28 30  1  6  0  0  0
 29 28  1  0  0  0  0
 30 31  1  0  0  0  0
 32 27  1  1  0  0  0
 32 40  1  0  0  0  0
 32 33  1  0  0  0  0
 33 35  1  0  0  0  0
 33 34  1  1  0  0  0
 35 37  1  0  0  0  0
 35 36  1  6  0  0  0
 37 38  1  1  0  0  0
 39 37  1  0  0  0  0
 39 41  1  1  0  0  0
 40 39  1  0  0  0  0
 42 41  1  0  0  0  0
M  END
>  <CHROM.1>
-150.89640980,174.41316968,-52.42585081,59.36540770,-53.92547406,59.34831564
175.32517814,59.63316138,-177.10244018,-55.68309796,159.98673296,-60.21947568
60.69384790,-173.76712972,-82.22692867,-163.22308624,58.60535663,170.15632750
-65.62105155,61.81877048,-148.34682877,176.20660258,-0.02600891,3.88654696
3.23435095,-2.58469007,-1.15951168,-2.31832389

>  <Name>
lig.pdb

>  <RI>
3.99633e+07

>  <Rbt.Current_Directory>
/home/itssahil/PROJECTS/Mol_Feturizer/New_Systems/rnas/2mxs

>  <Rbt.Executable>
rbdock ($Id: //depot/dev/client3/rdock/2013.1/src/exe/rbdock.cxx#4 $)

>  <Rbt.Library>
libRbt.so (2013.1, Build901 2013/11/27)

>  <Rbt.Parameter_File>
/export/apps/rDock/src/rDock_2013.1_src/data/scripts/dock_solv.prm

>  <Rbt.Receptor>
prm/pocket_docking_5.prm

>  <SCORE>
-37.6407

>  <SCORE.INTER>
-27.7918

>  <SCORE.INTER.CONST>
1

>  <SCORE.INTER.POLAR>
-3.29054

>  <SCORE.INTER.ROT>
9

>  <SCORE.INTER.SOLV>
12.7552

>  <SCORE.INTER.VDW>
-21.4111

>  <SCORE.INTER.norm>
-0.66171

>  <SCORE.INTRA>
-9.8489

>  <SCORE.INTRA.DIHEDRAL>
-16.9723

>  <SCORE.INTRA.DIHEDRAL.0>
30.1357

>  <SCORE.INTRA.POLAR>
-1.27807

>  <SCORE.INTRA.POLAR.0>
-0.631696

>  <SCORE.INTRA.REPUL>
0

>  <SCORE.INTRA.REPUL.0>
0

>  <SCORE.INTRA.SOLV>
-0.3734

>  <SCORE.INTRA.SOLV.lig_0>
-55.904

>  <SCORE.INTRA.VDW>
3.16936

>  <SCORE.INTRA.VDW.0>
-8.21197

>  <SCORE.INTRA.norm>
-0.234498

>  <SCORE.RESTR>
0

>  <SCORE.RESTR.CAVITY>
0

>  <SCORE.RESTR.norm>
0

>  <SCORE.SYSTEM>
0

>  <SCORE.SYSTEM.CONST>
0

>  <SCORE.SYSTEM.DIHEDRAL>
0

>  <SCORE.SYSTEM.SOLV>
0

>  <SCORE.SYSTEM.norm>
0

>  <SCORE.heavy>
42

>  <SCORE.norm>
-0.896207

>  <RMSD>
8.165

$$$$
lig.pdb
 OpenBabel11021811453D
libRbt.so/2013.1/901 2013/11/27
 42 45  0  0  0  0  0  0  0  0999 V2000
   -2.9060    3.5738    4.6880 C   0  0  2  0  0  0  0  0  0  0  0  0
   -1.5186    3.7570    4.3999 O   0  0  0  0  0  0  0  0  0  0  0  0
   -3.3703    2.1696    4.2731 C   0  0  2  0  0  0  0  0  0  0  0  0
   -2.5323    1.1292    4.8976 N   0  0  0  0  0  0  0  0  0  0  0  0
   -3.3829    2.0235    2.7460 C   0  0  1  0  0  0  0  0  0  0  0  0
   -3.9578    0.7784    2.3981 O   0  0  0  0  0  0  0  0  0  0  0  0
   -4.2010    3.1573    2.1097 C   0  0  2  0  0  0  0  0  0  0  0  0
   -4.0698    3.0970    0.7024 O   0  0  0  0  0  0  0  0  0  0  0  0
   -3.7428    4.5393    2.6180 C   0  0  2  0  0  0  0  0  0  0  0  0
   -3.6916    4.5737    4.0439 O   0  0  0  0  0  0  0  0  0  0  0  0
   -4.7438    5.5933    2.1077 C   0  0  0  0  0  0  0  0  0  0  0  0
   -4.1326    6.9029    1.9600 O   0  0  0  0  0  0  0  0  0  0  0  0
   -0.8100    7.6829    6.0175 C   0  0  2  0  0  0  0  0  0  0  0  0
    0.0286    8.8779    6.2385 N   0  0  0  0  0  0  0  0  0  0  0  0
   -0.1352    6.4427    6.6089 C   0  0  0  0  0  0  0  0  0  0  0  0
   -0.9243    5.1856    6.2627 C   0  0  2  0  0  0  0  0  0  0  0  0
   -0.3248    4.0149    6.9155 N   0  0  0  0  0  0  0  0  0  0  0  0
   -0.9576    5.0375    4.7238 C   0  0  2  0  0  0  0  0  0  0  0  0
   -1.7565    6.1670    4.1567 C   0  0  2  0  0  0  0  0  0  0  0  0
   -1.8095    5.9896    2.7530 O   0  0  0  0  0  0  0  0  0  0  0  0
   -1.1016    7.4869    4.5178 C   0  0  1  0  0  0  0  0  0  0  0  0
   -1.8625    8.5959    4.0771 O   0  0  0  0  0  0  0  0  0  0  0  0
   -0.6095    6.1896    2.0136 C   0  0  1  0  0  0  0  0  0  0  0  0
    0.3070    4.9929    2.2771 C   0  0  2  0  0  0  0  0  0  0  0  0
    1.6517    5.4324    2.3145 O   0  0  0  0  0  0  0  0  0  0  0  0
    0.0108    4.0796    1.0799 C   0  0  2  0  0  0  0  0  0  0  0  0
    1.0565    3.1405    0.8283 O   0  0  0  0  0  0  0  0  0  0  0  0
   -0.1859    5.1339   -0.0164 C   0  0  2  0  0  0  0  0  0  0  0  0
   -0.8992    6.1842    0.6214 O   0  0  0  0  0  0  0  0  0  0  0  0
   -0.9926    4.6468   -1.2256 C   0  0  0  0  0  0  0  0  0  0  0  0
   -1.2905    5.7043   -2.1123 O   0  0  0  0  0  0  0  0  0  0  0  0
    0.9222    2.4141   -0.3917 C   0  0  2  0  0  0  0  0  0  0  0  0
    1.9044    1.2351   -0.4649 C   0  0  2  0  0  0  0  0  0  0  0  0
    1.7540    0.3515    0.7032 N   0  0  0  0  0  0  0  0  0  0  0  0
    3.3517    1.7278   -0.6146 C   0  0  1  0  0  0  0  0  0  0  0  0
    4.1980    0.6042   -0.7634 O   0  0  0  0  0  0  0  0  0  0  0  0
    3.4340    2.6229   -1.8627 C   0  0  2  0  0  0  0  0  0  0  0  0
    4.7421    3.1402   -2.0232 O   0  0  0  0  0  0  0  0  0  0  0  0
    2.4060    3.7707   -1.7885 C   0  0  1  0  0  0  0  0  0  0  0  0
    1.0924    3.2794   -1.5121 O   0  0  0  0  0  0  0  0  0  0  0  0
    2.8143    4.8921   -0.8219 C   0  0  0  0  0  0  0  0  0  0  0  0
    2.2525    6.1879   -1.2362 N   0  0  0  0  0  0  0  0  0  0  0  0
  1  3  1  0  0  0  0
  1  2  1  6  0  0  0
  3  4  1  1  0  0  0
  5  6  1  1  0  0  0
  5  3  1  0  0  0  0
  7  9  1  0  0  0  0
  7  5  1  0  0  0  0
  7  8  1  6  0  0  0
  9 10  1  0  0  0  0
  9 11  1  1  0  0  0
 10  1  1  0  0  0  0
 11 12  1  0  0  0  0
 13 14  1  6  0  0  0
 13 21  1  0  0  0  0
 15 13  1  0  0  0  0
 16 15  1  0  0  0  0
 16 18  1  0  0  0  0
 16 17  1  1  0  0  0
 18  2  1  1  0  0  0
 18 19  1  0  0  0  0
 19 21  1  0  0  0  0
 19 20  1  6  0  0  0
 21 22  1  1  0  0  0
 23 20  1  1  0  0  0
 23 29  1  0  0  0  0
 23 24  1  0  0  0  0
 24 26  1  0  0  0  0
 24 25  1  6  0  0  0
 26 27  1  6  0  0  0
 28 26  1  0  0  0  0
 28 30  1  6  0  0  0
 29 28  1  0  0  0  0
 30 31  1  0  0  0  0
 32 27  1  1  0  0  0
 32 40  1  0  0  0  0
 32 33  1  0  0  0  0
 33 35  1  0  0  0  0
 33 34  1  1  0  0  0
 35 37  1  0  0  0  0
 35 36  1  6  0  0  0
 37 38  1  1  0  0  0
 39 37  1  0  0  0  0
 39 41  1  1  0  0  0
 40 39  1  0  0  0  0
 42 41  1  0  0  0  0
M  END
>  <CHROM.1>
68.51150139,179.23098495,-171.17616594,67.84237599,-162.51363279,-157.18688145
-152.68342288,79.97242936,168.70800359,-70.07169830,73.62899847,81.83100090
-59.29581854,-170.75510129,-168.34801970,172.15931659,82.92058158,67.16690606
55.54115794,-172.65584199,151.51401923,-92.43721045,-0.55757944,4.34983517
1.98351376,2.39366722,0.60942823,0.58335387

>  <Name>
lig.pdb

>  <RI>
3.17932e+07

>  <Rbt.Current_Directory>
/home/itssahil/PROJECTS/Mol_Feturizer/New_Systems/rnas/2mxs

>  <Rbt.Executable>
rbdock ($Id: //depot/dev/client3/rdock/2013.1/src/exe/rbdock.cxx#4 $)

>  <Rbt.Library>
libRbt.so (2013.1, Build901 2013/11/27)

>  <Rbt.Parameter_File>
/export/apps/rDock/src/rDock_2013.1_src/data/scripts/dock_solv.prm

>  <Rbt.Receptor>
prm/blind_docking_100.prm

>  <SCORE>
95.8769

>  <SCORE.INTER>
55.453

>  <SCORE.INTER.CONST>
1

>  <SCORE.INTER.POLAR>
-2.83696

>  <SCORE.INTER.ROT>
9

>  <SCORE.INTER.SOLV>
32.1202

>  <SCORE.INTER.VDW>
26.1185

>  <SCORE.INTER.norm>
1.32031

>  <SCORE.INTRA>
14.4678

>  <SCORE.INTRA.DIHEDRAL>
-9.46145

>  <SCORE.INTRA.DIHEDRAL.0>
30.1357

>  <SCORE.INTRA.POLAR>
0.613819

>  <SCORE.INTRA.POLAR.0>
-0.631696

>  <SCORE.INTRA.REPUL>
0.386981

>  <SCORE.INTRA.REPUL.0>
0

>  <SCORE.INTRA.SOLV>
2.02489

>  <SCORE.INTRA.SOLV.lig_0>
-55.904

>  <SCORE.INTRA.VDW>
14.1642

>  <SCORE.INTRA.VDW.0>
-8.21197

>  <SCORE.INTRA.norm>
0.344472

>  <SCORE.RESTR>
25.9561

>  <SCORE.RESTR.CAVITY>
25.9561

>  <SCORE.RESTR.norm>
0.618003

>  <SCORE.SYSTEM>
0

>  <SCORE.SYSTEM.CONST>
0

>  <SCORE.SYSTEM.DIHEDRAL>
0

>  <SCORE.SYSTEM.SOLV>
0

>  <SCORE.SYSTEM.norm>
0

>  <SCORE.heavy>
42

>  <SCORE.norm>
2.28278

>  <RMSD>
8.174

$$$$
lig.pdb
 OpenBabel11021811453D
libRbt.so/2013.1/901 2013/11/27
 42 45  0  0  0  0  0  0  0  0999 V2000
   -2.1026    4.7897    2.4860 C   0  0  2  0  0  0  0  0  0  0  0  0
   -2.1639    6.0154    1.7544 O   0  0  0  0  0  0  0  0  0  0  0  0
   -3.5014    4.3618    2.9550 C   0  0  2  0  0  0  0  0  0  0  0  0
   -4.4391    4.2834    1.8197 N   0  0  0  0  0  0  0  0  0  0  0  0
   -4.0299    5.3068    4.0418 C   0  0  1  0  0  0  0  0  0  0  0  0
   -5.2458    4.7979    4.5559 O   0  0  0  0  0  0  0  0  0  0  0  0
   -3.0078    5.4314    5.1817 C   0  0  2  0  0  0  0  0  0  0  0  0
   -3.4405    6.4237    6.0925 O   0  0  0  0  0  0  0  0  0  0  0  0
   -1.6058    5.7885    4.6476 C   0  0  2  0  0  0  0  0  0  0  0  0
   -1.2148    4.9077    3.5949 O   0  0  0  0  0  0  0  0  0  0  0  0
   -0.6066    5.6798    5.8151 C   0  0  0  0  0  0  0  0  0  0  0  0
    0.5755    6.4969    5.6023 O   0  0  0  0  0  0  0  0  0  0  0  0
    0.6197    7.8158   -0.9917 C   0  0  2  0  0  0  0  0  0  0  0  0
    1.9848    8.0899   -1.4833 N   0  0  0  0  0  0  0  0  0  0  0  0
    0.4521    8.3441    0.4352 C   0  0  0  0  0  0  0  0  0  0  0  0
   -0.9048    7.9418    1.0007 C   0  0  2  0  0  0  0  0  0  0  0  0
   -1.0961    8.5350    2.3301 N   0  0  0  0  0  0  0  0  0  0  0  0
   -0.9804    6.3977    1.0386 C   0  0  2  0  0  0  0  0  0  0  0  0
   -0.9783    5.8889   -0.3674 C   0  0  2  0  0  0  0  0  0  0  0  0
   -1.0900    4.4787   -0.3110 O   0  0  0  0  0  0  0  0  0  0  0  0
    0.3039    6.3098   -1.0604 C   0  0  1  0  0  0  0  0  0  0  0  0
    0.3225    5.9261   -2.4225 O   0  0  0  0  0  0  0  0  0  0  0  0
   -0.6923    3.7357   -1.4585 C   0  0  1  0  0  0  0  0  0  0  0  0
    0.7987    3.4215   -1.3183 C   0  0  2  0  0  0  0  0  0  0  0  0
    1.4085    3.4660   -2.5946 O   0  0  0  0  0  0  0  0  0  0  0  0
    0.7840    2.0114   -0.7129 C   0  0  2  0  0  0  0  0  0  0  0  0
    2.0072    1.3057   -0.9242 O   0  0  0  0  0  0  0  0  0  0  0  0
   -0.4326    1.4234   -1.4384 C   0  0  2  0  0  0  0  0  0  0  0  0
   -1.3731    2.4874   -1.4795 O   0  0  0  0  0  0  0  0  0  0  0  0
   -1.0709    0.2216   -0.7322 C   0  0  0  0  0  0  0  0  0  0  0  0
   -0.7424   -0.9928   -1.3728 O   0  0  0  0  0  0  0  0  0  0  0  0
    3.0643    1.6705   -0.0390 C   0  0  2  0  0  0  0  0  0  0  0  0
    4.4435    1.4822   -0.6891 C   0  0  2  0  0  0  0  0  0  0  0  0
    4.5313    2.2202   -1.9601 N   0  0  0  0  0  0  0  0  0  0  0  0
    4.7676   -0.0071   -0.8800 C   0  0  1  0  0  0  0  0  0  0  0  0
    6.0783   -0.1209   -1.3997 O   0  0  0  0  0  0  0  0  0  0  0  0
    4.6771   -0.7038    0.4883 C   0  0  2  0  0  0  0  0  0  0  0  0
    4.9259   -2.0918    0.3616 O   0  0  0  0  0  0  0  0  0  0  0  0
    3.3016   -0.4603    1.1426 C   0  0  1  0  0  0  0  0  0  0  0  0
    2.9776    0.9315    1.1773 O   0  0  0  0  0  0  0  0  0  0  0  0
    2.1742   -1.2964    0.5190 C   0  0  0  0  0  0  0  0  0  0  0  0
    0.9927   -1.3418    1.3954 N   0  0  0  0  0  0  0  0  0  0  0  0
  1  3  1  0  0  0  0
  1  2  1  1  0  0  0
  3  4  1  6  0  0  0
  5  6  1  1  0  0  0
  5  3  1  0  0  0  0
  7  9  1  0  0  0  0
  7  5  1  0  0  0  0
  7  8  1  1  0  0  0
  9 10  1  0  0  0  0
  9 11  1  1  0  0  0
 10  1  1  0  0  0  0
 11 12  1  0  0  0  0
 13 14  1  1  0  0  0
 13 21  1  0  0  0  0
 15 13  1  0  0  0  0
 16 15  1  0  0  0  0
 16 18  1  0  0  0  0
 16 17  1  1  0  0  0
 18  2  1  6  0  0  0
 18 19  1  0  0  0  0
 19 21  1  0  0  0  0
 19 20  1  1  0  0  0
 21 22  1  6  0  0  0
 23 20  1  1  0  0  0
 23 29  1  0  0  0  0
 23 24  1  0  0  0  0
 24 26  1  0  0  0  0
 24 25  1  6  0  0  0
 26 27  1  6  0  0  0
 28 26  1  0  0  0  0
 28 30  1  1  0  0  0
 29 28  1  0  0  0  0
 30 31  1  0  0  0  0
 32 27  1  6  0  0  0
 32 40  1  0  0  0  0
 32 33  1  0  0  0  0
 33 35  1  0  0  0  0
 33 34  1  6  0  0  0
 35 37  1  0  0  0  0
 35 36  1  1  0  0  0
 37 38  1  6  0  0  0
 39 37  1  0  0  0  0
 39 41  1  6  0  0  0
 40 39  1  0  0  0  0
 42 41  1  0  0  0  0
M  END
>  <CHROM.1>
-148.73775600,-168.28643148,172.38245587,-54.42336968,50.98145772,-159.64260403
-155.89572221,-65.90867255,73.28480978,-160.52082140,89.25091894,65.98753719
-171.72324262,79.07544748,-150.89704067,-104.20677289,65.28460755,64.18501257
-177.83022473,67.46166160,163.35382838,-57.19010129,0.25898832,3.58570719
0.82669191,2.69225014,0.82009888,-0.41673188

>  <Name>
lig.pdb

>  <RI>
3.17932e+07

>  <Rbt.Current_Directory>
/home/itssahil/PROJECTS/Mol_Feturizer/New_Systems/rnas/2mxs

>  <Rbt.Executable>
rbdock ($Id: //depot/dev/client3/rdock/2013.1/src/exe/rbdock.cxx#4 $)

>  <Rbt.Library>
libRbt.so (2013.1, Build901 2013/11/27)

>  <Rbt.Parameter_File>
/export/apps/rDock/src/rDock_2013.1_src/data/scripts/dock_solv.prm

>  <Rbt.Receptor>
prm/blind_docking_100.prm

>  <SCORE>
116.063

>  <SCORE.INTER>
92.723

>  <SCORE.INTER.CONST>
1

>  <SCORE.INTER.POLAR>
-3.48459

>  <SCORE.INTER.ROT>
9

>  <SCORE.INTER.SOLV>
37.7337

>  <SCORE.INTER.VDW>
51.2527

>  <SCORE.INTER.norm>
2.20769

>  <SCORE.INTRA>
4.95442

>  <SCORE.INTRA.DIHEDRAL>
-3.46054

>  <SCORE.INTRA.DIHEDRAL.0>
30.1357

>  <SCORE.INTRA.POLAR>
0.56835

>  <SCORE.INTRA.POLAR.0>
-0.631696

>  <SCORE.INTRA.REPUL>
0

>  <SCORE.INTRA.REPUL.0>
0

>  <SCORE.INTRA.SOLV>
0.399362

>  <SCORE.INTRA.SOLV.lig_0>
-55.904

>  <SCORE.INTRA.VDW>
4.55262

>  <SCORE.INTRA.VDW.0>
-8.21197

>  <SCORE.INTRA.norm>
0.117962

>  <SCORE.RESTR>
18.386

>  <SCORE.RESTR.CAVITY>
18.386

>  <SCORE.RESTR.norm>
0.437762

>  <SCORE.SYSTEM>
0

>  <SCORE.SYSTEM.CONST>
0

>  <SCORE.SYSTEM.DIHEDRAL>
0

>  <SCORE.SYSTEM.SOLV>
0

>  <SCORE.SYSTEM.norm>
0

>  <SCORE.heavy>
42

>  <SCORE.norm>
2.76341

>  <RMSD>
8.187

$$$$
lig.pdb
 OpenBabel11021811453D
libRbt.so/2013.1/901 2013/11/27
 42 45  0  0  0  0  0  0  0  0999 V2000
   -2.2356   -1.1393    3.4449 C   0  0  2  0  0  0  0  0  0  0  0  0
   -2.9821   -2.3565    3.4964 O   0  0  0  0  0  0  0  0  0  0  0  0
   -1.1496   -1.1172    4.5311 C   0  0  2  0  0  0  0  0  0  0  0  0
   -0.2808   -2.3048    4.4350 N   0  0  0  0  0  0  0  0  0  0  0  0
   -1.7719   -1.0015    5.9286 C   0  0  1  0  0  0  0  0  0  0  0  0
   -0.7454   -0.8303    6.8870 O   0  0  0  0  0  0  0  0  0  0  0  0
   -2.7285    0.1989    5.9874 C   0  0  2  0  0  0  0  0  0  0  0  0
   -3.4092    0.1952    7.2276 O   0  0  0  0  0  0  0  0  0  0  0  0
   -3.7490    0.1660    4.8316 C   0  0  2  0  0  0  0  0  0  0  0  0
   -3.0985   -0.0122    3.5738 O   0  0  0  0  0  0  0  0  0  0  0  0
   -4.5193    1.5001    4.8347 C   0  0  0  0  0  0  0  0  0  0  0  0
   -5.4478    1.5991    3.7219 O   0  0  0  0  0  0  0  0  0  0  0  0
   -5.4405   -3.7980    0.2700 C   0  0  2  0  0  0  0  0  0  0  0  0
   -6.6569   -3.7663   -0.5664 N   0  0  0  0  0  0  0  0  0  0  0  0
   -5.8071   -4.0635    1.7323 C   0  0  0  0  0  0  0  0  0  0  0  0
   -4.5746   -3.9580    2.6225 C   0  0  2  0  0  0  0  0  0  0  0  0
   -4.9169   -4.3102    4.0062 N   0  0  0  0  0  0  0  0  0  0  0  0
   -4.0131   -2.5213    2.5119 C   0  0  2  0  0  0  0  0  0  0  0  0
   -3.5067   -2.3168    1.1200 C   0  0  2  0  0  0  0  0  0  0  0  0
   -2.9602   -1.0125    1.0522 O   0  0  0  0  0  0  0  0  0  0  0  0
   -4.6459   -2.4857    0.1326 C   0  0  1  0  0  0  0  0  0  0  0  0
   -4.2058   -2.3854   -1.2088 O   0  0  0  0  0  0  0  0  0  0  0  0
   -1.9495   -0.7668    0.0801 C   0  0  1  0  0  0  0  0  0  0  0  0
   -2.0765    0.6906   -0.3684 C   0  0  2  0  0  0  0  0  0  0  0  0
   -1.7686    0.7848   -1.7465 O   0  0  0  0  0  0  0  0  0  0  0  0
   -1.0489    1.4015    0.5225 C   0  0  2  0  0  0  0  0  0  0  0  0
   -0.6279    2.6569   -0.0117 O   0  0  0  0  0  0  0  0  0  0  0  0
    0.0433    0.3263    0.5784 C   0  0  2  0  0  0  0  0  0  0  0  0
   -0.6669   -0.9000    0.6796 O   0  0  0  0  0  0  0  0  0  0  0  0
    0.9940    0.4513    1.7747 C   0  0  0  0  0  0  0  0  0  0  0  0
    1.3152   -0.8116    2.3179 O   0  0  0  0  0  0  0  0  0  0  0  0
   -0.1601    3.5897    0.9605 C   0  0  2  0  0  0  0  0  0  0  0  0
   -0.3047    5.0402    0.4755 C   0  0  2  0  0  0  0  0  0  0  0  0
   -1.6945    5.3280    0.0834 N   0  0  0  0  0  0  0  0  0  0  0  0
    0.6761    5.3431   -0.6673 C   0  0  1  0  0  0  0  0  0  0  0  0
    0.5588    6.7097   -1.0127 O   0  0  0  0  0  0  0  0  0  0  0  0
    2.1023    5.0404   -0.1771 C   0  0  2  0  0  0  0  0  0  0  0  0
    3.0450    5.2626   -1.2097 O   0  0  0  0  0  0  0  0  0  0  0  0
    2.2105    3.5945    0.3495 C   0  0  1  0  0  0  0  0  0  0  0  0
    1.1932    3.3109    1.3127 O   0  0  0  0  0  0  0  0  0  0  0  0
    2.2524    2.5413   -0.7676 C   0  0  0  0  0  0  0  0  0  0  0  0
    3.5805    2.4824   -1.3994 N   0  0  0  0  0  0  0  0  0  0  0  0
  1  3  1  0  0  0  0
  1  2  1  1  0  0  0
  3  4  1  1  0  0  0
  5  6  1  1  0  0  0
  5  3  1  0  0  0  0
  7  9  1  0  0  0  0
  7  5  1  0  0  0  0
  7  8  1  1  0  0  0
  9 10  1  0  0  0  0
  9 11  1  6  0  0  0
 10  1  1  0  0  0  0
 11 12  1  0  0  0  0
 13 14  1  6  0  0  0
 13 21  1  0  0  0  0
 15 13  1  0  0  0  0
 16 15  1  0  0  0  0
 16 18  1  0  0  0  0
 16 17  1  1  0  0  0
 18  2  1  1  0  0  0
 18 19  1  0  0  0  0
 19 21  1  0  0  0  0
 19 20  1  1  0  0  0
 21 22  1  6  0  0  0
 23 20  1  1  0  0  0
 23 29  1  0  0  0  0
 23 24  1  0  0  0  0
 24 26  1  0  0  0  0
 24 25  1  6  0  0  0
 26 27  1  6  0  0  0
 28 26  1  0  0  0  0
 28 30  1  1  0  0  0
 29 28  1  0  0  0  0
 30 31  1  0  0  0  0
 32 27  1  6  0  0  0
 32 40  1  0  0  0  0
 32 33  1  0  0  0  0
 33 35  1  0  0  0  0
 33 34  1  6  0  0  0
 35 37  1  0  0  0  0
 35 36  1  1  0  0  0
 37 38  1  6  0  0  0
 39 37  1  0  0  0  0
 39 41  1  6  0  0  0
 40 39  1  0  0  0  0
 42 41  1  0  0  0  0
M  END
>  <CHROM.1>
172.95627310,-178.61154584,76.27417827,62.23226622,32.67800581,-171.24256203
176.21884171,28.63064287,-161.19934295,154.14470927,148.33332581,168.32948490
-176.42685134,154.57704851,-155.13412623,140.25603157,61.86254058,57.83509446
61.82690227,65.85092761,77.15541347,64.37029216,-1.67942487,0.40810126,1.71595242
-2.71515781,-0.86004309,-1.50335826

>  <Name>
lig.pdb

>  <RI>
0

>  <Rbt.Current_Directory>
/home/itssahil/PROJECTS/Mol_Feturizer/New_Systems/rnas/2mxs

>  <Rbt.Executable>
rbdock ($Id: //depot/dev/client3/rdock/2013.1/src/exe/rbdock.cxx#4 $)

>  <Rbt.Library>
libRbt.so (2013.1, Build901 2013/11/27)

>  <Rbt.Parameter_File>
/export/apps/rDock/src/rDock_2013.1_src/data/scripts/dock_solv.prm

>  <Rbt.Receptor>
prm/pocket_docking_7.prm

>  <SCORE>
-41.8732

>  <SCORE.INTER>
-40.5333

>  <SCORE.INTER.CONST>
1

>  <SCORE.INTER.POLAR>
-5.33606

>  <SCORE.INTER.ROT>
9

>  <SCORE.INTER.SOLV>
17.7347

>  <SCORE.INTER.VDW>
-24.7469

>  <SCORE.INTER.norm>
-0.965079

>  <SCORE.INTRA>
-1.33994

>  <SCORE.INTRA.DIHEDRAL>
-4.45773

>  <SCORE.INTRA.DIHEDRAL.0>
30.1357

>  <SCORE.INTRA.POLAR>
-1.02762

>  <SCORE.INTRA.POLAR.0>
-0.631696

>  <SCORE.INTRA.REPUL>
0

>  <SCORE.INTRA.REPUL.0>
0

>  <SCORE.INTRA.SOLV>
-0.149929

>  <SCORE.INTRA.SOLV.lig_0>
-55.904

>  <SCORE.INTRA.VDW>
4.4578

>  <SCORE.INTRA.VDW.0>
-8.21197

>  <SCORE.INTRA.norm>
-0.0319033

>  <SCORE.RESTR>
0

>  <SCORE.RESTR.CAVITY>
0

>  <SCORE.RESTR.norm>
0

>  <SCORE.SYSTEM>
0

>  <SCORE.SYSTEM.CONST>
0

>  <SCORE.SYSTEM.DIHEDRAL>
0

>  <SCORE.SYSTEM.SOLV>
0

>  <SCORE.SYSTEM.norm>
0

>  <SCORE.heavy>
42

>  <SCORE.norm>
-0.996982

>  <RMSD>
8.192

$$$$
lig.pdb
 OpenBabel11021811453D
libRbt.so/2013.1/901 2013/11/27
 42 45  0  0  0  0  0  0  0  0999 V2000
   -1.4717   -1.0363    4.0943 C   0  0  2  0  0  0  0  0  0  0  0  0
   -2.3697   -2.1466    4.0475 O   0  0  0  0  0  0  0  0  0  0  0  0
   -0.5344   -1.1413    5.3068 C   0  0  2  0  0  0  0  0  0  0  0  0
    0.1790   -2.4318    5.3139 N   0  0  0  0  0  0  0  0  0  0  0  0
   -1.3043   -0.9302    6.6169 C   0  0  1  0  0  0  0  0  0  0  0  0
   -0.3905   -0.8812    7.6959 O   0  0  0  0  0  0  0  0  0  0  0  0
   -2.0979    0.3839    6.5619 C   0  0  2  0  0  0  0  0  0  0  0  0
   -2.9212    0.4822    7.7082 O   0  0  0  0  0  0  0  0  0  0  0  0
   -2.9636    0.4690    5.2885 C   0  0  2  0  0  0  0  0  0  0  0  0
   -2.1912    0.1940    4.1202 O   0  0  0  0  0  0  0  0  0  0  0  0
   -3.5497    1.8910    5.2019 C   0  0  0  0  0  0  0  0  0  0  0  0
   -4.4916    2.1615    6.2743 O   0  0  0  0  0  0  0  0  0  0  0  0
   -5.3902   -3.3117    1.2103 C   0  0  2  0  0  0  0  0  0  0  0  0
   -6.2428   -3.0692    0.0294 N   0  0  0  0  0  0  0  0  0  0  0  0
   -5.6740   -2.2690    2.2944 C   0  0  0  0  0  0  0  0  0  0  0  0
   -4.7017   -2.4257    3.4576 C   0  0  2  0  0  0  0  0  0  0  0  0
   -5.0434   -1.4872    4.5339 N   0  0  0  0  0  0  0  0  0  0  0  0
   -3.2659   -2.2029    2.9282 C   0  0  2  0  0  0  0  0  0  0  0  0
   -2.9302   -3.3156    1.9876 C   0  0  2  0  0  0  0  0  0  0  0  0
   -1.5994   -3.1155    1.5478 O   0  0  0  0  0  0  0  0  0  0  0  0
   -3.8999   -3.3078    0.8211 C   0  0  1  0  0  0  0  0  0  0  0  0
   -3.6805   -4.3936   -0.0598 O   0  0  0  0  0  0  0  0  0  0  0  0
   -1.4060   -2.5538    0.2540 C   0  0  1  0  0  0  0  0  0  0  0  0
   -1.9073   -1.1086    0.2921 C   0  0  2  0  0  0  0  0  0  0  0  0
   -2.5025   -0.7867   -0.9509 O   0  0  0  0  0  0  0  0  0  0  0  0
   -0.6190   -0.3187    0.5591 C   0  0  2  0  0  0  0  0  0  0  0  0
   -0.7194    1.0515    0.1705 O   0  0  0  0  0  0  0  0  0  0  0  0
    0.3767   -1.1494   -0.2598 C   0  0  2  0  0  0  0  0  0  0  0  0
   -0.0158   -2.4970   -0.0398 O   0  0  0  0  0  0  0  0  0  0  0  0
    1.8404   -0.9816    0.1641 C   0  0  0  0  0  0  0  0  0  0  0  0
    2.0153   -1.2360    1.5418 O   0  0  0  0  0  0  0  0  0  0  0  0
   -0.6071    1.9837    1.2440 C   0  0  2  0  0  0  0  0  0  0  0  0
   -1.3834    3.2784    0.9592 C   0  0  2  0  0  0  0  0  0  0  0  0
   -2.7930    2.9891    0.6471 N   0  0  0  0  0  0  0  0  0  0  0  0
   -0.7149    4.0907   -0.1602 C   0  0  1  0  0  0  0  0  0  0  0  0
   -1.4202    5.3065   -0.3187 O   0  0  0  0  0  0  0  0  0  0  0  0
    0.7418    4.3714    0.2460 C   0  0  2  0  0  0  0  0  0  0  0  0
    1.4184    5.0831   -0.7739 O   0  0  0  0  0  0  0  0  0  0  0  0
    1.4866    3.0608    0.5737 C   0  0  1  0  0  0  0  0  0  0  0  0
    0.7625    2.2698    1.5188 O   0  0  0  0  0  0  0  0  0  0  0  0
    1.8741    2.2527   -0.6735 C   0  0  0  0  0  0  0  0  0  0  0  0
    3.2156    1.6632   -0.5349 N   0  0  0  0  0  0  0  0  0  0  0  0
  1  3  1  0  0  0  0
  1  2  1  1  0  0  0
  3  4  1  1  0  0  0
  5  6  1  1  0  0  0
  5  3  1  0  0  0  0
  7  9  1  0  0  0  0
  7  5  1  0  0  0  0
  7  8  1  1  0  0  0
  9 10  1  0  0  0  0
  9 11  1  6  0  0  0
 10  1  1  0  0  0  0
 11 12  1  0  0  0  0
 13 14  1  6  0  0  0
 13 21  1  0  0  0  0
 15 13  1  0  0  0  0
 16 15  1  0  0  0  0
 16 18  1  0  0  0  0
 16 17  1  1  0  0  0
 18  2  1  1  0  0  0
 18 19  1  0  0  0  0
 19 21  1  0  0  0  0
 19 20  1  6  0  0  0
 21 22  1  6  0  0  0
 23 20  1  1  0  0  0
 23 29  1  0  0  0  0
 23 24  1  0  0  0  0
 24 26  1  0  0  0  0
 24 25  1  6  0  0  0
 26 27  1  6  0  0  0
 28 26  1  0  0  0  0
 28 30  1  1  0  0  0
 29 28  1  0  0  0  0
 30 31  1  0  0  0  0
 32 27  1  6  0  0  0
 32 40  1  0  0  0  0
 32 33  1  0  0  0  0
 33 35  1  0  0  0  0
 33 34  1  6  0  0  0
 35 37  1  0  0  0  0
 35 36  1  1  0  0  0
 37 38  1  6  0  0  0
 39 37  1  0  0  0  0
 39 41  1  6  0  0  0
 40 39  1  0  0  0  0
 42 41  1  0  0  0  0
M  END
>  <CHROM.1>
-129.72461845,-177.42321565,44.27284052,-80.11858449,21.77089591,-179.27864005
-66.39363771,179.65440781,60.73455450,-101.49903168,67.34957461,-54.42604946
-179.64029866,116.35335280,-151.25898858,54.20996857,-174.51979433,-99.53443648
-75.99009935,-179.15649008,140.09993320,-64.77249289,-1.58723225,-0.10605103
2.18627495,-2.88970769,-0.95364291,-1.99953560

>  <Name>
lig.pdb

>  <RI>
0

>  <Rbt.Current_Directory>
/home/itssahil/PROJECTS/Mol_Feturizer/New_Systems/rnas/2mxs

>  <Rbt.Executable>
rbdock ($Id: //depot/dev/client3/rdock/2013.1/src/exe/rbdock.cxx#4 $)

>  <Rbt.Library>
libRbt.so (2013.1, Build901 2013/11/27)

>  <Rbt.Parameter_File>
/export/apps/rDock/src/rDock_2013.1_src/data/scripts/dock_solv.prm

>  <Rbt.Receptor>
prm/pocket_docking_7.prm

>  <SCORE>
-37.1528

>  <SCORE.INTER>
-48.0111

>  <SCORE.INTER.CONST>
1

>  <SCORE.INTER.POLAR>
-6.84816

>  <SCORE.INTER.ROT>
9

>  <SCORE.INTER.SOLV>
20.3345

>  <SCORE.INTER.VDW>
-25.5583

>  <SCORE.INTER.norm>
-1.14312

>  <SCORE.INTRA>
10.8583

>  <SCORE.INTRA.DIHEDRAL>
9.33051

>  <SCORE.INTRA.DIHEDRAL.0>
30.1357

>  <SCORE.INTRA.POLAR>
0.622353

>  <SCORE.INTRA.POLAR.0>
-0.631696

>  <SCORE.INTRA.REPUL>
0.0151706

>  <SCORE.INTRA.REPUL.0>
0

>  <SCORE.INTRA.SOLV>
0.82532

>  <SCORE.INTRA.SOLV.lig_0>
-55.904

>  <SCORE.INTRA.VDW>
3.58851

>  <SCORE.INTRA.VDW.0>
-8.21197

>  <SCORE.INTRA.norm>
0.25853

>  <SCORE.RESTR>
0

>  <SCORE.RESTR.CAVITY>
0

>  <SCORE.RESTR.norm>
0

>  <SCORE.SYSTEM>
0

>  <SCORE.SYSTEM.CONST>
0

>  <SCORE.SYSTEM.DIHEDRAL>
0

>  <SCORE.SYSTEM.SOLV>
0

>  <SCORE.SYSTEM.norm>
0

>  <SCORE.heavy>
42

>  <SCORE.norm>
-0.88459

>  <RMSD>
8.202

$$$$
lig.pdb
 OpenBabel11021811453D
libRbt.so/2013.1/901 2013/11/27
 42 45  0  0  0  0  0  0  0  0999 V2000
   -1.5042    4.6016    2.0828 C   0  0  2  0  0  0  0  0  0  0  0  0
   -1.7494    5.7704    1.2983 O   0  0  0  0  0  0  0  0  0  0  0  0
   -2.7962    3.7948    2.2812 C   0  0  2  0  0  0  0  0  0  0  0  0
   -3.4224    3.4717    0.9859 N   0  0  0  0  0  0  0  0  0  0  0  0
   -3.7759    4.5416    3.1956 C   0  0  1  0  0  0  0  0  0  0  0  0
   -4.8830    3.7074    3.4786 O   0  0  0  0  0  0  0  0  0  0  0  0
   -3.0841    4.9326    4.5102 C   0  0  2  0  0  0  0  0  0  0  0  0
   -3.9507    5.7536    5.2695 O   0  0  0  0  0  0  0  0  0  0  0  0
   -1.7562    5.6731    4.2520 C   0  0  2  0  0  0  0  0  0  0  0  0
   -0.9304    4.9492    3.3405 O   0  0  0  0  0  0  0  0  0  0  0  0
   -1.0274    5.8334    5.5997 C   0  0  0  0  0  0  0  0  0  0  0  0
   -0.1790    7.0123    5.6269 O   0  0  0  0  0  0  0  0  0  0  0  0
    0.7901    8.0231   -1.3487 C   0  0  2  0  0  0  0  0  0  0  0  0
    2.1101    8.4947   -1.8130 N   0  0  0  0  0  0  0  0  0  0  0  0
    0.5412    8.4734    0.0930 C   0  0  0  0  0  0  0  0  0  0  0  0
   -0.7541    7.8734    0.6268 C   0  0  2  0  0  0  0  0  0  0  0  0
   -1.0342    8.3883    1.9730 N   0  0  0  0  0  0  0  0  0  0  0  0
   -0.6220    6.3327    0.6113 C   0  0  2  0  0  0  0  0  0  0  0  0
   -0.5399    5.8789   -0.8110 C   0  0  2  0  0  0  0  0  0  0  0  0
   -0.4618    4.4652   -0.8040 O   0  0  0  0  0  0  0  0  0  0  0  0
    0.6798    6.4918   -1.4726 C   0  0  1  0  0  0  0  0  0  0  0  0
    0.7611    6.1625   -2.8466 O   0  0  0  0  0  0  0  0  0  0  0  0
    0.5181    3.8512   -1.6343 C   0  0  1  0  0  0  0  0  0  0  0  0
    1.3957    2.9667   -0.7462 C   0  0  2  0  0  0  0  0  0  0  0  0
    2.7294    3.0068   -1.2177 O   0  0  0  0  0  0  0  0  0  0  0  0
    0.7462    1.5860   -0.9098 C   0  0  2  0  0  0  0  0  0  0  0  0
    1.6322    0.5153   -0.5817 O   0  0  0  0  0  0  0  0  0  0  0  0
    0.3402    1.6566   -2.3870 C   0  0  2  0  0  0  0  0  0  0  0  0
   -0.1191    2.9887   -2.5683 O   0  0  0  0  0  0  0  0  0  0  0  0
   -0.7785    0.6860   -2.7831 C   0  0  0  0  0  0  0  0  0  0  0  0
   -0.2829   -0.6180   -3.0002 O   0  0  0  0  0  0  0  0  0  0  0  0
    2.4778    0.7658    0.5392 C   0  0  2  0  0  0  0  0  0  0  0  0
    3.9430    0.9545    0.1177 C   0  0  2  0  0  0  0  0  0  0  0  0
    4.0670    2.0171   -0.8940 N   0  0  0  0  0  0  0  0  0  0  0  0
    4.5522   -0.3663   -0.3764 C   0  0  1  0  0  0  0  0  0  0  0  0
    5.9197   -0.1518   -0.6673 O   0  0  0  0  0  0  0  0  0  0  0  0
    4.4051   -1.4165    0.7377 C   0  0  2  0  0  0  0  0  0  0  0  0
    4.9139   -2.6688    0.3165 O   0  0  0  0  0  0  0  0  0  0  0  0
    2.9329   -1.5533    1.1776 C   0  0  1  0  0  0  0  0  0  0  0  0
    2.3625   -0.2825    1.4987 O   0  0  0  0  0  0  0  0  0  0  0  0
    2.0684   -2.3336    0.1763 C   0  0  0  0  0  0  0  0  0  0  0  0
    0.6712   -1.8713    0.2000 N   0  0  0  0  0  0  0  0  0  0  0  0
  1  3  1  0  0  0  0
  1  2  1  1  0  0  0
  3  4  1  6  0  0  0
  5  6  1  1  0  0  0
  5  3  1  0  0  0  0
  7  9  1  0  0  0  0
  7  5  1  0  0  0  0
  7  8  1  6  0  0  0
  9 10  1  0  0  0  0
  9 11  1  1  0  0  0
 10  1  1  0  0  0  0
 11 12  1  0  0  0  0
 13 14  1  1  0  0  0
 13 21  1  0  0  0  0
 15 13  1  0  0  0  0
 16 15  1  0  0  0  0
 16 18  1  0  0  0  0
 16 17  1  1  0  0  0
 18  2  1  6  0  0  0
 18 19  1  0  0  0  0
 19 21  1  0  0  0  0
 19 20  1  1  0  0  0
 21 22  1  6  0  0  0
 23 20  1  1  0  0  0
 23 29  1  0  0  0  0
 23 24  1  0  0  0  0
 24 26  1  0  0  0  0
 24 25  1  6  0  0  0
 26 27  1  6  0  0  0
 28 26  1  0  0  0  0
 28 30  1  1  0  0  0
 29 28  1  0  0  0  0
 30 31  1  0  0  0  0
 32 27  1  6  0  0  0
 32 40  1  0  0  0  0
 32 33  1  0  0  0  0
 33 35  1  0  0  0  0
 33 34  1  6  0  0  0
 35 37  1  0  0  0  0
 35 36  1  1  0  0  0
 37 38  1  6  0  0  0
 39 37  1  0  0  0  0
 39 41  1  6  0  0  0
 40 39  1  0  0  0  0
 42 41  1  0  0  0  0
M  END
>  <CHROM.1>
-143.52482657,-156.98871494,90.88498619,-75.60913939,-61.97330742,-169.54550486
-151.30741171,65.95147298,-48.81408176,-133.71802467,123.85087847,63.51806684
34.02052550,38.67223745,-109.51171652,-80.52407934,-154.82307131,-174.06512281
-65.93410191,77.88262898,-149.71126047,-57.80260740,0.40848990,3.33424582
0.54264570,2.54555117,0.85529891,-0.41719720

>  <Name>
lig.pdb

>  <RI>
3.17932e+07

>  <Rbt.Current_Directory>
/home/itssahil/PROJECTS/Mol_Feturizer/New_Systems/rnas/2mxs

>  <Rbt.Executable>
rbdock ($Id: //depot/dev/client3/rdock/2013.1/src/exe/rbdock.cxx#4 $)

>  <Rbt.Library>
libRbt.so (2013.1, Build901 2013/11/27)

>  <Rbt.Parameter_File>
/export/apps/rDock/src/rDock_2013.1_src/data/scripts/dock_solv.prm

>  <Rbt.Receptor>
prm/blind_docking_100.prm

>  <SCORE>
146.909

>  <SCORE.INTER>
98.7121

>  <SCORE.INTER.CONST>
1

>  <SCORE.INTER.POLAR>
-3.40513

>  <SCORE.INTER.ROT>
9

>  <SCORE.INTER.SOLV>
36.9299

>  <SCORE.INTER.VDW>
55.2486

>  <SCORE.INTER.norm>
2.35029

>  <SCORE.INTRA>
32.7006

>  <SCORE.INTRA.DIHEDRAL>
17.1881

>  <SCORE.INTRA.DIHEDRAL.0>
30.1357

>  <SCORE.INTRA.POLAR>
-0.336936

>  <SCORE.INTRA.POLAR.0>
-0.631696

>  <SCORE.INTRA.REPUL>
0

>  <SCORE.INTRA.REPUL.0>
0

>  <SCORE.INTRA.SOLV>
1.37763

>  <SCORE.INTRA.SOLV.lig_0>
-55.904

>  <SCORE.INTRA.VDW>
24.5633

>  <SCORE.INTRA.VDW.0>
-8.21197

>  <SCORE.INTRA.norm>
0.778586

>  <SCORE.RESTR>
15.4966

>  <SCORE.RESTR.CAVITY>
15.4966

>  <SCORE.RESTR.norm>
0.368966

>  <SCORE.SYSTEM>
0

>  <SCORE.SYSTEM.CONST>
0

>  <SCORE.SYSTEM.DIHEDRAL>
0

>  <SCORE.SYSTEM.SOLV>
0

>  <SCORE.SYSTEM.norm>
0

>  <SCORE.heavy>
42

>  <SCORE.norm>
3.49784

>  <RMSD>
8.219

$$$$
lig.pdb
 OpenBabel11021811453D
libRbt.so/2013.1/901 2013/11/27
 42 45  0  0  0  0  0  0  0  0999 V2000
    0.8428    5.8325    4.8060 C   0  0  2  0  0  0  0  0  0  0  0  0
    0.3746    4.7761    3.9656 O   0  0  0  0  0  0  0  0  0  0  0  0
    0.5436    5.5307    6.2822 C   0  0  2  0  0  0  0  0  0  0  0  0
    1.0961    4.2219    6.6771 N   0  0  0  0  0  0  0  0  0  0  0  0
   -0.9629    5.6002    6.5633 C   0  0  1  0  0  0  0  0  0  0  0  0
   -1.1877    5.4694    7.9539 O   0  0  0  0  0  0  0  0  0  0  0  0
   -1.5332    6.9420    6.0795 C   0  0  2  0  0  0  0  0  0  0  0  0
   -2.9425    6.9235    6.2019 O   0  0  0  0  0  0  0  0  0  0  0  0
   -1.1399    7.2290    4.6162 C   0  0  2  0  0  0  0  0  0  0  0  0
    0.2657    7.0776    4.4205 O   0  0  0  0  0  0  0  0  0  0  0  0
   -1.5591    8.6733    4.2821 C   0  0  0  0  0  0  0  0  0  0  0  0
   -1.2840    9.0172    2.8978 O   0  0  0  0  0  0  0  0  0  0  0  0
   -3.3410    4.1939    1.8711 C   0  0  2  0  0  0  0  0  0  0  0  0
   -4.7746    4.4654    1.6444 N   0  0  0  0  0  0  0  0  0  0  0  0
   -3.1220    3.6324    3.2782 C   0  0  0  0  0  0  0  0  0  0  0  0
   -1.6338    3.4820    3.5707 C   0  0  2  0  0  0  0  0  0  0  0  0
   -1.4360    2.8521    4.8821 N   0  0  0  0  0  0  0  0  0  0  0  0
   -0.9768    4.8798    3.4939 C   0  0  2  0  0  0  0  0  0  0  0  0
   -1.0490    5.3598    2.0797 C   0  0  2  0  0  0  0  0  0  0  0  0
   -0.4061    6.6200    2.0234 O   0  0  0  0  0  0  0  0  0  0  0  0
   -2.5001    5.4653    1.6502 C   0  0  1  0  0  0  0  0  0  0  0  0
   -2.6262    5.8358    0.2901 O   0  0  0  0  0  0  0  0  0  0  0  0
    0.0962    7.0524    0.7635 C   0  0  1  0  0  0  0  0  0  0  0  0
    1.5351    6.5478    0.6356 C   0  0  2  0  0  0  0  0  0  0  0  0
    2.3095    7.5112   -0.0536 O   0  0  0  0  0  0  0  0  0  0  0  0
    1.3595    5.2455   -0.1569 C   0  0  2  0  0  0  0  0  0  0  0  0
    2.5573    4.8329   -0.8157 O   0  0  0  0  0  0  0  0  0  0  0  0
    0.2176    5.6567   -1.0944 C   0  0  2  0  0  0  0  0  0  0  0  0
   -0.6466    6.4400   -0.2832 O   0  0  0  0  0  0  0  0  0  0  0  0
   -0.5764    4.4822   -1.6781 C   0  0  0  0  0  0  0  0  0  0  0  0
   -0.2597    4.2644   -3.0365 O   0  0  0  0  0  0  0  0  0  0  0  0
    2.3607    3.9035   -1.8795 C   0  0  2  0  0  0  0  0  0  0  0  0
    2.5568    2.4529   -1.4136 C   0  0  2  0  0  0  0  0  0  0  0  0
    1.6853    2.1459   -0.2672 N   0  0  0  0  0  0  0  0  0  0  0  0
    4.0315    2.1689   -1.0907 C   0  0  1  0  0  0  0  0  0  0  0  0
    4.1645    0.8020   -0.7522 O   0  0  0  0  0  0  0  0  0  0  0  0
    4.8730    2.4911   -2.3373 C   0  0  2  0  0  0  0  0  0  0  0  0
    6.2500    2.2868   -2.0791 O   0  0  0  0  0  0  0  0  0  0  0  0
    4.6228    3.9364   -2.8146 C   0  0  1  0  0  0  0  0  0  0  0  0
    3.2270    4.2012   -2.9722 O   0  0  0  0  0  0  0  0  0  0  0  0
    5.3123    4.9943   -1.9404 C   0  0  0  0  0  0  0  0  0  0  0  0
    6.7688    4.9987   -2.1525 N   0  0  0  0  0  0  0  0  0  0  0  0
  1  3  1  0  0  0  0
  1  2  1  6  0  0  0
  3  4  1  6  0  0  0
  5  6  1  1  0  0  0
  5  3  1  0  0  0  0
  7  9  1  0  0  0  0
  7  5  1  0  0  0  0
  7  8  1  6  0  0  0
  9 10  1  0  0  0  0
  9 11  1  1  0  0  0
 10  1  1  0  0  0  0
 11 12  1  0  0  0  0
 13 14  1  1  0  0  0
 13 21  1  0  0  0  0
 15 13  1  0  0  0  0
 16 15  1  0  0  0  0
 16 18  1  0  0  0  0
 16 17  1  1  0  0  0
 18  2  1  6  0  0  0
 18 19  1  0  0  0  0
 19 21  1  0  0  0  0
 19 20  1  1  0  0  0
 21 22  1  6  0  0  0
 23 20  1  1  0  0  0
 23 29  1  0  0  0  0
 23 24  1  0  0  0  0
 24 26  1  0  0  0  0
 24 25  1  6  0  0  0
 26 27  1  6  0  0  0
 28 26  1  0  0  0  0
 28 30  1  1  0  0  0
 29 28  1  0  0  0  0
 30 31  1  0  0  0  0
 32 27  1  1  0  0  0
 32 40  1  0  0  0  0
 32 33  1  0  0  0  0
 33 35  1  0  0  0  0
 33 34  1  1  0  0  0
 35 37  1  0  0  0  0
 35 36  1  6  0  0  0
 37 38  1  1  0  0  0
 39 37  1  0  0  0  0
 39 41  1  1  0  0  0
 40 39  1  0  0  0  0
 42 41  1  0  0  0  0
M  END
>  <CHROM.1>
-138.59342449,89.10330897,152.08464523,-170.65002516,-60.48450634,-59.86165122
-177.32798031,68.79048306,-69.00239794,157.08381862,-89.62677568,-38.77678796
-52.59860156,-161.03082976,-95.79749976,-105.59998249,-16.92535234,-75.35450822
-66.52305146,137.83044539,72.47411804,67.26805277,0.55945803,5.00077037,1.52351668
-2.26829839,0.33083345,-1.62832410

>  <Name>
lig.pdb

>  <RI>
3.31443e+07

>  <Rbt.Current_Directory>
/home/itssahil/PROJECTS/Mol_Feturizer/New_Systems/rnas/2mxs

>  <Rbt.Executable>
rbdock ($Id: //depot/dev/client3/rdock/2013.1/src/exe/rbdock.cxx#4 $)

>  <Rbt.Library>
libRbt.so (2013.1, Build901 2013/11/27)

>  <Rbt.Parameter_File>
/export/apps/rDock/src/rDock_2013.1_src/data/scripts/dock_solv.prm

>  <Rbt.Receptor>
prm/blind_docking_40.prm

>  <SCORE>
137.976

>  <SCORE.INTER>
95.5491

>  <SCORE.INTER.CONST>
1

>  <SCORE.INTER.POLAR>
-3.30271

>  <SCORE.INTER.ROT>
9

>  <SCORE.INTER.SOLV>
31.0831

>  <SCORE.INTER.VDW>
54.7474

>  <SCORE.INTER.norm>
2.27498

>  <SCORE.INTRA>
21.0463

>  <SCORE.INTRA.DIHEDRAL>
13.7859

>  <SCORE.INTRA.DIHEDRAL.0>
30.1357

>  <SCORE.INTRA.POLAR>
0.0286401

>  <SCORE.INTRA.POLAR.0>
-0.631696

>  <SCORE.INTRA.REPUL>
0

>  <SCORE.INTRA.REPUL.0>
0

>  <SCORE.INTRA.SOLV>
2.92469

>  <SCORE.INTRA.SOLV.lig_0>
-55.904

>  <SCORE.INTRA.VDW>
12.5937

>  <SCORE.INTRA.VDW.0>
-8.21197

>  <SCORE.INTRA.norm>
0.501103

>  <SCORE.RESTR>
21.3803

>  <SCORE.RESTR.CAVITY>
21.3803

>  <SCORE.RESTR.norm>
0.509056

>  <SCORE.SYSTEM>
0

>  <SCORE.SYSTEM.CONST>
0

>  <SCORE.SYSTEM.DIHEDRAL>
0

>  <SCORE.SYSTEM.SOLV>
0

>  <SCORE.SYSTEM.norm>
0

>  <SCORE.heavy>
42

>  <SCORE.norm>
3.28514

>  <RMSD>
8.236

$$$$
lig.pdb
 OpenBabel11021811453D
libRbt.so/2013.1/901 2013/11/27
 42 45  0  0  0  0  0  0  0  0999 V2000
   -4.2096   -1.4562    6.2336 C   0  0  2  0  0  0  0  0  0  0  0  0
   -4.7819   -0.9076    5.0450 O   0  0  0  0  0  0  0  0  0  0  0  0
   -4.3981   -0.5019    7.4226 C   0  0  2  0  0  0  0  0  0  0  0  0
   -5.8199   -0.1539    7.6014 N   0  0  0  0  0  0  0  0  0  0  0  0
   -3.5391    0.7584    7.2577 C   0  0  1  0  0  0  0  0  0  0  0  0
   -3.6193    1.5388    8.4350 O   0  0  0  0  0  0  0  0  0  0  0  0
   -2.0741    0.3740    7.0008 C   0  0  2  0  0  0  0  0  0  0  0  0
   -1.3309    1.5384    6.6953 O   0  0  0  0  0  0  0  0  0  0  0  0
   -1.9500   -0.6422    5.8474 C   0  0  2  0  0  0  0  0  0  0  0  0
   -2.8285   -1.7506    6.0394 O   0  0  0  0  0  0  0  0  0  0  0  0
   -0.4917   -1.1364    5.7994 C   0  0  0  0  0  0  0  0  0  0  0  0
   -0.0034   -1.5304    7.1096 O   0  0  0  0  0  0  0  0  0  0  0  0
   -4.2202   -4.1628    2.2847 C   0  0  2  0  0  0  0  0  0  0  0  0
   -4.4241   -4.8267    0.9817 N   0  0  0  0  0  0  0  0  0  0  0  0
   -5.5645   -3.9279    2.9782 C   0  0  0  0  0  0  0  0  0  0  0  0
   -5.3754   -3.1187    4.2558 C   0  0  2  0  0  0  0  0  0  0  0  0
   -6.6545   -2.9828    4.9638 N   0  0  0  0  0  0  0  0  0  0  0  0
   -4.7721   -1.7453    3.8799 C   0  0  2  0  0  0  0  0  0  0  0  0
   -3.3913   -1.9640    3.3497 C   0  0  2  0  0  0  0  0  0  0  0  0
   -2.8427   -0.6933    3.0514 O   0  0  0  0  0  0  0  0  0  0  0  0
   -3.4527   -2.8387    2.1117 C   0  0  1  0  0  0  0  0  0  0  0  0
   -2.1640   -3.1479    1.6150 O   0  0  0  0  0  0  0  0  0  0  0  0
   -3.3631    0.0060    1.9258 C   0  0  1  0  0  0  0  0  0  0  0  0
   -2.7825    1.4216    1.9455 C   0  0  2  0  0  0  0  0  0  0  0  0
   -3.7571    2.3338    1.4757 O   0  0  0  0  0  0  0  0  0  0  0  0
   -1.5776    1.2978    1.0031 C   0  0  2  0  0  0  0  0  0  0  0  0
   -1.1556    2.5561    0.4764 O   0  0  0  0  0  0  0  0  0  0  0  0
   -2.1506    0.3246   -0.0345 C   0  0  2  0  0  0  0  0  0  0  0  0
   -2.9045   -0.6076    0.7277 O   0  0  0  0  0  0  0  0  0  0  0  0
   -1.0918   -0.4341   -0.8432 C   0  0  0  0  0  0  0  0  0  0  0  0
   -0.3888   -1.3589   -0.0410 O   0  0  0  0  0  0  0  0  0  0  0  0
   -0.6722    3.4770    1.4523 C   0  0  2  0  0  0  0  0  0  0  0  0
   -0.8332    4.9337    0.9915 C   0  0  2  0  0  0  0  0  0  0  0  0
   -2.2320    5.2204    0.6320 N   0  0  0  0  0  0  0  0  0  0  0  0
    0.1227    5.2577   -0.1665 C   0  0  1  0  0  0  0  0  0  0  0  0
   -0.0078    6.6286   -0.4896 O   0  0  0  0  0  0  0  0  0  0  0  0
    1.5599    4.9547    0.2900 C   0  0  2  0  0  0  0  0  0  0  0  0
    2.4804    5.1963   -0.7583 O   0  0  0  0  0  0  0  0  0  0  0  0
    1.6854    3.5019    0.7932 C   0  0  1  0  0  0  0  0  0  0  0  0
    0.6892    3.1995    1.7728 O   0  0  0  0  0  0  0  0  0  0  0  0
    1.7092    2.4651   -0.3397 C   0  0  0  0  0  0  0  0  0  0  0  0
    3.0014    2.4704   -1.0443 N   0  0  0  0  0  0  0  0  0  0  0  0
  1  3  1  0  0  0  0
  1  2  1  6  0  0  0
  3  4  1  6  0  0  0
  5  6  1  1  0  0  0
  5  3  1  0  0  0  0
  7  9  1  0  0  0  0
  7  5  1  0  0  0  0
  7  8  1  6  0  0  0
  9 10  1  0  0  0  0
  9 11  1  1  0  0  0
 10  1  1  0  0  0  0
 11 12  1  0  0  0  0
 13 14  1  6  0  0  0
 13 21  1  0  0  0  0
 15 13  1  0  0  0  0
 16 15  1  0  0  0  0
 16 18  1  0  0  0  0
 16 17  1  6  0  0  0
 18  2  1  1  0  0  0
 18 19  1  0  0  0  0
 19 21  1  0  0  0  0
 19 20  1  6  0  0  0
 21 22  1  1  0  0  0
 23 20  1  1  0  0  0
 23 29  1  0  0  0  0
 23 24  1  0  0  0  0
 24 26  1  0  0  0  0
 24 25  1  6  0  0  0
 26 27  1  6  0  0  0
 28 26  1  0  0  0  0
 28 30  1  1  0  0  0
 29 28  1  0  0  0  0
 30 31  1  0  0  0  0
 32 27  1  6  0  0  0
 32 40  1  0  0  0  0
 32 33  1  0  0  0  0
 33 35  1  0  0  0  0
 33 34  1  6  0  0  0
 35 37  1  0  0  0  0
 35 36  1  1  0  0  0
 37 38  1  6  0  0  0
 39 37  1  0  0  0  0
 39 41  1  6  0  0  0
 40 39  1  0  0  0  0
 42 41  1  0  0  0  0
M  END
>  <CHROM.1>
51.29454050,-175.10372944,-170.82078288,-179.11031685,-61.51270462,56.64331582
48.26878758,54.08507222,-82.85610355,-71.38260253,171.02995443,163.42111225
176.92432725,63.97874785,-154.29248099,68.75540707,-73.31145632,178.80788388
-65.72688247,54.36917973,74.21915502,69.68877477,-2.11817132,0.49047080,2.84233078
-2.93084539,-1.00911806,-2.05170283

>  <Name>
lig.pdb

>  <RI>
4.11275e+07

>  <Rbt.Current_Directory>
/home/itssahil/PROJECTS/Mol_Feturizer/New_Systems/rnas/2mxs

>  <Rbt.Executable>
rbdock ($Id: //depot/dev/client3/rdock/2013.1/src/exe/rbdock.cxx#4 $)

>  <Rbt.Library>
libRbt.so (2013.1, Build901 2013/11/27)

>  <Rbt.Parameter_File>
/export/apps/rDock/src/rDock_2013.1_src/data/scripts/dock_solv.prm

>  <Rbt.Receptor>
prm/pocket_docking_8.prm

>  <SCORE>
-42.5484

>  <SCORE.INTER>
-32.7299

>  <SCORE.INTER.CONST>
1

>  <SCORE.INTER.POLAR>
-4.25282

>  <SCORE.INTER.ROT>
9

>  <SCORE.INTER.SOLV>
16.7998

>  <SCORE.INTER.VDW>
-22.8438

>  <SCORE.INTER.norm>
-0.779282

>  <SCORE.INTRA>
-9.81852

>  <SCORE.INTRA.DIHEDRAL>
-19.386

>  <SCORE.INTRA.DIHEDRAL.0>
30.1357

>  <SCORE.INTRA.POLAR>
-1.50876

>  <SCORE.INTRA.POLAR.0>
-0.631696

>  <SCORE.INTRA.REPUL>
0

>  <SCORE.INTRA.REPUL.0>
0

>  <SCORE.INTRA.SOLV>
1.57918

>  <SCORE.INTRA.SOLV.lig_0>
-55.904

>  <SCORE.INTRA.VDW>
4.21471

>  <SCORE.INTRA.VDW.0>
-8.21197

>  <SCORE.INTRA.norm>
-0.233774

>  <SCORE.RESTR>
0

>  <SCORE.RESTR.CAVITY>
0

>  <SCORE.RESTR.norm>
0

>  <SCORE.SYSTEM>
0

>  <SCORE.SYSTEM.CONST>
0

>  <SCORE.SYSTEM.DIHEDRAL>
0

>  <SCORE.SYSTEM.SOLV>
0

>  <SCORE.SYSTEM.norm>
0

>  <SCORE.heavy>
42

>  <SCORE.norm>
-1.01306

>  <RMSD>
8.242

$$$$
lig.pdb
 OpenBabel11021811453D
libRbt.so/2013.1/901 2013/11/27
 42 45  0  0  0  0  0  0  0  0999 V2000
   -1.6159   -1.0404    3.7839 C   0  0  2  0  0  0  0  0  0  0  0  0
   -2.3598   -2.2557    3.6788 O   0  0  0  0  0  0  0  0  0  0  0  0
   -0.7336   -1.0459    5.0414 C   0  0  2  0  0  0  0  0  0  0  0  0
    0.1390   -2.2342    5.0702 N   0  0  0  0  0  0  0  0  0  0  0  0
   -1.5877   -0.9588    6.3128 C   0  0  1  0  0  0  0  0  0  0  0  0
   -0.7421   -0.8123    7.4375 O   0  0  0  0  0  0  0  0  0  0  0  0
   -2.5406    0.2434    6.2325 C   0  0  2  0  0  0  0  0  0  0  0  0
   -3.4250    0.2148    7.3363 O   0  0  0  0  0  0  0  0  0  0  0  0
   -3.3464    0.2395    4.9175 C   0  0  2  0  0  0  0  0  0  0  0  0
   -2.4885    0.0867    3.7871 O   0  0  0  0  0  0  0  0  0  0  0  0
   -4.1060    1.5759    4.8174 C   0  0  0  0  0  0  0  0  0  0  0  0
   -5.0086    1.7782    5.9375 O   0  0  0  0  0  0  0  0  0  0  0  0
   -4.7402   -3.4195    0.2861 C   0  0  2  0  0  0  0  0  0  0  0  0
   -5.9079   -3.2780   -0.6065 N   0  0  0  0  0  0  0  0  0  0  0  0
   -5.1973   -3.7086    1.7181 C   0  0  0  0  0  0  0  0  0  0  0  0
   -4.0073   -3.7162    2.6703 C   0  0  2  0  0  0  0  0  0  0  0  0
   -4.4419   -4.0907    4.0219 N   0  0  0  0  0  0  0  0  0  0  0  0
   -3.3480   -2.3177    2.6401 C   0  0  2  0  0  0  0  0  0  0  0  0
   -2.7592   -2.1012    1.2829 C   0  0  2  0  0  0  0  0  0  0  0  0
   -2.1256   -0.8351    1.2897 O   0  0  0  0  0  0  0  0  0  0  0  0
   -3.8553   -2.1598    0.2358 C   0  0  1  0  0  0  0  0  0  0  0  0
   -3.3421   -2.0445   -1.0780 O   0  0  0  0  0  0  0  0  0  0  0  0
   -1.0649   -0.6194    0.3648 C   0  0  1  0  0  0  0  0  0  0  0  0
   -1.2953    0.7381   -0.3026 C   0  0  2  0  0  0  0  0  0  0  0  0
   -0.8824    0.6711   -1.6546 O   0  0  0  0  0  0  0  0  0  0  0  0
   -0.4214    1.6746    0.5425 C   0  0  2  0  0  0  0  0  0  0  0  0
   -0.0815    2.8811   -0.1412 O   0  0  0  0  0  0  0  0  0  0  0  0
    0.7620    0.7434    0.8333 C   0  0  2  0  0  0  0  0  0  0  0  0
    0.1690   -0.5266    1.0655 O   0  0  0  0  0  0  0  0  0  0  0  0
    1.5909    1.1379    2.0612 C   0  0  0  0  0  0  0  0  0  0  0  0
    2.5664    0.1636    2.3650 O   0  0  0  0  0  0  0  0  0  0  0  0
    0.3979    3.9271    0.7015 C   0  0  2  0  0  0  0  0  0  0  0  0
    0.0026    5.3137    0.1711 C   0  0  2  0  0  0  0  0  0  0  0  0
   -1.4540    5.4075   -0.0223 N   0  0  0  0  0  0  0  0  0  0  0  0
    0.7641    5.6512   -1.1196 C   0  0  1  0  0  0  0  0  0  0  0  0
    0.4262    6.9675   -1.5121 O   0  0  0  0  0  0  0  0  0  0  0  0
    2.2724    5.5535   -0.8340 C   0  0  2  0  0  0  0  0  0  0  0  0
    3.0224    5.8142   -2.0062 O   0  0  0  0  0  0  0  0  0  0  0  0
    2.6372    4.1701   -0.2573 C   0  0  1  0  0  0  0  0  0  0  0  0
    1.8118    3.8350    0.8606 O   0  0  0  0  0  0  0  0  0  0  0  0
    2.6529    3.0551   -1.3135 C   0  0  0  0  0  0  0  0  0  0  0  0
    3.5209    1.9397   -0.9027 N   0  0  0  0  0  0  0  0  0  0  0  0
  1  3  1  0  0  0  0
  1  2  1  1  0  0  0
  3  4  1  1  0  0  0
  5  6  1  1  0  0  0
  5  3  1  0  0  0  0
  7  9  1  0  0  0  0
  7  5  1  0  0  0  0
  7  8  1  1  0  0  0
  9 10  1  0  0  0  0
  9 11  1  6  0  0  0
 10  1  1  0  0  0  0
 11 12  1  0  0  0  0
 13 14  1  6  0  0  0
 13 21  1  0  0  0  0
 15 13  1  0  0  0  0
 16 15  1  0  0  0  0
 16 18  1  0  0  0  0
 16 17  1  1  0  0  0
 18  2  1  1  0  0  0
 18 19  1  0  0  0  0
 19 21  1  0  0  0  0
 19 20  1  1  0  0  0
 21 22  1  6  0  0  0
 23 20  1  1  0  0  0
 23 29  1  0  0  0  0
 23 24  1  0  0  0  0
 24 26  1  0  0  0  0
 24 25  1  6  0  0  0
 26 27  1  6  0  0  0
 28 26  1  0  0  0  0
 28 30  1  1  0  0  0
 29 28  1  0  0  0  0
 30 31  1  0  0  0  0
 32 27  1  6  0  0  0
 32 40  1  0  0  0  0
 32 33  1  0  0  0  0
 33 35  1  0  0  0  0
 33 34  1  6  0  0  0
 35 37  1  0  0  0  0
 35 36  1  1  0  0  0
 37 38  1  6  0  0  0
 39 37  1  0  0  0  0
 39 41  1  6  0  0  0
 40 39  1  0  0  0  0
 42 41  1  0  0  0  0
M  END
>  <CHROM.1>
178.45954359,172.56319176,161.91751581,62.88468464,-50.48482803,-177.14830663
-59.22727522,-164.26829870,85.28484034,154.98600370,133.64663123,165.54410069
59.03273189,163.35573969,-147.51287803,173.25850019,61.01648846,55.56463550
63.87244889,60.36791751,155.67415393,170.34683776,-1.18582229,0.64547332
1.80683232,-2.66242885,-0.91727452,-1.60280056

>  <Name>
lig.pdb

>  <RI>
3.99633e+07

>  <Rbt.Current_Directory>
/home/itssahil/PROJECTS/Mol_Feturizer/New_Systems/rnas/2mxs

>  <Rbt.Executable>
rbdock ($Id: //depot/dev/client3/rdock/2013.1/src/exe/rbdock.cxx#4 $)

>  <Rbt.Library>
libRbt.so (2013.1, Build901 2013/11/27)

>  <Rbt.Parameter_File>
/export/apps/rDock/src/rDock_2013.1_src/data/scripts/dock_solv.prm

>  <Rbt.Receptor>
prm/pocket_docking_5.prm

>  <SCORE>
-40.5138

>  <SCORE.INTER>
-42.4868

>  <SCORE.INTER.CONST>
1

>  <SCORE.INTER.POLAR>
-5.79707

>  <SCORE.INTER.ROT>
9

>  <SCORE.INTER.SOLV>
19.6189

>  <SCORE.INTER.VDW>
-25.1406

>  <SCORE.INTER.norm>
-1.01159

>  <SCORE.INTRA>
1.63263

>  <SCORE.INTRA.DIHEDRAL>
-8.36229

>  <SCORE.INTRA.DIHEDRAL.0>
30.1357

>  <SCORE.INTRA.POLAR>
0.512827

>  <SCORE.INTRA.POLAR.0>
-0.631696

>  <SCORE.INTRA.REPUL>
0.120066

>  <SCORE.INTRA.REPUL.0>
0

>  <SCORE.INTRA.SOLV>
-0.567927

>  <SCORE.INTRA.SOLV.lig_0>
-55.904

>  <SCORE.INTRA.VDW>
3.7538

>  <SCORE.INTRA.VDW.0>
-8.21197

>  <SCORE.INTRA.norm>
0.0388722

>  <SCORE.RESTR>
0.340407

>  <SCORE.RESTR.CAVITY>
0.340407

>  <SCORE.RESTR.norm>
0.00810492

>  <SCORE.SYSTEM>
0

>  <SCORE.SYSTEM.CONST>
0

>  <SCORE.SYSTEM.DIHEDRAL>
0

>  <SCORE.SYSTEM.SOLV>
0

>  <SCORE.SYSTEM.norm>
0

>  <SCORE.heavy>
42

>  <SCORE.norm>
-0.964614

>  <RMSD>
8.246

$$$$
lig.pdb
 OpenBabel11021811453D
libRbt.so/2013.1/901 2013/11/27
 42 45  0  0  0  0  0  0  0  0999 V2000
   -1.7435    5.7097    2.8562 C   0  0  2  0  0  0  0  0  0  0  0  0
   -1.8903    5.9391    1.4536 O   0  0  0  0  0  0  0  0  0  0  0  0
   -0.9386    4.4282    3.1197 C   0  0  2  0  0  0  0  0  0  0  0  0
    0.3617    4.4679    2.4255 N   0  0  0  0  0  0  0  0  0  0  0  0
   -1.7398    3.1832    2.7178 C   0  0  1  0  0  0  0  0  0  0  0  0
   -1.0344    2.0226    3.1139 O   0  0  0  0  0  0  0  0  0  0  0  0
   -3.1188    3.1964    3.3947 C   0  0  2  0  0  0  0  0  0  0  0  0
   -3.8983    2.1288    2.8906 O   0  0  0  0  0  0  0  0  0  0  0  0
   -3.8508    4.5334    3.1606 C   0  0  2  0  0  0  0  0  0  0  0  0
   -3.0172    5.6432    3.4927 O   0  0  0  0  0  0  0  0  0  0  0  0
   -5.1136    4.5488    4.0429 C   0  0  0  0  0  0  0  0  0  0  0  0
   -5.9846    5.6694    3.7332 O   0  0  0  0  0  0  0  0  0  0  0  0
    0.7823    7.9187   -1.2794 C   0  0  2  0  0  0  0  0  0  0  0  0
    2.1281    8.3054   -1.7482 N   0  0  0  0  0  0  0  0  0  0  0  0
    0.5320    8.4655    0.1282 C   0  0  0  0  0  0  0  0  0  0  0  0
   -0.7956    7.9539    0.6747 C   0  0  2  0  0  0  0  0  0  0  0  0
   -1.0731    8.5607    1.9826 N   0  0  0  0  0  0  0  0  0  0  0  0
   -0.7297    6.4109    0.7537 C   0  0  2  0  0  0  0  0  0  0  0  0
   -0.6465    5.8688   -0.6373 C   0  0  2  0  0  0  0  0  0  0  0  0
   -0.6293    4.4561   -0.5443 O   0  0  0  0  0  0  0  0  0  0  0  0
    0.6081    6.3887   -1.3133 C   0  0  1  0  0  0  0  0  0  0  0  0
    0.6952    5.9737   -2.6635 O   0  0  0  0  0  0  0  0  0  0  0  0
    0.0093    3.7306   -1.5896 C   0  0  1  0  0  0  0  0  0  0  0  0
    1.2513    3.0582   -1.0008 C   0  0  2  0  0  0  0  0  0  0  0  0
    2.2843    3.0539   -1.9681 O   0  0  0  0  0  0  0  0  0  0  0  0
    0.7390    1.6502   -0.6687 C   0  0  2  0  0  0  0  0  0  0  0  0
    1.7904    0.6904   -0.5589 O   0  0  0  0  0  0  0  0  0  0  0  0
   -0.2146    1.4291   -1.8493 C   0  0  2  0  0  0  0  0  0  0  0  0
   -0.8461    2.6874   -2.0395 O   0  0  0  0  0  0  0  0  0  0  0  0
   -1.2900    0.3644   -1.6034 C   0  0  0  0  0  0  0  0  0  0  0  0
   -0.8685   -0.9107   -2.0387 O   0  0  0  0  0  0  0  0  0  0  0  0
    2.7253    0.9499    0.4865 C   0  0  2  0  0  0  0  0  0  0  0  0
    4.1667    1.0175   -0.0408 C   0  0  2  0  0  0  0  0  0  0  0  0
    4.2853    2.0090   -1.1228 N   0  0  0  0  0  0  0  0  0  0  0  0
    4.6581   -0.3668   -0.4903 C   0  0  1  0  0  0  0  0  0  0  0  0
    6.0128   -0.2595   -0.8827 O   0  0  0  0  0  0  0  0  0  0  0  0
    4.5243   -1.3386    0.6945 C   0  0  2  0  0  0  0  0  0  0  0  0
    4.9250   -2.6438    0.3199 O   0  0  0  0  0  0  0  0  0  0  0  0
    3.0805   -1.3530    1.2373 C   0  0  1  0  0  0  0  0  0  0  0  0
    2.6127   -0.0311    1.5150 O   0  0  0  0  0  0  0  0  0  0  0  0
    2.1025   -2.1320    0.3453 C   0  0  0  0  0  0  0  0  0  0  0  0
    0.7054   -1.7821    0.6484 N   0  0  0  0  0  0  0  0  0  0  0  0
  1  3  1  0  0  0  0
  1  2  1  6  0  0  0
  3  4  1  6  0  0  0
  5  6  1  1  0  0  0
  5  3  1  0  0  0  0
  7  9  1  0  0  0  0
  7  5  1  0  0  0  0
  7  8  1  6  0  0  0
  9 10  1  0  0  0  0
  9 11  1  1  0  0  0
 10  1  1  0  0  0  0
 11 12  1  0  0  0  0
 13 14  1  1  0  0  0
 13 21  1  0  0  0  0
 15 13  1  0  0  0  0
 16 15  1  0  0  0  0
 16 18  1  0  0  0  0
 16 17  1  1  0  0  0
 18  2  1  6  0  0  0
 18 19  1  0  0  0  0
 19 21  1  0  0  0  0
 19 20  1  1  0  0  0
 21 22  1  6  0  0  0
 23 20  1  1  0  0  0
 23 29  1  0  0  0  0
 23 24  1  0  0  0  0
 24 26  1  0  0  0  0
 24 25  1  6  0  0  0
 26 27  1  6  0  0  0
 28 26  1  0  0  0  0
 28 30  1  1  0  0  0
 29 28  1  0  0  0  0
 30 31  1  0  0  0  0
 32 27  1  6  0  0  0
 32 40  1  0  0  0  0
 32 33  1  0  0  0  0
 33 35  1  0  0  0  0
 33 34  1  6  0  0  0
 35 37  1  0  0  0  0
 35 36  1  1  0  0  0
 37 38  1  6  0  0  0
 39 37  1  0  0  0  0
 39 41  1  6  0  0  0
 40 39  1  0  0  0  0
 42 41  1  0  0  0  0
M  END
>  <CHROM.1>
-94.86628402,-74.33113542,174.47607631,78.34652210,-167.75669231,-25.66533982
-170.62488182,73.91455583,-170.09427540,-153.09006833,113.14553339,83.07230727
78.23340094,62.37188912,-124.67166184,-92.02097464,63.73552170,-57.27756411
71.38875385,72.61005424,-162.25840008,-47.00467928,0.28783207,3.11262661
0.49667553,2.42742559,0.59905690,-0.25813380

>  <Name>
lig.pdb

>  <RI>
3.17932e+07

>  <Rbt.Current_Directory>
/home/itssahil/PROJECTS/Mol_Feturizer/New_Systems/rnas/2mxs

>  <Rbt.Executable>
rbdock ($Id: //depot/dev/client3/rdock/2013.1/src/exe/rbdock.cxx#4 $)

>  <Rbt.Library>
libRbt.so (2013.1, Build901 2013/11/27)

>  <Rbt.Parameter_File>
/export/apps/rDock/src/rDock_2013.1_src/data/scripts/dock_solv.prm

>  <Rbt.Receptor>
prm/blind_docking_100.prm

>  <SCORE>
122.572

>  <SCORE.INTER>
92.8787

>  <SCORE.INTER.CONST>
1

>  <SCORE.INTER.POLAR>
-2.47658

>  <SCORE.INTER.ROT>
9

>  <SCORE.INTER.SOLV>
38.0215

>  <SCORE.INTER.VDW>
47.9006

>  <SCORE.INTER.norm>
2.2114

>  <SCORE.INTRA>
8.99641

>  <SCORE.INTRA.DIHEDRAL>
10.2602

>  <SCORE.INTRA.DIHEDRAL.0>
30.1357

>  <SCORE.INTRA.POLAR>
-0.949496

>  <SCORE.INTRA.POLAR.0>
-0.631696

>  <SCORE.INTRA.REPUL>
0

>  <SCORE.INTRA.REPUL.0>
0

>  <SCORE.INTRA.SOLV>
1.40435

>  <SCORE.INTRA.SOLV.lig_0>
-55.904

>  <SCORE.INTRA.VDW>
6.39244

>  <SCORE.INTRA.VDW.0>
-8.21197

>  <SCORE.INTRA.norm>
0.2142

>  <SCORE.RESTR>
20.6968

>  <SCORE.RESTR.CAVITY>
20.6968

>  <SCORE.RESTR.norm>
0.492782

>  <SCORE.SYSTEM>
0

>  <SCORE.SYSTEM.CONST>
0

>  <SCORE.SYSTEM.DIHEDRAL>
0

>  <SCORE.SYSTEM.SOLV>
0

>  <SCORE.SYSTEM.norm>
0

>  <SCORE.heavy>
42

>  <SCORE.norm>
2.91838

>  <RMSD>
8.247

$$$$
lig.pdb
 OpenBabel11021811453D
libRbt.so/2013.1/901 2013/11/27
 42 45  0  0  0  0  0  0  0  0999 V2000
   -1.6284    4.7017    2.2915 C   0  0  2  0  0  0  0  0  0  0  0  0
   -1.8385    5.8094    1.4139 O   0  0  0  0  0  0  0  0  0  0  0  0
   -2.5443    3.5264    1.9182 C   0  0  2  0  0  0  0  0  0  0  0  0
   -2.3739    3.1518    0.5023 N   0  0  0  0  0  0  0  0  0  0  0  0
   -4.0109    3.8519    2.2293 C   0  0  1  0  0  0  0  0  0  0  0  0
   -4.8029    2.6987    2.0179 O   0  0  0  0  0  0  0  0  0  0  0  0
   -4.1566    4.3089    3.6886 C   0  0  2  0  0  0  0  0  0  0  0  0
   -5.4812    4.7537    3.9102 O   0  0  0  0  0  0  0  0  0  0  0  0
   -3.1629    5.4378    4.0296 C   0  0  2  0  0  0  0  0  0  0  0  0
   -1.8329    5.0871    3.6485 O   0  0  0  0  0  0  0  0  0  0  0  0
   -3.2209    5.6842    5.5492 C   0  0  0  0  0  0  0  0  0  0  0  0
   -2.2525    6.6774    5.9805 O   0  0  0  0  0  0  0  0  0  0  0  0
    0.7932    7.8493   -1.3145 C   0  0  2  0  0  0  0  0  0  0  0  0
    2.1315    8.2531   -1.7901 N   0  0  0  0  0  0  0  0  0  0  0  0
    0.5520    8.3735    0.1033 C   0  0  0  0  0  0  0  0  0  0  0  0
   -0.7665    7.8437    0.6545 C   0  0  2  0  0  0  0  0  0  0  0  0
   -1.0362    8.4291    1.9738 N   0  0  0  0  0  0  0  0  0  0  0  0
   -0.6882    6.3003    0.7102 C   0  0  2  0  0  0  0  0  0  0  0  0
   -0.6140    5.7792   -0.6893 C   0  0  2  0  0  0  0  0  0  0  0  0
   -0.5853    4.3655   -0.6173 O   0  0  0  0  0  0  0  0  0  0  0  0
    0.6302    6.3186   -1.3692 C   0  0  1  0  0  0  0  0  0  0  0  0
    0.7078    5.9241   -2.7262 O   0  0  0  0  0  0  0  0  0  0  0  0
    0.1100    3.6634   -1.6422 C   0  0  1  0  0  0  0  0  0  0  0  0
    1.3092    2.9639   -0.9988 C   0  0  2  0  0  0  0  0  0  0  0  0
    2.3987    2.9770   -1.9020 O   0  0  0  0  0  0  0  0  0  0  0  0
    0.7675    1.5519   -0.7379 C   0  0  2  0  0  0  0  0  0  0  0  0
    1.8033    0.5801   -0.5920 O   0  0  0  0  0  0  0  0  0  0  0  0
   -0.1146    1.3721   -1.9795 C   0  0  2  0  0  0  0  0  0  0  0  0
   -0.7242    2.6408   -2.1719 O   0  0  0  0  0  0  0  0  0  0  0  0
   -1.2107    0.3108   -1.8288 C   0  0  0  0  0  0  0  0  0  0  0  0
   -2.4375    0.7493   -2.3727 O   0  0  0  0  0  0  0  0  0  0  0  0
    2.6636    0.7915    0.5257 C   0  0  2  0  0  0  0  0  0  0  0  0
    4.1319    0.9341    0.0966 C   0  0  2  0  0  0  0  0  0  0  0  0
    4.2858    2.0011   -0.9063 N   0  0  0  0  0  0  0  0  0  0  0  0
    4.6928   -0.4020   -0.4131 C   0  0  1  0  0  0  0  0  0  0  0  0
    6.0651   -0.2314   -0.7107 O   0  0  0  0  0  0  0  0  0  0  0  0
    4.5169   -1.4568    0.6925 C   0  0  2  0  0  0  0  0  0  0  0  0
    4.9802   -2.7217    0.2569 O   0  0  0  0  0  0  0  0  0  0  0  0
    3.0435   -1.5475    1.1404 C   0  0  1  0  0  0  0  0  0  0  0  0
    2.5186   -0.2611    1.4765 O   0  0  0  0  0  0  0  0  0  0  0  0
    2.1470   -2.2889    0.1377 C   0  0  0  0  0  0  0  0  0  0  0  0
    0.7678   -1.7757    0.1702 N   0  0  0  0  0  0  0  0  0  0  0  0
  1  3  1  0  0  0  0
  1  2  1  6  0  0  0
  3  4  1  6  0  0  0
  5  6  1  1  0  0  0
  5  3  1  0  0  0  0
  7  9  1  0  0  0  0
  7  5  1  0  0  0  0
  7  8  1  6  0  0  0
  9 10  1  0  0  0  0
  9 11  1  1  0  0  0
 10  1  1  0  0  0  0
 11 12  1  0  0  0  0
 13 14  1  1  0  0  0
 13 21  1  0  0  0  0
 15 13  1  0  0  0  0
 16 15  1  0  0  0  0
 16 18  1  0  0  0  0
 16 17  1  1  0  0  0
 18  2  1  6  0  0  0
 18 19  1  0  0  0  0
 19 21  1  0  0  0  0
 19 20  1  1  0  0  0
 21 22  1  6  0  0  0
 23 20  1  1  0  0  0
 23 29  1  0  0  0  0
 23 24  1  0  0  0  0
 24 26  1  0  0  0  0
 24 25  1  6  0  0  0
 26 27  1  6  0  0  0
 28 26  1  0  0  0  0
 28 30  1  1  0  0  0
 29 28  1  0  0  0  0
 30 31  1  0  0  0  0
 32 27  1  6  0  0  0
 32 40  1  0  0  0  0
 32 33  1  0  0  0  0
 33 35  1  0  0  0  0
 33 34  1  6  0  0  0
 35 37  1  0  0  0  0
 35 36  1  1  0  0  0
 37 38  1  6  0  0  0
 39 37  1  0  0  0  0
 39 41  1  6  0  0  0
 40 39  1  0  0  0  0
 42 41  1  0  0  0  0
M  END
>  <CHROM.1>
-141.22198224,-123.48417124,167.91687606,-161.62411810,-57.81837068,172.45298430
176.33213857,-53.02536300,74.94239506,-149.84336306,114.64976950,-77.21686279
65.32923219,63.21964360,-121.96351360,137.38964893,-168.80791318,60.60539630
147.80310042,90.56253543,-149.46639961,-75.29709990,0.12758961,3.20571031
0.47575678,2.48483305,0.63906528,-0.24983826

>  <Name>
lig.pdb

>  <RI>
3.17932e+07

>  <Rbt.Current_Directory>
/home/itssahil/PROJECTS/Mol_Feturizer/New_Systems/rnas/2mxs

>  <Rbt.Executable>
rbdock ($Id: //depot/dev/client3/rdock/2013.1/src/exe/rbdock.cxx#4 $)

>  <Rbt.Library>
libRbt.so (2013.1, Build901 2013/11/27)

>  <Rbt.Parameter_File>
/export/apps/rDock/src/rDock_2013.1_src/data/scripts/dock_solv.prm

>  <Rbt.Receptor>
prm/blind_docking_100.prm

>  <SCORE>
125.923

>  <SCORE.INTER>
90.8412

>  <SCORE.INTER.CONST>
1

>  <SCORE.INTER.POLAR>
-3.59381

>  <SCORE.INTER.ROT>
9

>  <SCORE.INTER.SOLV>
37.2018

>  <SCORE.INTER.VDW>
50.5396

>  <SCORE.INTER.norm>
2.16289

>  <SCORE.INTRA>
16.1134

>  <SCORE.INTRA.DIHEDRAL>
20.6428

>  <SCORE.INTRA.DIHEDRAL.0>
30.1357

>  <SCORE.INTRA.POLAR>
-0.441744

>  <SCORE.INTRA.POLAR.0>
-0.631696

>  <SCORE.INTRA.REPUL>
0

>  <SCORE.INTRA.REPUL.0>
0

>  <SCORE.INTRA.SOLV>
1.86569

>  <SCORE.INTRA.SOLV.lig_0>
-55.904

>  <SCORE.INTRA.VDW>
6.36108

>  <SCORE.INTRA.VDW.0>
-8.21197

>  <SCORE.INTRA.norm>
0.383652

>  <SCORE.RESTR>
18.9684

>  <SCORE.RESTR.CAVITY>
18.9684

>  <SCORE.RESTR.norm>
0.451628

>  <SCORE.SYSTEM>
0

>  <SCORE.SYSTEM.CONST>
0

>  <SCORE.SYSTEM.DIHEDRAL>
0

>  <SCORE.SYSTEM.SOLV>
0

>  <SCORE.SYSTEM.norm>
0

>  <SCORE.heavy>
42

>  <SCORE.norm>
2.99817

>  <RMSD>
8.247

$$$$
lig.pdb
 OpenBabel11021811453D
libRbt.so/2013.1/901 2013/11/27
 42 45  0  0  0  0  0  0  0  0999 V2000
   -4.8438   -0.8413    0.8562 C   0  0  2  0  0  0  0  0  0  0  0  0
   -6.1999   -0.4017    0.7610 O   0  0  0  0  0  0  0  0  0  0  0  0
   -4.3133   -1.2806   -0.5168 C   0  0  2  0  0  0  0  0  0  0  0  0
   -4.4798   -0.2090   -1.5160 N   0  0  0  0  0  0  0  0  0  0  0  0
   -4.9925   -2.5759   -0.9800 C   0  0  1  0  0  0  0  0  0  0  0  0
   -4.3744   -3.0314   -2.1683 O   0  0  0  0  0  0  0  0  0  0  0  0
   -4.8708   -3.6576    0.1039 C   0  0  2  0  0  0  0  0  0  0  0  0
   -5.6355   -4.7866   -0.2730 O   0  0  0  0  0  0  0  0  0  0  0  0
   -5.3465   -3.1392    1.4762 C   0  0  2  0  0  0  0  0  0  0  0  0
   -4.7215   -1.8988    1.8042 O   0  0  0  0  0  0  0  0  0  0  0  0
   -4.9910   -4.1977    2.5375 C   0  0  0  0  0  0  0  0  0  0  0  0
   -5.5068   -3.8516    3.8507 O   0  0  0  0  0  0  0  0  0  0  0  0
   -8.4029    1.5883    3.8783 C   0  0  2  0  0  0  0  0  0  0  0  0
   -9.0610    1.6259    5.1996 N   0  0  0  0  0  0  0  0  0  0  0  0
   -9.0603    0.5321    2.9865 C   0  0  0  0  0  0  0  0  0  0  0  0
   -8.2991    0.3885    1.6740 C   0  0  2  0  0  0  0  0  0  0  0  0
   -8.9921   -0.5538    0.7865 N   0  0  0  0  0  0  0  0  0  0  0  0
   -6.8568   -0.0693    1.9928 C   0  0  2  0  0  0  0  0  0  0  0  0
   -6.1620    1.0323    2.7273 C   0  0  2  0  0  0  0  0  0  0  0  0
   -4.8330    0.6099    2.9722 O   0  0  0  0  0  0  0  0  0  0  0  0
   -6.8931    1.3210    4.0247 C   0  0  1  0  0  0  0  0  0  0  0  0
   -6.3264    2.4142    4.7223 O   0  0  0  0  0  0  0  0  0  0  0  0
   -3.9395    1.5443    3.5682 C   0  0  1  0  0  0  0  0  0  0  0  0
   -2.6212    0.8188    3.8461 C   0  0  2  0  0  0  0  0  0  0  0  0
   -2.0629    1.3077    5.0511 O   0  0  0  0  0  0  0  0  0  0  0  0
   -1.7814    1.1746    2.6119 C   0  0  2  0  0  0  0  0  0  0  0  0
   -0.3788    1.0309    2.8368 O   0  0  0  0  0  0  0  0  0  0  0  0
   -2.2520    2.6152    2.3765 C   0  0  2  0  0  0  0  0  0  0  0  0
   -3.6472    2.5837    2.6427 O   0  0  0  0  0  0  0  0  0  0  0  0
   -2.0289    3.1288    0.9493 C   0  0  0  0  0  0  0  0  0  0  0  0
   -2.5584    4.4258    0.7746 O   0  0  0  0  0  0  0  0  0  0  0  0
    0.0776   -0.3187    2.9020 C   0  0  2  0  0  0  0  0  0  0  0  0
    1.5970   -0.3977    3.1143 C   0  0  2  0  0  0  0  0  0  0  0  0
    2.0017    0.3621    4.3089 N   0  0  0  0  0  0  0  0  0  0  0  0
    2.3566    0.0725    1.8647 C   0  0  1  0  0  0  0  0  0  0  0  0
    3.7426   -0.1032    2.0860 O   0  0  0  0  0  0  0  0  0  0  0  0
    1.8983   -0.7785    0.6682 C   0  0  2  0  0  0  0  0  0  0  0  0
    2.5386   -0.3561   -0.5218 O   0  0  0  0  0  0  0  0  0  0  0  0
    0.3655   -0.7222    0.5047 C   0  0  1  0  0  0  0  0  0  0  0  0
   -0.3032   -1.0342    1.7289 O   0  0  0  0  0  0  0  0  0  0  0  0
   -0.1340    0.5976   -0.1015 C   0  0  0  0  0  0  0  0  0  0  0  0
    0.1609    0.6718   -1.5416 N   0  0  0  0  0  0  0  0  0  0  0  0
  1  3  1  0  0  0  0
  1  2  1  6  0  0  0
  3  4  1  6  0  0  0
  5  6  1  6  0  0  0
  5  3  1  0  0  0  0
  7  9  1  0  0  0  0
  7  5  1  0  0  0  0
  7  8  1  6  0  0  0
  9 10  1  0  0  0  0
  9 11  1  1  0  0  0
 10  1  1  0  0  0  0
 11 12  1  0  0  0  0
 13 14  1  1  0  0  0
 13 21  1  0  0  0  0
 15 13  1  0  0  0  0
 16 15  1  0  0  0  0
 16 18  1  0  0  0  0
 16 17  1  6  0  0  0
 18  2  1  6  0  0  0
 18 19  1  0  0  0  0
 19 21  1  0  0  0  0
 19 20  1  1  0  0  0
 21 22  1  6  0  0  0
 23 20  1  6  0  0  0
 23 29  1  0  0  0  0
 23 24  1  0  0  0  0
 24 26  1  0  0  0  0
 24 25  1  1  0  0  0
 26 27  1  1  0  0  0
 28 26  1  0  0  0  0
 28 30  1  6  0  0  0
 29 28  1  0  0  0  0
 30 31  1  0  0  0  0
 32 27  1  6  0  0  0
 32 40  1  0  0  0  0
 32 33  1  0  0  0  0
 33 35  1  0  0  0  0
 33 34  1  1  0  0  0
 35 37  1  0  0  0  0
 35 36  1  1  0  0  0
 37 38  1  6  0  0  0
 39 37  1  0  0  0  0
 39 41  1  1  0  0  0
 40 39  1  0  0  0  0
 42 41  1  0  0  0  0
M  END
>  <CHROM.1>
179.61264544,174.87766104,-82.80920625,-77.38950938,-60.13260114,174.10659242
-174.89670809,174.74743050,-47.07214220,174.94830969,174.87153110,-67.10195728
62.15402168,73.17285540,178.73631453,176.24549307,-60.01614709,-17.93706691
38.22719126,102.56555134,73.83945155,-170.40470280,-3.36945237,-0.10044222
1.81128999,3.12098221,0.11531148,0.69379725

>  <Name>
lig.pdb

>  <RI>
4.11275e+07

>  <Rbt.Current_Directory>
/home/itssahil/PROJECTS/Mol_Feturizer/New_Systems/rnas/2mxs

>  <Rbt.Executable>
rbdock ($Id: //depot/dev/client3/rdock/2013.1/src/exe/rbdock.cxx#4 $)

>  <Rbt.Library>
libRbt.so (2013.1, Build901 2013/11/27)

>  <Rbt.Parameter_File>
/export/apps/rDock/src/rDock_2013.1_src/data/scripts/dock_solv.prm

>  <Rbt.Receptor>
prm/pocket_docking_8.prm

>  <SCORE>
-49.0198

>  <SCORE.INTER>
-45.9759

>  <SCORE.INTER.CONST>
1

>  <SCORE.INTER.POLAR>
-7.0145

>  <SCORE.INTER.ROT>
9

>  <SCORE.INTER.SOLV>
21.524

>  <SCORE.INTER.VDW>
-24.0436

>  <SCORE.INTER.norm>
-1.09466

>  <SCORE.INTRA>
-3.04391

>  <SCORE.INTRA.DIHEDRAL>
-13.0287

>  <SCORE.INTRA.DIHEDRAL.0>
30.1357

>  <SCORE.INTRA.POLAR>
-0.127656

>  <SCORE.INTRA.POLAR.0>
-0.631696

>  <SCORE.INTRA.REPUL>
0

>  <SCORE.INTRA.REPUL.0>
0

>  <SCORE.INTRA.SOLV>
-1.73848

>  <SCORE.INTRA.SOLV.lig_0>
-55.904

>  <SCORE.INTRA.VDW>
4.77373

>  <SCORE.INTRA.VDW.0>
-8.21197

>  <SCORE.INTRA.norm>
-0.072474

>  <SCORE.RESTR>
0

>  <SCORE.RESTR.CAVITY>
0

>  <SCORE.RESTR.norm>
0

>  <SCORE.SYSTEM>
0

>  <SCORE.SYSTEM.CONST>
0

>  <SCORE.SYSTEM.DIHEDRAL>
0

>  <SCORE.SYSTEM.SOLV>
0

>  <SCORE.SYSTEM.norm>
0

>  <SCORE.heavy>
42

>  <SCORE.norm>
-1.16714

>  <RMSD>
8.251

$$$$
lig.pdb
 OpenBabel11021811453D
libRbt.so/2013.1/901 2013/11/27
 42 45  0  0  0  0  0  0  0  0999 V2000
   -2.0163    0.9388    8.1726 C   0  0  2  0  0  0  0  0  0  0  0  0
   -2.7036    1.8630    7.3270 O   0  0  0  0  0  0  0  0  0  0  0  0
   -0.7855    1.5961    8.8152 C   0  0  2  0  0  0  0  0  0  0  0  0
   -1.1579    2.8307    9.5305 N   0  0  0  0  0  0  0  0  0  0  0  0
    0.3002    1.8728    7.7672 C   0  0  1  0  0  0  0  0  0  0  0  0
    1.4708    2.3340    8.4142 O   0  0  0  0  0  0  0  0  0  0  0  0
    0.6228    0.5912    6.9841 C   0  0  2  0  0  0  0  0  0  0  0  0
    1.5056    0.9004    5.9228 O   0  0  0  0  0  0  0  0  0  0  0  0
   -0.6551   -0.0670    6.4254 C   0  0  2  0  0  0  0  0  0  0  0  0
   -1.6407   -0.2279    7.4450 O   0  0  0  0  0  0  0  0  0  0  0  0
   -0.2723   -1.4437    5.8498 C   0  0  0  0  0  0  0  0  0  0  0  0
    0.5272   -1.3295    4.6423 O   0  0  0  0  0  0  0  0  0  0  0  0
   -5.4104   -0.7571    5.2440 C   0  0  2  0  0  0  0  0  0  0  0  0
   -6.6108   -1.0200    4.4253 N   0  0  0  0  0  0  0  0  0  0  0  0
   -5.8029   -0.0916    6.5654 C   0  0  0  0  0  0  0  0  0  0  0  0
   -4.5619    0.3105    7.3534 C   0  0  2  0  0  0  0  0  0  0  0  0
   -4.9466    0.8577    8.6605 N   0  0  0  0  0  0  0  0  0  0  0  0
   -3.7575    1.3290    6.5126 C   0  0  2  0  0  0  0  0  0  0  0  0
   -3.2374    0.6327    5.2960 C   0  0  2  0  0  0  0  0  0  0  0  0
   -2.4706    1.5702    4.5628 O   0  0  0  0  0  0  0  0  0  0  0  0
   -4.3986    0.1101    4.4715 C   0  0  1  0  0  0  0  0  0  0  0  0
   -3.9617   -0.6323    3.3487 O   0  0  0  0  0  0  0  0  0  0  0  0
   -3.1668    2.6098    3.8836 C   0  0  1  0  0  0  0  0  0  0  0  0
   -2.1328    3.6342    3.4115 C   0  0  2  0  0  0  0  0  0  0  0  0
   -2.6857    4.9337    3.5029 O   0  0  0  0  0  0  0  0  0  0  0  0
   -1.8717    3.1973    1.9638 C   0  0  2  0  0  0  0  0  0  0  0  0
   -1.3255    4.2434    1.1601 O   0  0  0  0  0  0  0  0  0  0  0  0
   -3.2820    2.7468    1.5636 C   0  0  2  0  0  0  0  0  0  0  0  0
   -3.7869    2.0865    2.7158 O   0  0  0  0  0  0  0  0  0  0  0  0
   -3.3240    1.7781    0.3761 C   0  0  0  0  0  0  0  0  0  0  0  0
   -4.6458    1.3877    0.0699 O   0  0  0  0  0  0  0  0  0  0  0  0
    0.0161    4.6030    1.4839 C   0  0  2  0  0  0  0  0  0  0  0  0
    0.4557    5.8823    0.7557 C   0  0  2  0  0  0  0  0  0  0  0  0
   -0.4757    6.9896    1.0285 N   0  0  0  0  0  0  0  0  0  0  0  0
    0.6103    5.6362   -0.7527 C   0  0  1  0  0  0  0  0  0  0  0  0
    1.0976    6.8194   -1.3555 O   0  0  0  0  0  0  0  0  0  0  0  0
    1.6102    4.4856   -0.9577 C   0  0  2  0  0  0  0  0  0  0  0  0
    1.7572    4.1884   -2.3341 O   0  0  0  0  0  0  0  0  0  0  0  0
    1.1732    3.2281   -0.1785 C   0  0  1  0  0  0  0  0  0  0  0  0
    0.9075    3.5287    1.1935 O   0  0  0  0  0  0  0  0  0  0  0  0
    0.0063    2.4782   -0.8379 C   0  0  0  0  0  0  0  0  0  0  0  0
    0.3564    2.0286   -2.1950 N   0  0  0  0  0  0  0  0  0  0  0  0
  1  3  1  0  0  0  0
  1  2  1  6  0  0  0
  3  4  1  6  0  0  0
  5  6  1  1  0  0  0
  5  3  1  0  0  0  0
  7  9  1  0  0  0  0
  7  5  1  0  0  0  0
  7  8  1  6  0  0  0
  9 10  1  0  0  0  0
  9 11  1  1  0  0  0
 10  1  1  0  0  0  0
 11 12  1  0  0  0  0
 13 14  1  6  0  0  0
 13 21  1  0  0  0  0
 15 13  1  0  0  0  0
 16 15  1  0  0  0  0
 16 18  1  0  0  0  0
 16 17  1  1  0  0  0
 18  2  1  1  0  0  0
 18 19  1  0  0  0  0
 19 21  1  0  0  0  0
 19 20  1  6  0  0  0
 21 22  1  6  0  0  0
 23 20  1  6  0  0  0
 23 29  1  0  0  0  0
 23 24  1  0  0  0  0
 24 26  1  0  0  0  0
 24 25  1  6  0  0  0
 26 27  1  6  0  0  0
 28 26  1  0  0  0  0
 28 30  1  6  0  0  0
 29 28  1  0  0  0  0
 30 31  1  0  0  0  0
 32 27  1  6  0  0  0
 32 40  1  0  0  0  0
 32 33  1  0  0  0  0
 33 35  1  0  0  0  0
 33 34  1  6  0  0  0
 35 37  1  0  0  0  0
 35 36  1  6  0  0  0
 37 38  1  6  0  0  0
 39 37  1  0  0  0  0
 39 41  1  6  0  0  0
 40 39  1  0  0  0  0
 42 41  1  0  0  0  0
M  END
>  <CHROM.1>
40.89092572,171.19751933,-158.23651511,175.27495223,168.79314182,-179.78976562
-69.68309979,-178.54512901,172.19768481,-71.87937186,168.87006935,171.73201224
60.83422140,69.93715565,-170.17230566,179.18204396,179.97666509,28.85041394
-98.63668929,163.77762586,59.92397865,66.96577799,-1.62323752,2.12181887
3.73323389,-1.94009055,-0.44672970,-1.26394342

>  <Name>
lig.pdb

>  <RI>
3.99633e+07

>  <Rbt.Current_Directory>
/home/itssahil/PROJECTS/Mol_Feturizer/New_Systems/rnas/2mxs

>  <Rbt.Executable>
rbdock ($Id: //depot/dev/client3/rdock/2013.1/src/exe/rbdock.cxx#4 $)

>  <Rbt.Library>
libRbt.so (2013.1, Build901 2013/11/27)

>  <Rbt.Parameter_File>
/export/apps/rDock/src/rDock_2013.1_src/data/scripts/dock_solv.prm

>  <Rbt.Receptor>
prm/pocket_docking_5.prm

>  <SCORE>
-37.3912

>  <SCORE.INTER>
-34.5658

>  <SCORE.INTER.CONST>
1

>  <SCORE.INTER.POLAR>
-4.75602

>  <SCORE.INTER.ROT>
9

>  <SCORE.INTER.SOLV>
14.3749

>  <SCORE.INTER.VDW>
-21.5821

>  <SCORE.INTER.norm>
-0.822995

>  <SCORE.INTRA>
-2.85367

>  <SCORE.INTRA.DIHEDRAL>
-14.1179

>  <SCORE.INTRA.DIHEDRAL.0>
30.1357

>  <SCORE.INTRA.POLAR>
-0.748744

>  <SCORE.INTRA.POLAR.0>
-0.631696

>  <SCORE.INTRA.REPUL>
0

>  <SCORE.INTRA.REPUL.0>
0

>  <SCORE.INTRA.SOLV>
0.452112

>  <SCORE.INTRA.SOLV.lig_0>
-55.904

>  <SCORE.INTRA.VDW>
6.52495

>  <SCORE.INTRA.VDW.0>
-8.21197

>  <SCORE.INTRA.norm>
-0.0679446

>  <SCORE.RESTR>
0.0282159

>  <SCORE.RESTR.CAVITY>
0.0282159

>  <SCORE.RESTR.norm>
0.000671808

>  <SCORE.SYSTEM>
0

>  <SCORE.SYSTEM.CONST>
0

>  <SCORE.SYSTEM.DIHEDRAL>
0

>  <SCORE.SYSTEM.SOLV>
0

>  <SCORE.SYSTEM.norm>
0

>  <SCORE.heavy>
42

>  <SCORE.norm>
-0.890267

>  <RMSD>
8.258

$$$$
lig.pdb
 OpenBabel11021811453D
libRbt.so/2013.1/901 2013/11/27
 42 45  0  0  0  0  0  0  0  0999 V2000
   -0.6383    2.0648    6.3835 C   0  0  2  0  0  0  0  0  0  0  0  0
   -0.3328    3.0284    5.3737 O   0  0  0  0  0  0  0  0  0  0  0  0
    0.2810    0.8396    6.2667 C   0  0  2  0  0  0  0  0  0  0  0  0
    1.7003    1.2388    6.2926 N   0  0  0  0  0  0  0  0  0  0  0  0
   -0.0404    0.0293    5.0043 C   0  0  1  0  0  0  0  0  0  0  0  0
    0.7158   -1.1663    5.0085 O   0  0  0  0  0  0  0  0  0  0  0  0
   -1.5368   -0.3151    4.9597 C   0  0  2  0  0  0  0  0  0  0  0  0
   -1.8412   -0.9212    3.7182 O   0  0  0  0  0  0  0  0  0  0  0  0
   -2.4120    0.9394    5.1568 C   0  0  2  0  0  0  0  0  0  0  0  0
   -2.0074    1.6747    6.3112 O   0  0  0  0  0  0  0  0  0  0  0  0
   -3.8745    0.4826    5.3170 C   0  0  0  0  0  0  0  0  0  0  0  0
   -4.0966   -0.2131    6.5728 O   0  0  0  0  0  0  0  0  0  0  0  0
   -1.8525    6.6419    7.1525 C   0  0  2  0  0  0  0  0  0  0  0  0
   -2.1814    8.0810    7.1206 N   0  0  0  0  0  0  0  0  0  0  0  0
   -0.3530    6.4338    6.9260 C   0  0  0  0  0  0  0  0  0  0  0  0
   -0.0275    4.9488    6.8169 C   0  0  2  0  0  0  0  0  0  0  0  0
    1.4231    4.7552    6.6984 N   0  0  0  0  0  0  0  0  0  0  0  0
   -0.7909    4.3688    5.6036 C   0  0  2  0  0  0  0  0  0  0  0  0
   -2.2563    4.4257    5.8950 C   0  0  2  0  0  0  0  0  0  0  0  0
   -2.9333    3.8527    4.7914 O   0  0  0  0  0  0  0  0  0  0  0  0
   -2.6784    5.8671    6.1086 C   0  0  1  0  0  0  0  0  0  0  0  0
   -4.0423    5.9732    6.4713 O   0  0  0  0  0  0  0  0  0  0  0  0
   -3.2365    4.6989    3.6874 C   0  0  1  0  0  0  0  0  0  0  0  0
   -1.9127    5.1869    3.0950 C   0  0  2  0  0  0  0  0  0  0  0  0
   -2.0656    6.5188    2.6416 O   0  0  0  0  0  0  0  0  0  0  0  0
   -1.6749    4.1910    1.9519 C   0  0  2  0  0  0  0  0  0  0  0  0
   -0.7826    4.6935    0.9569 O   0  0  0  0  0  0  0  0  0  0  0  0
   -3.1181    3.9822    1.4768 C   0  0  2  0  0  0  0  0  0  0  0  0
   -3.8860    3.9451    2.6714 O   0  0  0  0  0  0  0  0  0  0  0  0
   -3.3461    2.6816    0.6977 C   0  0  0  0  0  0  0  0  0  0  0  0
   -3.7828    1.6387    1.5432 O   0  0  0  0  0  0  0  0  0  0  0  0
   -0.6231    3.8476   -0.1802 C   0  0  2  0  0  0  0  0  0  0  0  0
    0.3470    2.6901    0.1012 C   0  0  2  0  0  0  0  0  0  0  0  0
   -0.0785    1.9225    1.2835 N   0  0  0  0  0  0  0  0  0  0  0  0
    1.7888    3.1988    0.2501 C   0  0  1  0  0  0  0  0  0  0  0  0
    2.6449    2.0859    0.4207 O   0  0  0  0  0  0  0  0  0  0  0  0
    2.1672    3.9684   -1.0268 C   0  0  2  0  0  0  0  0  0  0  0  0
    3.4764    4.4973   -0.9239 O   0  0  0  0  0  0  0  0  0  0  0  0
    1.1524    5.0939   -1.3150 C   0  0  1  0  0  0  0  0  0  0  0  0
   -0.1898    4.6021   -1.3099 O   0  0  0  0  0  0  0  0  0  0  0  0
    1.3198    6.3142   -0.3977 C   0  0  0  0  0  0  0  0  0  0  0  0
    0.9879    7.5636   -1.1014 N   0  0  0  0  0  0  0  0  0  0  0  0
  1  3  1  0  0  0  0
  1  2  1  6  0  0  0
  3  4  1  6  0  0  0
  5  6  1  1  0  0  0
  5  3  1  0  0  0  0
  7  9  1  0  0  0  0
  7  5  1  0  0  0  0
  7  8  1  6  0  0  0
  9 10  1  0  0  0  0
  9 11  1  1  0  0  0
 10  1  1  0  0  0  0
 11 12  1  0  0  0  0
 13 14  1  6  0  0  0
 13 21  1  0  0  0  0
 15 13  1  0  0  0  0
 16 15  1  0  0  0  0
 16 18  1  0  0  0  0
 16 17  1  6  0  0  0
 18  2  1  1  0  0  0
 18 19  1  0  0  0  0
 19 21  1  0  0  0  0
 19 20  1  6  0  0  0
 21 22  1  1  0  0  0
 23 20  1  1  0  0  0
 23 29  1  0  0  0  0
 23 24  1  0  0  0  0
 24 26  1  0  0  0  0
 24 25  1  6  0  0  0
 26 27  1  6  0  0  0
 28 26  1  0  0  0  0
 28 30  1  1  0  0  0
 29 28  1  0  0  0  0
 30 31  1  0  0  0  0
 32 27  1  1  0  0  0
 32 40  1  0  0  0  0
 32 33  1  0  0  0  0
 33 35  1  0  0  0  0
 33 34  1  1  0  0  0
 35 37  1  0  0  0  0
 35 36  1  6  0  0  0
 37 38  1  1  0  0  0
 39 37  1  0  0  0  0
 39 41  1  1  0  0  0
 40 39  1  0  0  0  0
 42 41  1  0  0  0  0
M  END
>  <CHROM.1>
66.42467749,-160.73569703,57.08921674,-174.88085086,64.84007337,177.00316046
69.41494733,99.17722388,169.41576752,-85.91493922,62.93966997,78.20084511
-173.93540325,-174.87323030,-79.55493232,93.65916076,-174.23739331,-68.14637272
-66.63516999,179.97853738,146.45475278,45.09012034,-0.95425092,3.47125102
3.43310222,-2.69260959,1.13692673,-0.20464291

>  <Name>
lig.pdb

>  <RI>
0

>  <Rbt.Current_Directory>
/home/itssahil/PROJECTS/Mol_Feturizer/New_Systems/rnas/2mxs

>  <Rbt.Executable>
rbdock ($Id: //depot/dev/client3/rdock/2013.1/src/exe/rbdock.cxx#4 $)

>  <Rbt.Library>
libRbt.so (2013.1, Build901 2013/11/27)

>  <Rbt.Parameter_File>
/export/apps/rDock/src/rDock_2013.1_src/data/scripts/dock_solv.prm

>  <Rbt.Receptor>
prm/pocket_docking_4.prm

>  <SCORE>
-25.4762

>  <SCORE.INTER>
-28.4768

>  <SCORE.INTER.CONST>
1

>  <SCORE.INTER.POLAR>
-3.99386

>  <SCORE.INTER.ROT>
9

>  <SCORE.INTER.SOLV>
16.1308

>  <SCORE.INTER.VDW>
-20.6486

>  <SCORE.INTER.norm>
-0.67802

>  <SCORE.INTRA>
2.93137

>  <SCORE.INTRA.DIHEDRAL>
-10.3736

>  <SCORE.INTRA.DIHEDRAL.0>
30.1357

>  <SCORE.INTRA.POLAR>
0.631696

>  <SCORE.INTRA.POLAR.0>
-0.631696

>  <SCORE.INTRA.REPUL>
0.0240457

>  <SCORE.INTRA.REPUL.0>
0

>  <SCORE.INTRA.SOLV>
0.575519

>  <SCORE.INTRA.SOLV.lig_0>
-55.904

>  <SCORE.INTRA.VDW>
5.56242

>  <SCORE.INTRA.VDW.0>
-8.21197

>  <SCORE.INTRA.norm>
0.0697945

>  <SCORE.RESTR>
0.0692798

>  <SCORE.RESTR.CAVITY>
0.0692798

>  <SCORE.RESTR.norm>
0.00164952

>  <SCORE.SYSTEM>
0

>  <SCORE.SYSTEM.CONST>
0

>  <SCORE.SYSTEM.DIHEDRAL>
0

>  <SCORE.SYSTEM.SOLV>
0

>  <SCORE.SYSTEM.norm>
0

>  <SCORE.heavy>
42

>  <SCORE.norm>
-0.606576

>  <RMSD>
8.265

$$$$
lig.pdb
 OpenBabel11021811453D
libRbt.so/2013.1/901 2013/11/27
 42 45  0  0  0  0  0  0  0  0999 V2000
   -0.0075    3.4511    5.8447 C   0  0  2  0  0  0  0  0  0  0  0  0
   -0.8843    4.5759    5.9308 O   0  0  0  0  0  0  0  0  0  0  0  0
   -0.4824    2.3155    6.7637 C   0  0  2  0  0  0  0  0  0  0  0  0
   -1.8817    1.9510    6.4746 N   0  0  0  0  0  0  0  0  0  0  0  0
   -0.3052    2.6925    8.2402 C   0  0  1  0  0  0  0  0  0  0  0  0
   -0.6070    1.5726    9.0503 O   0  0  0  0  0  0  0  0  0  0  0  0
    1.1408    3.1379    8.5058 C   0  0  2  0  0  0  0  0  0  0  0  0
    1.2440    3.6298    9.8283 O   0  0  0  0  0  0  0  0  0  0  0  0
    1.5901    4.2246    7.5081 C   0  0  2  0  0  0  0  0  0  0  0  0
    1.3300    3.8283    6.1618 O   0  0  0  0  0  0  0  0  0  0  0  0
    3.1011    4.4555    7.6998 C   0  0  0  0  0  0  0  0  0  0  0  0
    3.4063    5.0373    8.9955 O   0  0  0  0  0  0  0  0  0  0  0  0
   -1.5360    7.8782    3.2473 C   0  0  2  0  0  0  0  0  0  0  0  0
   -1.0874    8.8459    2.2262 N   0  0  0  0  0  0  0  0  0  0  0  0
   -0.7196    8.0431    4.5316 C   0  0  0  0  0  0  0  0  0  0  0  0
   -1.0790    6.9577    5.5394 C   0  0  2  0  0  0  0  0  0  0  0  0
   -0.3643    7.1817    6.8022 N   0  0  0  0  0  0  0  0  0  0  0  0
   -0.7413    5.5825    4.9180 C   0  0  2  0  0  0  0  0  0  0  0  0
   -1.6527    5.3515    3.7555 C   0  0  2  0  0  0  0  0  0  0  0  0
   -1.3555    4.0716    3.2281 O   0  0  0  0  0  0  0  0  0  0  0  0
   -1.4388    6.4357    2.7162 C   0  0  1  0  0  0  0  0  0  0  0  0
   -2.3366    6.3141    1.6289 O   0  0  0  0  0  0  0  0  0  0  0  0
   -2.1334    3.6108    2.1283 C   0  0  1  0  0  0  0  0  0  0  0  0
   -1.5869    2.2444    1.7091 C   0  0  2  0  0  0  0  0  0  0  0  0
   -1.6744    2.1168    0.3024 O   0  0  0  0  0  0  0  0  0  0  0  0
   -2.5134    1.2747    2.4550 C   0  0  2  0  0  0  0  0  0  0  0  0
   -2.5315   -0.0299    1.8750 O   0  0  0  0  0  0  0  0  0  0  0  0
   -3.8373    2.0425    2.3555 C   0  0  2  0  0  0  0  0  0  0  0  0
   -3.4767    3.4034    2.5463 O   0  0  0  0  0  0  0  0  0  0  0  0
   -4.8774    1.6503    3.4113 C   0  0  0  0  0  0  0  0  0  0  0  0
   -6.1118    1.3023    2.8211 O   0  0  0  0  0  0  0  0  0  0  0  0
   -1.5738   -0.9357    2.4195 C   0  0  2  0  0  0  0  0  0  0  0  0
   -1.4057   -2.1846    1.5408 C   0  0  2  0  0  0  0  0  0  0  0  0
   -1.0644   -1.8128    0.1576 N   0  0  0  0  0  0  0  0  0  0  0  0
   -2.6592   -3.0711    1.5917 C   0  0  1  0  0  0  0  0  0  0  0  0
   -2.4149   -4.2423    0.8371 O   0  0  0  0  0  0  0  0  0  0  0  0
   -2.9384   -3.4346    3.0600 C   0  0  2  0  0  0  0  0  0  0  0  0
   -4.1125   -4.2185    3.1678 O   0  0  0  0  0  0  0  0  0  0  0  0
   -3.0550   -2.1667    3.9308 C   0  0  1  0  0  0  0  0  0  0  0  0
   -1.9306   -1.3027    3.7503 O   0  0  0  0  0  0  0  0  0  0  0  0
   -4.3857   -1.4222    3.7470 C   0  0  0  0  0  0  0  0  0  0  0  0
   -4.7290   -1.2813    2.3227 N   0  0  0  0  0  0  0  0  0  0  0  0
  1  3  1  0  0  0  0
  1  2  1  1  0  0  0
  3  4  1  1  0  0  0
  5  6  1  1  0  0  0
  5  3  1  0  0  0  0
  7  9  1  0  0  0  0
  7  5  1  0  0  0  0
  7  8  1  1  0  0  0
  9 10  1  0  0  0  0
  9 11  1  6  0  0  0
 10  1  1  0  0  0  0
 11 12  1  0  0  0  0
 13 14  1  6  0  0  0
 13 21  1  0  0  0  0
 15 13  1  0  0  0  0
 16 15  1  0  0  0  0
 16 18  1  0  0  0  0
 16 17  1  1  0  0  0
 18  2  1  1  0  0  0
 18 19  1  0  0  0  0
 19 21  1  0  0  0  0
 19 20  1  6  0  0  0
 21 22  1  6  0  0  0
 23 20  1  1  0  0  0
 23 29  1  0  0  0  0
 23 24  1  0  0  0  0
 24 26  1  0  0  0  0
 24 25  1  6  0  0  0
 26 27  1  6  0  0  0
 28 26  1  0  0  0  0
 28 30  1  1  0  0  0
 29 28  1  0  0  0  0
 30 31  1  0  0  0  0
 32 27  1  6  0  0  0
 32 40  1  0  0  0  0
 32 33  1  0  0  0  0
 33 35  1  0  0  0  0
 33 34  1  6  0  0  0
 35 37  1  0  0  0  0
 35 36  1  6  0  0  0
 37 38  1  6  0  0  0
 39 37  1  0  0  0  0
 39 41  1  6  0  0  0
 40 39  1  0  0  0  0
 42 41  1  0  0  0  0
M  END
>  <CHROM.1>
-147.62228945,-166.42191444,-56.93171082,61.52412355,-57.67579362,-57.64430585
-66.50918693,73.52987476,58.08518762,178.08531780,177.70612684,62.76082730
-50.53993180,91.36684758,-166.00585479,-126.73224832,-57.37353095,62.33725294
178.89700875,-175.18841373,-45.96510054,70.63349769,-1.53336421,2.34320857
4.17809765,-0.76739128,1.03202146,2.92520845

>  <Name>
lig.pdb

>  <RI>
3.99633e+07

>  <Rbt.Current_Directory>
/home/itssahil/PROJECTS/Mol_Feturizer/New_Systems/rnas/2mxs

>  <Rbt.Executable>
rbdock ($Id: //depot/dev/client3/rdock/2013.1/src/exe/rbdock.cxx#4 $)

>  <Rbt.Library>
libRbt.so (2013.1, Build901 2013/11/27)

>  <Rbt.Parameter_File>
/export/apps/rDock/src/rDock_2013.1_src/data/scripts/dock_solv.prm

>  <Rbt.Receptor>
prm/pocket_docking_5.prm

>  <SCORE>
-34.5706

>  <SCORE.INTER>
-27.9715

>  <SCORE.INTER.CONST>
1

>  <SCORE.INTER.POLAR>
-3.64662

>  <SCORE.INTER.ROT>
9

>  <SCORE.INTER.SOLV>
15.3887

>  <SCORE.INTER.VDW>
-21.2218

>  <SCORE.INTER.norm>
-0.665988

>  <SCORE.INTRA>
-6.5991

>  <SCORE.INTRA.DIHEDRAL>
-12.4162

>  <SCORE.INTRA.DIHEDRAL.0>
30.1357

>  <SCORE.INTRA.POLAR>
-1.11902

>  <SCORE.INTRA.POLAR.0>
-0.631696

>  <SCORE.INTRA.REPUL>
0

>  <SCORE.INTRA.REPUL.0>
0

>  <SCORE.INTRA.SOLV>
1.2758

>  <SCORE.INTRA.SOLV.lig_0>
-55.904

>  <SCORE.INTRA.VDW>
2.77574

>  <SCORE.INTRA.VDW.0>
-8.21197

>  <SCORE.INTRA.norm>
-0.157122

>  <SCORE.RESTR>
0

>  <SCORE.RESTR.CAVITY>
0

>  <SCORE.RESTR.norm>
0

>  <SCORE.SYSTEM>
0

>  <SCORE.SYSTEM.CONST>
0

>  <SCORE.SYSTEM.DIHEDRAL>
0

>  <SCORE.SYSTEM.SOLV>
0

>  <SCORE.SYSTEM.norm>
0

>  <SCORE.heavy>
42

>  <SCORE.norm>
-0.82311

>  <RMSD>
8.265

$$$$
lig.pdb
 OpenBabel11021811453D
libRbt.so/2013.1/901 2013/11/27
 42 45  0  0  0  0  0  0  0  0999 V2000
   -2.1512    4.6153    3.2555 C   0  0  2  0  0  0  0  0  0  0  0  0
   -2.4112    5.6272    2.2808 O   0  0  0  0  0  0  0  0  0  0  0  0
   -3.4598    4.1072    3.8792 C   0  0  2  0  0  0  0  0  0  0  0  0
   -4.3979    3.6467    2.8388 N   0  0  0  0  0  0  0  0  0  0  0  0
   -4.1024    5.1842    4.7627 C   0  0  1  0  0  0  0  0  0  0  0  0
   -5.2171    4.6339    5.4382 O   0  0  0  0  0  0  0  0  0  0  0  0
   -3.0877    5.7023    5.7931 C   0  0  2  0  0  0  0  0  0  0  0  0
   -3.6463    6.7996    6.4898 O   0  0  0  0  0  0  0  0  0  0  0  0
   -1.7666    6.1282    5.1212 C   0  0  2  0  0  0  0  0  0  0  0  0
   -1.2690    5.1010    4.2642 O   0  0  0  0  0  0  0  0  0  0  0  0
   -0.7389    6.4241    6.2300 C   0  0  0  0  0  0  0  0  0  0  0  0
    0.3309    7.2915    5.7681 O   0  0  0  0  0  0  0  0  0  0  0  0
    0.1660    7.8052   -0.3922 C   0  0  2  0  0  0  0  0  0  0  0  0
    1.4946    8.1899   -0.9090 N   0  0  0  0  0  0  0  0  0  0  0  0
    0.0365    8.1925    1.0831 C   0  0  0  0  0  0  0  0  0  0  0  0
   -1.2749    7.6739    1.6612 C   0  0  2  0  0  0  0  0  0  0  0  0
   -1.4351    8.1334    3.0464 N   0  0  0  0  0  0  0  0  0  0  0  0
   -1.2784    6.1309    1.5581 C   0  0  2  0  0  0  0  0  0  0  0  0
   -1.3141    5.7531    0.1119 C   0  0  2  0  0  0  0  0  0  0  0  0
   -1.3591    4.3398    0.0411 O   0  0  0  0  0  0  0  0  0  0  0  0
   -0.0837    6.2981   -0.5884 C   0  0  1  0  0  0  0  0  0  0  0  0
   -0.1068    6.0415   -1.9800 O   0  0  0  0  0  0  0  0  0  0  0  0
   -0.9674    3.7244   -1.1815 C   0  0  1  0  0  0  0  0  0  0  0  0
    0.5543    3.5653   -1.1583 C   0  0  2  0  0  0  0  0  0  0  0  0
    1.0656    3.7627   -2.4631 O   0  0  0  0  0  0  0  0  0  0  0  0
    0.7285    2.1239   -0.6610 C   0  0  2  0  0  0  0  0  0  0  0  0
    2.0007    1.5714   -1.0003 O   0  0  0  0  0  0  0  0  0  0  0  0
   -0.4680    1.4581   -1.3517 C   0  0  2  0  0  0  0  0  0  0  0  0
   -1.5146    2.4139   -1.2540 O   0  0  0  0  0  0  0  0  0  0  0  0
   -0.9271    0.1487   -0.6995 C   0  0  0  0  0  0  0  0  0  0  0  0
   -0.7174   -0.9578   -1.5509 O   0  0  0  0  0  0  0  0  0  0  0  0
    3.0497    1.8907   -0.0884 C   0  0  2  0  0  0  0  0  0  0  0  0
    4.4301    1.5285   -0.6571 C   0  0  2  0  0  0  0  0  0  0  0  0
    4.6450    2.1692   -1.9653 N   0  0  0  0  0  0  0  0  0  0  0  0
    4.6133    0.0056   -0.7399 C   0  0  1  0  0  0  0  0  0  0  0  0
    5.9274   -0.2675   -1.1865 O   0  0  0  0  0  0  0  0  0  0  0  0
    4.3957   -0.5874    0.6626 C   0  0  2  0  0  0  0  0  0  0  0  0
    4.5112   -1.9981    0.6338 O   0  0  0  0  0  0  0  0  0  0  0  0
    3.0241   -0.1704    1.2323 C   0  0  1  0  0  0  0  0  0  0  0  0
    2.8383    1.2453    1.1653 O   0  0  0  0  0  0  0  0  0  0  0  0
    1.8475   -0.9337    0.6065 C   0  0  0  0  0  0  0  0  0  0  0  0
    2.3146   -2.0815   -0.1876 N   0  0  0  0  0  0  0  0  0  0  0  0
  1  3  1  0  0  0  0
  1  2  1  6  0  0  0
  3  4  1  6  0  0  0
  5  6  1  1  0  0  0
  5  3  1  0  0  0  0
  7  9  1  0  0  0  0
  7  5  1  0  0  0  0
  7  8  1  6  0  0  0
  9 10  1  0  0  0  0
  9 11  1  1  0  0  0
 10  1  1  0  0  0  0
 11 12  1  0  0  0  0
 13 14  1  1  0  0  0
 13 21  1  0  0  0  0
 15 13  1  0  0  0  0
 16 15  1  0  0  0  0
 16 18  1  0  0  0  0
 16 17  1  1  0  0  0
 18  2  1  1  0  0  0
 18 19  1  0  0  0  0
 19 21  1  0  0  0  0
 19 20  1  1  0  0  0
 21 22  1  6  0  0  0
 23 20  1  1  0  0  0
 23 29  1  0  0  0  0
 23 24  1  0  0  0  0
 24 26  1  0  0  0  0
 24 25  1  6  0  0  0
 26 27  1  6  0  0  0
 28 26  1  0  0  0  0
 28 30  1  1  0  0  0
 29 28  1  0  0  0  0
 30 31  1  0  0  0  0
 32 27  1  6  0  0  0
 32 40  1  0  0  0  0
 32 33  1  0  0  0  0
 33 35  1  0  0  0  0
 33 34  1  6  0  0  0
 35 37  1  0  0  0  0
 35 36  1  1  0  0  0
 37 38  1  6  0  0  0
 39 37  1  0  0  0  0
 39 41  1  6  0  0  0
 40 39  1  0  0  0  0
 42 41  1  0  0  0  0
M  END
>  <CHROM.1>
-127.68264979,-176.19686809,-178.56755813,-153.83135165,-43.09133250,63.02673945
-158.16180461,-68.00936499,175.98280578,-160.00532661,85.18098939,-105.15323640
74.00165918,84.44728303,-167.81540931,-113.96078800,80.21787714,-170.36605379
-60.40635907,-160.08128152,11.89537785,-171.63484962,0.11102256,3.61388095
1.12841198,2.71238564,0.87262759,-0.37864783

>  <Name>
lig.pdb

>  <RI>
0

>  <Rbt.Current_Directory>
/home/itssahil/PROJECTS/Mol_Feturizer/New_Systems/rnas/2mxs

>  <Rbt.Executable>
rbdock ($Id: //depot/dev/client3/rdock/2013.1/src/exe/rbdock.cxx#4 $)

>  <Rbt.Library>
libRbt.so (2013.1, Build901 2013/11/27)

>  <Rbt.Parameter_File>
/export/apps/rDock/src/rDock_2013.1_src/data/scripts/dock_solv.prm

>  <Rbt.Receptor>
prm/blind_docking_60.prm

>  <SCORE>
118.292

>  <SCORE.INTER>
70.9046

>  <SCORE.INTER.CONST>
1

>  <SCORE.INTER.POLAR>
-3.40296

>  <SCORE.INTER.ROT>
9

>  <SCORE.INTER.SOLV>
35.5526

>  <SCORE.INTER.VDW>
37.1621

>  <SCORE.INTER.norm>
1.6882

>  <SCORE.INTRA>
18.9597

>  <SCORE.INTRA.DIHEDRAL>
11.7886

>  <SCORE.INTRA.DIHEDRAL.0>
30.1357

>  <SCORE.INTRA.POLAR>
0.0232648

>  <SCORE.INTRA.POLAR.0>
-0.631696

>  <SCORE.INTRA.REPUL>
0.00158051

>  <SCORE.INTRA.REPUL.0>
0

>  <SCORE.INTRA.SOLV>
1.81012

>  <SCORE.INTRA.SOLV.lig_0>
-55.904

>  <SCORE.INTRA.VDW>
12.0733

>  <SCORE.INTRA.VDW.0>
-8.21197

>  <SCORE.INTRA.norm>
0.451421

>  <SCORE.RESTR>
28.4281

>  <SCORE.RESTR.CAVITY>
28.4281

>  <SCORE.RESTR.norm>
0.67686

>  <SCORE.SYSTEM>
0

>  <SCORE.SYSTEM.CONST>
0

>  <SCORE.SYSTEM.DIHEDRAL>
0

>  <SCORE.SYSTEM.SOLV>
0

>  <SCORE.SYSTEM.norm>
0

>  <SCORE.heavy>
42

>  <SCORE.norm>
2.81649

>  <RMSD>
8.276

$$$$
lig.pdb
 OpenBabel11021811453D
libRbt.so/2013.1/901 2013/11/27
 42 45  0  0  0  0  0  0  0  0999 V2000
   -0.1112    3.3104    6.2323 C   0  0  2  0  0  0  0  0  0  0  0  0
    0.2072    1.9591    6.5699 O   0  0  0  0  0  0  0  0  0  0  0  0
    0.6963    4.2941    7.0925 C   0  0  2  0  0  0  0  0  0  0  0  0
    2.1421    4.0231    6.9901 N   0  0  0  0  0  0  0  0  0  0  0  0
    0.2310    4.2567    8.5539 C   0  0  1  0  0  0  0  0  0  0  0  0
    0.8864    5.2777    9.2817 O   0  0  0  0  0  0  0  0  0  0  0  0
   -1.2882    4.4693    8.6343 C   0  0  2  0  0  0  0  0  0  0  0  0
   -1.7186    4.2744    9.9678 O   0  0  0  0  0  0  0  0  0  0  0  0
   -2.0444    3.5073    7.6957 C   0  0  2  0  0  0  0  0  0  0  0  0
   -1.5093    3.5498    6.3732 O   0  0  0  0  0  0  0  0  0  0  0  0
   -3.5261    3.9280    7.6712 C   0  0  0  0  0  0  0  0  0  0  0  0
   -4.3301    3.0536    6.8350 O   0  0  0  0  0  0  0  0  0  0  0  0
   -1.3443   -1.8007    5.1598 C   0  0  2  0  0  0  0  0  0  0  0  0
   -2.3812   -2.6329    4.5177 N   0  0  0  0  0  0  0  0  0  0  0  0
   -1.9049   -1.1266    6.4146 C   0  0  0  0  0  0  0  0  0  0  0  0
   -0.8869   -0.1573    7.0037 C   0  0  2  0  0  0  0  0  0  0  0  0
   -1.3944    0.4097    8.2594 N   0  0  0  0  0  0  0  0  0  0  0  0
   -0.5884    0.9368    5.9524 C   0  0  2  0  0  0  0  0  0  0  0  0
    0.1064    0.3007    4.7912 C   0  0  2  0  0  0  0  0  0  0  0  0
    0.4073    1.3247    3.8609 O   0  0  0  0  0  0  0  0  0  0  0  0
   -0.7927   -0.7537    4.1739 C   0  0  1  0  0  0  0  0  0  0  0  0
   -0.1518   -1.4480    3.1202 O   0  0  0  0  0  0  0  0  0  0  0  0
   -0.6715    2.1158    3.3737 C   0  0  1  0  0  0  0  0  0  0  0  0
   -0.0792    3.3841    2.7556 C   0  0  2  0  0  0  0  0  0  0  0  0
   -0.9444    4.4754    3.0073 O   0  0  0  0  0  0  0  0  0  0  0  0
    0.0035    3.0191    1.2673 C   0  0  2  0  0  0  0  0  0  0  0  0
    0.0660    4.1660    0.4191 O   0  0  0  0  0  0  0  0  0  0  0  0
   -1.2745    2.1830    1.1273 C   0  0  2  0  0  0  0  0  0  0  0  0
   -1.3375    1.4227    2.3257 O   0  0  0  0  0  0  0  0  0  0  0  0
   -1.2767    1.2259   -0.0704 C   0  0  0  0  0  0  0  0  0  0  0  0
   -1.1096    1.9179   -1.2895 O   0  0  0  0  0  0  0  0  0  0  0  0
    1.0367    5.1376    0.8036 C   0  0  2  0  0  0  0  0  0  0  0  0
    0.5916    6.5629    0.4424 C   0  0  2  0  0  0  0  0  0  0  0  0
   -0.7273    6.8654    1.0231 N   0  0  0  0  0  0  0  0  0  0  0  0
    0.5989    6.7773   -1.0786 C   0  0  1  0  0  0  0  0  0  0  0  0
    0.2659    8.1257   -1.3462 O   0  0  0  0  0  0  0  0  0  0  0  0
    2.0090    6.4641   -1.6071 C   0  0  2  0  0  0  0  0  0  0  0  0
    2.0595    6.6050   -3.0149 O   0  0  0  0  0  0  0  0  0  0  0  0
    2.4531    5.0466   -1.1910 C   0  0  1  0  0  0  0  0  0  0  0  0
    2.3018    4.8427    0.2157 O   0  0  0  0  0  0  0  0  0  0  0  0
    1.7801    3.9336   -2.0077 C   0  0  0  0  0  0  0  0  0  0  0  0
    2.1619    2.6006   -1.5139 N   0  0  0  0  0  0  0  0  0  0  0  0
  1  3  1  0  0  0  0
  1  2  1  1  0  0  0
  3  4  1  1  0  0  0
  5  6  1  1  0  0  0
  5  3  1  0  0  0  0
  7  9  1  0  0  0  0
  7  5  1  0  0  0  0
  7  8  1  1  0  0  0
  9 10  1  0  0  0  0
  9 11  1  6  0  0  0
 10  1  1  0  0  0  0
 11 12  1  0  0  0  0
 13 14  1  6  0  0  0
 13 21  1  0  0  0  0
 15 13  1  0  0  0  0
 16 15  1  0  0  0  0
 16 18  1  0  0  0  0
 16 17  1  1  0  0  0
 18  2  1  1  0  0  0
 18 19  1  0  0  0  0
 19 21  1  0  0  0  0
 19 20  1  6  0  0  0
 21 22  1  6  0  0  0
 23 20  1  6  0  0  0
 23 29  1  0  0  0  0
 23 24  1  0  0  0  0
 24 26  1  0  0  0  0
 24 25  1  6  0  0  0
 26 27  1  6  0  0  0
 28 26  1  0  0  0  0
 28 30  1  6  0  0  0
 29 28  1  0  0  0  0
 30 31  1  0  0  0  0
 32 27  1  6  0  0  0
 32 40  1  0  0  0  0
 32 33  1  0  0  0  0
 33 35  1  0  0  0  0
 33 34  1  6  0  0  0
 35 37  1  0  0  0  0
 35 36  1  1  0  0  0
 37 38  1  6  0  0  0
 39 37  1  0  0  0  0
 39 41  1  6  0  0  0
 40 39  1  0  0  0  0
 42 41  1  0  0  0  0
M  END
>  <CHROM.1>
-139.46745232,172.94147256,80.91968469,-70.51135982,56.46425934,179.80702517
-178.52329422,-37.89564649,57.88180376,-56.71586788,162.77710809,-54.92594233
61.75260211,49.13111703,-148.21245601,-58.76250053,-54.10455645,13.35716439
-70.44978480,-54.53811780,-176.02554733,-57.91875633,-0.28311069,3.05612988
3.53514650,-2.63396708,-1.29370932,-2.25153544

>  <Name>
lig.pdb

>  <RI>
3.99633e+07

>  <Rbt.Current_Directory>
/home/itssahil/PROJECTS/Mol_Feturizer/New_Systems/rnas/2mxs

>  <Rbt.Executable>
rbdock ($Id: //depot/dev/client3/rdock/2013.1/src/exe/rbdock.cxx#4 $)

>  <Rbt.Library>
libRbt.so (2013.1, Build901 2013/11/27)

>  <Rbt.Parameter_File>
/export/apps/rDock/src/rDock_2013.1_src/data/scripts/dock_solv.prm

>  <Rbt.Receptor>
prm/pocket_docking_5.prm

>  <SCORE>
-39.2253

>  <SCORE.INTER>
-35.7955

>  <SCORE.INTER.CONST>
1

>  <SCORE.INTER.POLAR>
-5.32449

>  <SCORE.INTER.ROT>
9

>  <SCORE.INTER.SOLV>
16.4169

>  <SCORE.INTER.VDW>
-21.1877

>  <SCORE.INTER.norm>
-0.852275

>  <SCORE.INTRA>
-3.43731

>  <SCORE.INTRA.DIHEDRAL>
-10.8926

>  <SCORE.INTRA.DIHEDRAL.0>
30.1357

>  <SCORE.INTRA.POLAR>
-0.424922

>  <SCORE.INTRA.POLAR.0>
-0.631696

>  <SCORE.INTRA.REPUL>
0

>  <SCORE.INTRA.REPUL.0>
0

>  <SCORE.INTRA.SOLV>
0.727995

>  <SCORE.INTRA.SOLV.lig_0>
-55.904

>  <SCORE.INTRA.VDW>
3.08971

>  <SCORE.INTRA.VDW.0>
-8.21197

>  <SCORE.INTRA.norm>
-0.0818407

>  <SCORE.RESTR>
0.00759286

>  <SCORE.RESTR.CAVITY>
0.00759286

>  <SCORE.RESTR.norm>
0.000180782

>  <SCORE.SYSTEM>
0

>  <SCORE.SYSTEM.CONST>
0

>  <SCORE.SYSTEM.DIHEDRAL>
0

>  <SCORE.SYSTEM.SOLV>
0

>  <SCORE.SYSTEM.norm>
0

>  <SCORE.heavy>
42

>  <SCORE.norm>
-0.933935

>  <RMSD>
8.291

$$$$
lig.pdb
 OpenBabel11021811453D
libRbt.so/2013.1/901 2013/11/27
 42 45  0  0  0  0  0  0  0  0999 V2000
   -3.2772    4.8097    3.3030 C   0  0  2  0  0  0  0  0  0  0  0  0
   -2.9709    6.1488    2.9099 O   0  0  0  0  0  0  0  0  0  0  0  0
   -4.4263    4.7879    4.3222 C   0  0  2  0  0  0  0  0  0  0  0  0
   -5.6095    5.4969    3.8009 N   0  0  0  0  0  0  0  0  0  0  0  0
   -3.9799    5.3760    5.6669 C   0  0  1  0  0  0  0  0  0  0  0  0
   -5.0094    5.2006    6.6213 O   0  0  0  0  0  0  0  0  0  0  0  0
   -2.7053    4.6732    6.1583 C   0  0  2  0  0  0  0  0  0  0  0  0
   -2.2225    5.3323    7.3132 O   0  0  0  0  0  0  0  0  0  0  0  0
   -1.6125    4.6584    5.0703 C   0  0  2  0  0  0  0  0  0  0  0  0
   -2.1229    4.1628    3.8329 O   0  0  0  0  0  0  0  0  0  0  0  0
   -0.4634    3.7556    5.5580 C   0  0  0  0  0  0  0  0  0  0  0  0
    0.2333    4.3241    6.6990 O   0  0  0  0  0  0  0  0  0  0  0  0
   -0.4356    7.3913   -0.3396 C   0  0  2  0  0  0  0  0  0  0  0  0
    0.8579    7.4352   -1.0502 N   0  0  0  0  0  0  0  0  0  0  0  0
   -0.2952    7.9982    1.0587 C   0  0  0  0  0  0  0  0  0  0  0  0
   -1.5873    7.8295    1.8493 C   0  0  2  0  0  0  0  0  0  0  0  0
   -1.4763    8.5000    3.1509 N   0  0  0  0  0  0  0  0  0  0  0  0
   -1.8752    6.3175    1.9988 C   0  0  2  0  0  0  0  0  0  0  0  0
   -2.1711    5.7559    0.6451 C   0  0  2  0  0  0  0  0  0  0  0  0
   -2.4724    4.3823    0.8095 O   0  0  0  0  0  0  0  0  0  0  0  0
   -0.9699    5.9488   -0.2611 C   0  0  1  0  0  0  0  0  0  0  0  0
   -1.2249    5.5100   -1.5823 O   0  0  0  0  0  0  0  0  0  0  0  0
   -1.3947    3.4966    1.0943 C   0  0  1  0  0  0  0  0  0  0  0  0
   -1.9924    2.1706    1.5695 C   0  0  2  0  0  0  0  0  0  0  0  0
   -1.1608    1.6143    2.5704 O   0  0  0  0  0  0  0  0  0  0  0  0
   -2.0146    1.3373    0.2810 C   0  0  2  0  0  0  0  0  0  0  0  0
   -2.0722   -0.0672    0.5314 O   0  0  0  0  0  0  0  0  0  0  0  0
   -0.7144    1.8226   -0.3717 C   0  0  2  0  0  0  0  0  0  0  0  0
   -0.6771    3.2168   -0.1010 O   0  0  0  0  0  0  0  0  0  0  0  0
   -0.6490    1.6079   -1.8883 C   0  0  0  0  0  0  0  0  0  0  0  0
   -0.4587    0.2473   -2.2132 O   0  0  0  0  0  0  0  0  0  0  0  0
   -2.4434   -0.8573   -0.5965 C   0  0  2  0  0  0  0  0  0  0  0  0
   -3.9631   -1.0703   -0.6687 C   0  0  2  0  0  0  0  0  0  0  0  0
   -4.6760    0.2180   -0.6600 N   0  0  0  0  0  0  0  0  0  0  0  0
   -4.4484   -1.9893    0.4624 C   0  0  1  0  0  0  0  0  0  0  0  0
   -5.8342   -2.2182    0.2950 O   0  0  0  0  0  0  0  0  0  0  0  0
   -3.6771   -3.3171    0.3750 C   0  0  2  0  0  0  0  0  0  0  0  0
   -4.0569   -4.1876    1.4250 O   0  0  0  0  0  0  0  0  0  0  0  0
   -2.1539   -3.0743    0.4006 C   0  0  1  0  0  0  0  0  0  0  0  0
   -1.7614   -2.1093   -0.5782 O   0  0  0  0  0  0  0  0  0  0  0  0
   -1.6163   -2.7267    1.7967 C   0  0  0  0  0  0  0  0  0  0  0  0
   -1.6763   -3.8881    2.6988 N   0  0  0  0  0  0  0  0  0  0  0  0
  1  3  1  0  0  0  0
  1  2  1  1  0  0  0
  3  4  1  6  0  0  0
  5  6  1  1  0  0  0
  5  3  1  0  0  0  0
  7  9  1  0  0  0  0
  7  5  1  0  0  0  0
  7  8  1  1  0  0  0
  9 10  1  0  0  0  0
  9 11  1  1  0  0  0
 10  1  1  0  0  0  0
 11 12  1  0  0  0  0
 13 14  1  1  0  0  0
 13 21  1  0  0  0  0
 15 13  1  0  0  0  0
 16 15  1  0  0  0  0
 16 18  1  0  0  0  0
 16 17  1  1  0  0  0
 18  2  1  1  0  0  0
 18 19  1  0  0  0  0
 19 21  1  0  0  0  0
 19 20  1  1  0  0  0
 21 22  1  6  0  0  0
 23 20  1  6  0  0  0
 23 29  1  0  0  0  0
 23 24  1  0  0  0  0
 24 26  1  0  0  0  0
 24 25  1  1  0  0  0
 26 27  1  1  0  0  0
 28 26  1  0  0  0  0
 28 30  1  6  0  0  0
 29 28  1  0  0  0  0
 30 31  1  0  0  0  0
 32 27  1  1  0  0  0
 32 40  1  0  0  0  0
 32 33  1  0  0  0  0
 33 35  1  0  0  0  0
 33 34  1  1  0  0  0
 35 37  1  0  0  0  0
 35 36  1  6  0  0  0
 37 38  1  1  0  0  0
 39 37  1  0  0  0  0
 39 41  1  1  0  0  0
 40 39  1  0  0  0  0
 42 41  1  0  0  0  0
M  END
>  <CHROM.1>
-172.51448828,177.52410537,-41.80322464,-176.71191189,-61.44670244,-172.90379765
-67.61041522,76.57864852,173.87924483,-73.64525776,166.01132376,174.98790229
57.08803855,164.37834221,-90.90004814,-73.19588833,-174.99450640,44.57086801
-177.75844525,67.02711243,69.55210586,-53.02246109,-2.22767492,2.74415922
1.78774960,1.27738255,1.17700347,0.62075956

>  <Name>
lig.pdb

>  <RI>
0

>  <Rbt.Current_Directory>
/home/itssahil/PROJECTS/Mol_Feturizer/New_Systems/rnas/2mxs

>  <Rbt.Executable>
rbdock ($Id: //depot/dev/client3/rdock/2013.1/src/exe/rbdock.cxx#4 $)

>  <Rbt.Library>
libRbt.so (2013.1, Build901 2013/11/27)

>  <Rbt.Parameter_File>
/export/apps/rDock/src/rDock_2013.1_src/data/scripts/dock_solv.prm

>  <Rbt.Receptor>
prm/pocket_docking_6.prm

>  <SCORE>
-45.9842

>  <SCORE.INTER>
-37.7258

>  <SCORE.INTER.CONST>
1

>  <SCORE.INTER.POLAR>
-6.56937

>  <SCORE.INTER.ROT>
9

>  <SCORE.INTER.SOLV>
24.7704

>  <SCORE.INTER.VDW>
-21.1094

>  <SCORE.INTER.norm>
-0.898234

>  <SCORE.INTRA>
-8.36303

>  <SCORE.INTRA.DIHEDRAL>
-18.2427

>  <SCORE.INTRA.DIHEDRAL.0>
30.1357

>  <SCORE.INTRA.POLAR>
-1.0284

>  <SCORE.INTRA.POLAR.0>
-0.631696

>  <SCORE.INTRA.REPUL>
0

>  <SCORE.INTRA.REPUL.0>
0

>  <SCORE.INTRA.SOLV>
1.23428

>  <SCORE.INTRA.SOLV.lig_0>
-55.904

>  <SCORE.INTRA.VDW>
3.63774

>  <SCORE.INTRA.VDW.0>
-8.21197

>  <SCORE.INTRA.norm>
-0.19912

>  <SCORE.RESTR>
0.104663

>  <SCORE.RESTR.CAVITY>
0.104663

>  <SCORE.RESTR.norm>
0.00249197

>  <SCORE.SYSTEM>
0

>  <SCORE.SYSTEM.CONST>
0

>  <SCORE.SYSTEM.DIHEDRAL>
0

>  <SCORE.SYSTEM.SOLV>
0

>  <SCORE.SYSTEM.norm>
0

>  <SCORE.heavy>
42

>  <SCORE.norm>
-1.09486

>  <RMSD>
8.301

$$$$
lig.pdb
 OpenBabel11021811453D
libRbt.so/2013.1/901 2013/11/27
 42 45  0  0  0  0  0  0  0  0999 V2000
   -0.4780    1.0111    5.7905 C   0  0  2  0  0  0  0  0  0  0  0  0
   -0.5292   -0.4046    5.6048 O   0  0  0  0  0  0  0  0  0  0  0  0
    0.8234    1.4239    6.4945 C   0  0  2  0  0  0  0  0  0  0  0  0
    2.0019    0.9172    5.7674 N   0  0  0  0  0  0  0  0  0  0  0  0
    0.8322    0.9525    7.9544 C   0  0  1  0  0  0  0  0  0  0  0  0
    1.9695    1.4789    8.6110 O   0  0  0  0  0  0  0  0  0  0  0  0
   -0.4377    1.4294    8.6753 C   0  0  2  0  0  0  0  0  0  0  0  0
   -0.4871    0.8544    9.9670 O   0  0  0  0  0  0  0  0  0  0  0  0
   -1.7096    1.0543    7.8878 C   0  0  2  0  0  0  0  0  0  0  0  0
   -1.6124    1.4652    6.5245 O   0  0  0  0  0  0  0  0  0  0  0  0
   -2.9099    1.7506    8.5569 C   0  0  0  0  0  0  0  0  0  0  0  0
   -3.1632    1.2414    9.8937 O   0  0  0  0  0  0  0  0  0  0  0  0
   -2.8893   -2.9028    3.0125 C   0  0  2  0  0  0  0  0  0  0  0  0
   -3.9815   -3.1249    2.0439 N   0  0  0  0  0  0  0  0  0  0  0  0
   -3.4499   -2.3691    4.3331 C   0  0  0  0  0  0  0  0  0  0  0  0
   -2.3193   -2.0045    5.2879 C   0  0  2  0  0  0  0  0  0  0  0  0
   -2.8661   -1.5871    6.5851 N   0  0  0  0  0  0  0  0  0  0  0  0
   -1.4662   -0.8929    4.6337 C   0  0  2  0  0  0  0  0  0  0  0  0
   -0.7893   -1.4631    3.4286 C   0  0  2  0  0  0  0  0  0  0  0  0
    0.0177   -0.4428    2.8698 O   0  0  0  0  0  0  0  0  0  0  0  0
   -1.8321   -1.9421    2.4364 C   0  0  1  0  0  0  0  0  0  0  0  0
   -1.2464   -2.5689    1.3108 O   0  0  0  0  0  0  0  0  0  0  0  0
   -0.5822    0.8285    2.6446 C   0  0  1  0  0  0  0  0  0  0  0  0
    0.5417    1.8564    2.4979 C   0  0  2  0  0  0  0  0  0  0  0  0
    0.1330    3.0824    3.0747 O   0  0  0  0  0  0  0  0  0  0  0  0
    0.7151    1.9417    0.9755 C   0  0  2  0  0  0  0  0  0  0  0  0
    1.3474    3.1518    0.5575 O   0  0  0  0  0  0  0  0  0  0  0  0
   -0.7456    1.7918    0.5328 C   0  0  2  0  0  0  0  0  0  0  0  0
   -1.2862    0.8129    1.4092 O   0  0  0  0  0  0  0  0  0  0  0  0
   -0.9231    1.3171   -0.9141 C   0  0  0  0  0  0  0  0  0  0  0  0
   -2.2848    1.2749   -1.2843 O   0  0  0  0  0  0  0  0  0  0  0  0
    1.2511    3.4208   -0.8398 C   0  0  2  0  0  0  0  0  0  0  0  0
    2.4400    4.2529   -1.3440 C   0  0  2  0  0  0  0  0  0  0  0  0
    3.7175    3.6006   -1.0116 N   0  0  0  0  0  0  0  0  0  0  0  0
    2.3829    5.6880   -0.7992 C   0  0  1  0  0  0  0  0  0  0  0  0
    3.4487    6.4277   -1.3630 O   0  0  0  0  0  0  0  0  0  0  0  0
    1.0347    6.3083   -1.2033 C   0  0  2  0  0  0  0  0  0  0  0  0
    0.9122    7.6212   -0.6876 O   0  0  0  0  0  0  0  0  0  0  0  0
   -0.1419    5.4309   -0.7285 C   0  0  1  0  0  0  0  0  0  0  0  0
    0.0189    4.0719   -1.1415 O   0  0  0  0  0  0  0  0  0  0  0  0
   -0.4163    5.5439    0.7784 C   0  0  0  0  0  0  0  0  0  0  0  0
    0.8178    5.3736    1.5623 N   0  0  0  0  0  0  0  0  0  0  0  0
  1  3  1  0  0  0  0
  1  2  1  1  0  0  0
  3  4  1  6  0  0  0
  5  6  1  1  0  0  0
  5  3  1  0  0  0  0
  7  9  1  0  0  0  0
  7  5  1  0  0  0  0
  7  8  1  1  0  0  0
  9 10  1  0  0  0  0
  9 11  1  1  0  0  0
 10  1  1  0  0  0  0
 11 12  1  0  0  0  0
 13 14  1  6  0  0  0
 13 21  1  0  0  0  0
 15 13  1  0  0  0  0
 16 15  1  0  0  0  0
 16 18  1  0  0  0  0
 16 17  1  1  0  0  0
 18  2  1  1  0  0  0
 18 19  1  0  0  0  0
 19 21  1  0  0  0  0
 19 20  1  6  0  0  0
 21 22  1  6  0  0  0
 23 20  1  6  0  0  0
 23 29  1  0  0  0  0
 23 24  1  0  0  0  0
 24 26  1  0  0  0  0
 24 25  1  6  0  0  0
 26 27  1  1  0  0  0
 28 26  1  0  0  0  0
 28 30  1  6  0  0  0
 29 28  1  0  0  0  0
 30 31  1  0  0  0  0
 32 27  1  1  0  0  0
 32 40  1  0  0  0  0
 32 33  1  0  0  0  0
 33 35  1  0  0  0  0
 33 34  1  1  0  0  0
 35 37  1  0  0  0  0
 35 36  1  6  0  0  0
 37 38  1  1  0  0  0
 39 37  1  0  0  0  0
 39 41  1  1  0  0  0
 40 39  1  0  0  0  0
 42 41  1  0  0  0  0
M  END
>  <CHROM.1>
-129.08653585,-162.15040989,-72.99713861,-178.68320030,-59.36391798,174.65946363
-66.00403642,68.42198345,163.97461168,-49.83920357,161.34491913,-51.72972279
59.83778079,-166.05194686,-151.68387191,-176.52955896,61.59862362,-130.16515944
-70.29798293,-55.89130317,-49.60306900,-37.42847391,-0.32331924,1.62595460
3.12513612,-2.17852168,-1.03268283,-1.54047095

>  <Name>
lig.pdb

>  <RI>
0

>  <Rbt.Current_Directory>
/home/itssahil/PROJECTS/Mol_Feturizer/New_Systems/rnas/2mxs

>  <Rbt.Executable>
rbdock ($Id: //depot/dev/client3/rdock/2013.1/src/exe/rbdock.cxx#4 $)

>  <Rbt.Library>
libRbt.so (2013.1, Build901 2013/11/27)

>  <Rbt.Parameter_File>
/export/apps/rDock/src/rDock_2013.1_src/data/scripts/dock_solv.prm

>  <Rbt.Receptor>
prm/pocket_docking_7.prm

>  <SCORE>
-43.9369

>  <SCORE.INTER>
-44.528

>  <SCORE.INTER.CONST>
1

>  <SCORE.INTER.POLAR>
-5.15236

>  <SCORE.INTER.ROT>
9

>  <SCORE.INTER.SOLV>
20.1693

>  <SCORE.INTER.VDW>
-28.8339

>  <SCORE.INTER.norm>
-1.06019

>  <SCORE.INTRA>
0.59113

>  <SCORE.INTRA.DIHEDRAL>
-7.64412

>  <SCORE.INTRA.DIHEDRAL.0>
30.1357

>  <SCORE.INTRA.POLAR>
-0.645956

>  <SCORE.INTRA.POLAR.0>
-0.631696

>  <SCORE.INTRA.REPUL>
0.0116098

>  <SCORE.INTRA.REPUL.0>
0

>  <SCORE.INTRA.SOLV>
2.12477

>  <SCORE.INTRA.SOLV.lig_0>
-55.904

>  <SCORE.INTRA.VDW>
5.489

>  <SCORE.INTRA.VDW.0>
-8.21197

>  <SCORE.INTRA.norm>
0.0140745

>  <SCORE.RESTR>
0

>  <SCORE.RESTR.CAVITY>
0

>  <SCORE.RESTR.norm>
0

>  <SCORE.SYSTEM>
0

>  <SCORE.SYSTEM.CONST>
0

>  <SCORE.SYSTEM.DIHEDRAL>
0

>  <SCORE.SYSTEM.SOLV>
0

>  <SCORE.SYSTEM.norm>
0

>  <SCORE.heavy>
42

>  <SCORE.norm>
-1.04612

>  <RMSD>
8.306

$$$$
lig.pdb
 OpenBabel11021811453D
libRbt.so/2013.1/901 2013/11/27
 42 45  0  0  0  0  0  0  0  0999 V2000
   -2.0516    4.6193    6.7647 C   0  0  2  0  0  0  0  0  0  0  0  0
   -1.9920    5.9768    6.3231 O   0  0  0  0  0  0  0  0  0  0  0  0
   -2.5587    4.5366    8.2124 C   0  0  2  0  0  0  0  0  0  0  0  0
   -3.8547    5.2246    8.3591 N   0  0  0  0  0  0  0  0  0  0  0  0
   -1.5214    5.1011    9.1915 C   0  0  1  0  0  0  0  0  0  0  0  0
   -1.9538    4.8702   10.5186 O   0  0  0  0  0  0  0  0  0  0  0  0
   -0.1603    4.4228    8.9744 C   0  0  2  0  0  0  0  0  0  0  0  0
    0.8156    5.0644    9.7728 O   0  0  0  0  0  0  0  0  0  0  0  0
    0.2646    4.4690    7.4926 C   0  0  2  0  0  0  0  0  0  0  0  0
   -0.7774    3.9922    6.6419 O   0  0  0  0  0  0  0  0  0  0  0  0
    1.5169    3.5873    7.3258 C   0  0  0  0  0  0  0  0  0  0  0  0
    1.2182    2.1751    7.4896 O   0  0  0  0  0  0  0  0  0  0  0  0
   -1.4688    7.5056    2.3331 C   0  0  2  0  0  0  0  0  0  0  0  0
   -0.7818    7.5529    1.0269 N   0  0  0  0  0  0  0  0  0  0  0  0
   -0.4961    7.8652    3.4591 C   0  0  0  0  0  0  0  0  0  0  0  0
   -1.1583    7.6822    4.8195 C   0  0  2  0  0  0  0  0  0  0  0  0
   -0.2523    8.1224    5.8877 N   0  0  0  0  0  0  0  0  0  0  0  0
   -1.5570    6.1960    4.9733 C   0  0  2  0  0  0  0  0  0  0  0  0
   -2.6264    5.8870    3.9750 C   0  0  2  0  0  0  0  0  0  0  0  0
   -3.0057    4.5356    4.1606 O   0  0  0  0  0  0  0  0  0  0  0  0
   -2.0979    6.1202    2.5723 C   0  0  1  0  0  0  0  0  0  0  0  0
   -3.0961    5.9232    1.5886 O   0  0  0  0  0  0  0  0  0  0  0  0
   -4.1356    4.0588    3.4375 C   0  0  1  0  0  0  0  0  0  0  0  0
   -3.6206    3.2317    2.2576 C   0  0  2  0  0  0  0  0  0  0  0  0
   -4.4710    3.4261    1.1432 O   0  0  0  0  0  0  0  0  0  0  0  0
   -3.6760    1.8003    2.8080 C   0  0  2  0  0  0  0  0  0  0  0  0
   -3.7089    0.8122    1.7777 O   0  0  0  0  0  0  0  0  0  0  0  0
   -4.9513    1.8904    3.6551 C   0  0  2  0  0  0  0  0  0  0  0  0
   -4.8902    3.1756    4.2576 O   0  0  0  0  0  0  0  0  0  0  0  0
   -5.0563    0.8287    4.7561 C   0  0  0  0  0  0  0  0  0  0  0  0
   -6.3200    0.8547    5.3848 O   0  0  0  0  0  0  0  0  0  0  0  0
   -2.4815    0.6511    1.0694 C   0  0  2  0  0  0  0  0  0  0  0  0
   -2.5905   -0.4223   -0.0243 C   0  0  2  0  0  0  0  0  0  0  0  0
   -3.7033   -0.1271   -0.9423 N   0  0  0  0  0  0  0  0  0  0  0  0
   -2.7230   -1.8253    0.5871 C   0  0  1  0  0  0  0  0  0  0  0  0
   -2.7322   -2.7754   -0.4607 O   0  0  0  0  0  0  0  0  0  0  0  0
   -1.5188   -2.0680    1.5128 C   0  0  2  0  0  0  0  0  0  0  0  0
   -1.6143   -3.3348    2.1377 O   0  0  0  0  0  0  0  0  0  0  0  0
   -1.4018   -0.9523    2.5716 C   0  0  1  0  0  0  0  0  0  0  0  0
   -1.4193    0.3442    1.9697 O   0  0  0  0  0  0  0  0  0  0  0  0
   -2.4351   -1.0743    3.7013 C   0  0  0  0  0  0  0  0  0  0  0  0
   -2.2319   -2.3045    4.4832 N   0  0  0  0  0  0  0  0  0  0  0  0
  1  3  1  0  0  0  0
  1  2  1  1  0  0  0
  3  4  1  6  0  0  0
  5  6  1  1  0  0  0
  5  3  1  0  0  0  0
  7  9  1  0  0  0  0
  7  5  1  0  0  0  0
  7  8  1  1  0  0  0
  9 10  1  0  0  0  0
  9 11  1  1  0  0  0
 10  1  1  0  0  0  0
 11 12  1  0  0  0  0
 13 14  1  6  0  0  0
 13 21  1  0  0  0  0
 15 13  1  0  0  0  0
 16 15  1  0  0  0  0
 16 18  1  0  0  0  0
 16 17  1  1  0  0  0
 18  2  1  1  0  0  0
 18 19  1  0  0  0  0
 19 21  1  0  0  0  0
 19 20  1  6  0  0  0
 21 22  1  6  0  0  0
 23 20  1  1  0  0  0
 23 29  1  0  0  0  0
 23 24  1  0  0  0  0
 24 26  1  0  0  0  0
 24 25  1  6  0  0  0
 26 27  1  6  0  0  0
 28 26  1  0  0  0  0
 28 30  1  1  0  0  0
 29 28  1  0  0  0  0
 30 31  1  0  0  0  0
 32 27  1  1  0  0  0
 32 40  1  0  0  0  0
 32 33  1  0  0  0  0
 33 35  1  0  0  0  0
 33 34  1  1  0  0  0
 35 37  1  0  0  0  0
 35 36  1  6  0  0  0
 37 38  1  1  0  0  0
 39 37  1  0  0  0  0
 39 41  1  1  0  0  0
 40 39  1  0  0  0  0
 42 41  1  0  0  0  0
M  END
>  <CHROM.1>
-163.36148982,-178.83745002,67.09618011,62.78125071,-179.58687301,-52.50860671
69.29014206,100.17924623,42.13282877,172.00531539,102.50145583,65.05301454
-48.96107290,71.54215163,-179.82613300,-172.42144361,-59.71371362,-51.28148372
-178.27103530,79.96802642,64.07193964,72.36991727,-2.23036017,3.00517798
4.24785305,-0.63419424,1.30732529,2.93180391

>  <Name>
lig.pdb

>  <RI>
0

>  <Rbt.Current_Directory>
/home/itssahil/PROJECTS/Mol_Feturizer/New_Systems/rnas/2mxs

>  <Rbt.Executable>
rbdock ($Id: //depot/dev/client3/rdock/2013.1/src/exe/rbdock.cxx#4 $)

>  <Rbt.Library>
libRbt.so (2013.1, Build901 2013/11/27)

>  <Rbt.Parameter_File>
/export/apps/rDock/src/rDock_2013.1_src/data/scripts/dock_solv.prm

>  <Rbt.Receptor>
prm/pocket_docking_7.prm

>  <SCORE>
-33.3209

>  <SCORE.INTER>
-30.125

>  <SCORE.INTER.CONST>
1

>  <SCORE.INTER.POLAR>
-4.51123

>  <SCORE.INTER.ROT>
9

>  <SCORE.INTER.SOLV>
16.1334

>  <SCORE.INTER.VDW>
-20.0237

>  <SCORE.INTER.norm>
-0.717262

>  <SCORE.INTRA>
-3.19592

>  <SCORE.INTRA.DIHEDRAL>
-13.8962

>  <SCORE.INTRA.DIHEDRAL.0>
30.1357

>  <SCORE.INTRA.POLAR>
-0.131697

>  <SCORE.INTRA.POLAR.0>
-0.631696

>  <SCORE.INTRA.REPUL>
0

>  <SCORE.INTRA.REPUL.0>
0

>  <SCORE.INTRA.SOLV>
-0.479981

>  <SCORE.INTRA.SOLV.lig_0>
-55.904

>  <SCORE.INTRA.VDW>
4.43993

>  <SCORE.INTRA.VDW.0>
-8.21197

>  <SCORE.INTRA.norm>
-0.0760933

>  <SCORE.RESTR>
0

>  <SCORE.RESTR.CAVITY>
0

>  <SCORE.RESTR.norm>
0

>  <SCORE.SYSTEM>
0

>  <SCORE.SYSTEM.CONST>
0

>  <SCORE.SYSTEM.DIHEDRAL>
0

>  <SCORE.SYSTEM.SOLV>
0

>  <SCORE.SYSTEM.norm>
0

>  <SCORE.heavy>
42

>  <SCORE.norm>
-0.793356

>  <RMSD>
8.337

$$$$
lig.pdb
 OpenBabel11021811453D
libRbt.so/2013.1/901 2013/11/27
 42 45  0  0  0  0  0  0  0  0999 V2000
   -3.0242    3.3335    4.0251 C   0  0  2  0  0  0  0  0  0  0  0  0
   -2.9470    4.7421    3.7990 O   0  0  0  0  0  0  0  0  0  0  0  0
   -4.0863    3.0070    5.0858 C   0  0  2  0  0  0  0  0  0  0  0  0
   -5.3939    3.5821    4.7198 N   0  0  0  0  0  0  0  0  0  0  0  0
   -3.6427    3.4865    6.4740 C   0  0  1  0  0  0  0  0  0  0  0  0
   -4.5685    3.0361    7.4444 O   0  0  0  0  0  0  0  0  0  0  0  0
   -2.2480    2.9354    6.8067 C   0  0  2  0  0  0  0  0  0  0  0  0
   -1.7918    3.5136    8.0146 O   0  0  0  0  0  0  0  0  0  0  0  0
   -1.2406    3.2256    5.6757 C   0  0  2  0  0  0  0  0  0  0  0  0
   -1.7538    2.8136    4.4093 O   0  0  0  0  0  0  0  0  0  0  0  0
    0.0598    2.4595    5.9844 C   0  0  0  0  0  0  0  0  0  0  0  0
   -0.1068    1.0224    5.8530 O   0  0  0  0  0  0  0  0  0  0  0  0
   -0.6850    6.8514    0.8048 C   0  0  2  0  0  0  0  0  0  0  0  0
    0.5656    7.1628    0.0841 N   0  0  0  0  0  0  0  0  0  0  0  0
   -0.5366    7.1770    2.2931 C   0  0  0  0  0  0  0  0  0  0  0  0
   -1.7707    6.7281    3.0666 C   0  0  2  0  0  0  0  0  0  0  0  0
   -1.6617    7.1322    4.4739 N   0  0  0  0  0  0  0  0  0  0  0  0
   -1.9137    5.1960    2.9127 C   0  0  2  0  0  0  0  0  0  0  0  0
   -2.2189    4.8904    1.4813 C   0  0  2  0  0  0  0  0  0  0  0  0
   -2.3869    3.4889    1.3707 O   0  0  0  0  0  0  0  0  0  0  0  0
   -1.0826    5.3772    0.6021 C   0  0  1  0  0  0  0  0  0  0  0  0
   -1.3567    5.1888   -0.7736 O   0  0  0  0  0  0  0  0  0  0  0  0
   -1.2257    2.6717    1.4743 C   0  0  1  0  0  0  0  0  0  0  0  0
   -1.6616    1.3056    2.0081 C   0  0  2  0  0  0  0  0  0  0  0  0
   -0.6560    0.7944    2.8627 O   0  0  0  0  0  0  0  0  0  0  0  0
   -1.8254    0.4849    0.7218 C   0  0  2  0  0  0  0  0  0  0  0  0
   -1.7574   -0.9228    0.9511 O   0  0  0  0  0  0  0  0  0  0  0  0
   -0.6709    1.0590   -0.1086 C   0  0  2  0  0  0  0  0  0  0  0  0
   -0.6800    2.4500    0.1800 O   0  0  0  0  0  0  0  0  0  0  0  0
   -0.8211    0.8633   -1.6218 C   0  0  0  0  0  0  0  0  0  0  0  0
    0.2705    1.4135   -2.3281 O   0  0  0  0  0  0  0  0  0  0  0  0
   -2.7542   -1.4297    1.8362 C   0  0  2  0  0  0  0  0  0  0  0  0
   -2.6627   -2.9561    1.9846 C   0  0  2  0  0  0  0  0  0  0  0  0
   -1.3130   -3.3635    2.4093 N   0  0  0  0  0  0  0  0  0  0  0  0
   -3.0823   -3.6653    0.6882 C   0  0  1  0  0  0  0  0  0  0  0  0
   -3.0615   -5.0620    0.9105 O   0  0  0  0  0  0  0  0  0  0  0  0
   -4.5044   -3.2075    0.3219 C   0  0  2  0  0  0  0  0  0  0  0  0
   -4.9246   -3.8008   -0.8930 O   0  0  0  0  0  0  0  0  0  0  0  0
   -4.5827   -1.6699    0.2261 C   0  0  1  0  0  0  0  0  0  0  0  0
   -4.0557   -1.0451    1.3989 O   0  0  0  0  0  0  0  0  0  0  0  0
   -3.9523   -1.1069   -1.0563 C   0  0  0  0  0  0  0  0  0  0  0  0
   -4.5349    0.1970   -1.4123 N   0  0  0  0  0  0  0  0  0  0  0  0
  1  3  1  0  0  0  0
  1  2  1  1  0  0  0
  3  4  1  6  0  0  0
  5  6  1  1  0  0  0
  5  3  1  0  0  0  0
  7  9  1  0  0  0  0
  7  5  1  0  0  0  0
  7  8  1  1  0  0  0
  9 10  1  0  0  0  0
  9 11  1  1  0  0  0
 10  1  1  0  0  0  0
 11 12  1  0  0  0  0
 13 14  1  6  0  0  0
 13 21  1  0  0  0  0
 15 13  1  0  0  0  0
 16 15  1  0  0  0  0
 16 18  1  0  0  0  0
 16 17  1  1  0  0  0
 18  2  1  1  0  0  0
 18 19  1  0  0  0  0
 19 21  1  0  0  0  0
 19 20  1  1  0  0  0
 21 22  1  6  0  0  0
 23 20  1  6  0  0  0
 23 29  1  0  0  0  0
 23 24  1  0  0  0  0
 24 26  1  0  0  0  0
 24 25  1  1  0  0  0
 26 27  1  1  0  0  0
 28 26  1  0  0  0  0
 28 30  1  6  0  0  0
 29 28  1  0  0  0  0
 30 31  1  0  0  0  0
 32 27  1  6  0  0  0
 32 40  1  0  0  0  0
 32 33  1  0  0  0  0
 33 35  1  0  0  0  0
 33 34  1  6  0  0  0
 35 37  1  0  0  0  0
 35 36  1  1  0  0  0
 37 38  1  6  0  0  0
 39 37  1  0  0  0  0
 39 41  1  6  0  0  0
 40 39  1  0  0  0  0
 42 41  1  0  0  0  0
M  END
>  <CHROM.1>
-166.31476110,174.85479736,177.25325344,59.86124247,67.77243404,69.55560877
69.24529904,-146.93302704,-93.02688066,-72.10929595,152.58838169,-41.11621576
178.03278695,60.15825588,177.30475315,179.93979718,-62.76376022,-24.12874330
57.01080774,-56.91603033,154.82181119,-60.88566534,-2.19385779,1.87067418
2.26571329,1.03692797,1.24413633,0.95868301

>  <Name>
lig.pdb

>  <RI>
0

>  <Rbt.Current_Directory>
/home/itssahil/PROJECTS/Mol_Feturizer/New_Systems/rnas/2mxs

>  <Rbt.Executable>
rbdock ($Id: //depot/dev/client3/rdock/2013.1/src/exe/rbdock.cxx#4 $)

>  <Rbt.Library>
libRbt.so (2013.1, Build901 2013/11/27)

>  <Rbt.Parameter_File>
/export/apps/rDock/src/rDock_2013.1_src/data/scripts/dock_solv.prm

>  <Rbt.Receptor>
prm/pocket_docking_4.prm

>  <SCORE>
-32.4707

>  <SCORE.INTER>
-29.9335

>  <SCORE.INTER.CONST>
1

>  <SCORE.INTER.POLAR>
-4.39563

>  <SCORE.INTER.ROT>
9

>  <SCORE.INTER.SOLV>
17.5978

>  <SCORE.INTER.VDW>
-20.7695

>  <SCORE.INTER.norm>
-0.712702

>  <SCORE.INTRA>
-3.1597

>  <SCORE.INTRA.DIHEDRAL>
-13.2841

>  <SCORE.INTRA.DIHEDRAL.0>
30.1357

>  <SCORE.INTRA.POLAR>
-0.441957

>  <SCORE.INTRA.POLAR.0>
-0.631696

>  <SCORE.INTRA.REPUL>
0

>  <SCORE.INTRA.REPUL.0>
0

>  <SCORE.INTRA.SOLV>
0.309573

>  <SCORE.INTRA.SOLV.lig_0>
-55.904

>  <SCORE.INTRA.VDW>
4.83021

>  <SCORE.INTRA.VDW.0>
-8.21197

>  <SCORE.INTRA.norm>
-0.075231

>  <SCORE.RESTR>
0.62248

>  <SCORE.RESTR.CAVITY>
0.62248

>  <SCORE.RESTR.norm>
0.0148209

>  <SCORE.SYSTEM>
0

>  <SCORE.SYSTEM.CONST>
0

>  <SCORE.SYSTEM.DIHEDRAL>
0

>  <SCORE.SYSTEM.SOLV>
0

>  <SCORE.SYSTEM.norm>
0

>  <SCORE.heavy>
42

>  <SCORE.norm>
-0.773112

>  <RMSD>
8.341

$$$$
lig.pdb
 OpenBabel11021811453D
libRbt.so/2013.1/901 2013/11/27
 42 45  0  0  0  0  0  0  0  0999 V2000
   -2.2244    3.7943    5.2120 C   0  0  2  0  0  0  0  0  0  0  0  0
   -0.9832    4.1332    4.5906 O   0  0  0  0  0  0  0  0  0  0  0  0
   -2.6110    2.3397    4.9046 C   0  0  2  0  0  0  0  0  0  0  0  0
   -1.5291    1.4129    5.2854 N   0  0  0  0  0  0  0  0  0  0  0  0
   -2.9861    2.1710    3.4267 C   0  0  1  0  0  0  0  0  0  0  0  0
   -3.4809    0.8628    3.2141 O   0  0  0  0  0  0  0  0  0  0  0  0
   -4.0627    3.1929    3.0309 C   0  0  2  0  0  0  0  0  0  0  0  0
   -4.2796    3.1278    1.6344 O   0  0  0  0  0  0  0  0  0  0  0  0
   -3.6560    4.6260    3.4299 C   0  0  2  0  0  0  0  0  0  0  0  0
   -3.2560    4.6868    4.7986 O   0  0  0  0  0  0  0  0  0  0  0  0
   -4.8678    5.5491    3.2005 C   0  0  0  0  0  0  0  0  0  0  0  0
   -4.6852    6.4170    2.0500 O   0  0  0  0  0  0  0  0  0  0  0  0
    0.1758    7.6837    6.7310 C   0  0  2  0  0  0  0  0  0  0  0  0
    0.9861    8.9063    6.9007 N   0  0  0  0  0  0  0  0  0  0  0  0
    1.0792    6.4488    6.6860 C   0  0  0  0  0  0  0  0  0  0  0  0
    0.2653    5.1994    6.3706 C   0  0  2  0  0  0  0  0  0  0  0  0
    1.1223    4.0085    6.4266 N   0  0  0  0  0  0  0  0  0  0  0  0
   -0.3874    5.3791    4.9802 C   0  0  2  0  0  0  0  0  0  0  0  0
   -1.3898    6.4850    5.0672 C   0  0  2  0  0  0  0  0  0  0  0  0
   -2.0042    6.6049    3.7972 O   0  0  0  0  0  0  0  0  0  0  0  0
   -0.6947    7.7738    5.4635 C   0  0  1  0  0  0  0  0  0  0  0  0
   -1.6102    8.8381    5.6428 O   0  0  0  0  0  0  0  0  0  0  0  0
   -1.2160    7.1095    2.7244 C   0  0  1  0  0  0  0  0  0  0  0  0
    0.0562    6.2634    2.6405 C   0  0  2  0  0  0  0  0  0  0  0  0
    1.1435    7.0888    2.2673 O   0  0  0  0  0  0  0  0  0  0  0  0
   -0.3047    5.2295    1.5654 C   0  0  2  0  0  0  0  0  0  0  0  0
    0.8445    4.6348    0.9619 O   0  0  0  0  0  0  0  0  0  0  0  0
   -1.1454    6.1041    0.6271 C   0  0  2  0  0  0  0  0  0  0  0  0
   -1.9090    6.9291    1.4958 O   0  0  0  0  0  0  0  0  0  0  0  0
   -2.0995    5.3212   -0.2824 C   0  0  0  0  0  0  0  0  0  0  0  0
   -3.3424    5.0882    0.3454 O   0  0  0  0  0  0  0  0  0  0  0  0
    0.5590    3.7702   -0.1359 C   0  0  2  0  0  0  0  0  0  0  0  0
    1.6800    2.7440   -0.3606 C   0  0  2  0  0  0  0  0  0  0  0  0
    1.9464    1.9780    0.8684 N   0  0  0  0  0  0  0  0  0  0  0  0
    2.9538    3.4210   -0.8884 C   0  0  1  0  0  0  0  0  0  0  0  0
    3.9180    2.4216   -1.1574 O   0  0  0  0  0  0  0  0  0  0  0  0
    2.6020    4.1799   -2.1792 C   0  0  2  0  0  0  0  0  0  0  0  0
    3.7357    4.8599   -2.6858 O   0  0  0  0  0  0  0  0  0  0  0  0
    1.4424    5.1688   -1.9404 C   0  0  1  0  0  0  0  0  0  0  0  0
    0.3254    4.5260   -1.3221 O   0  0  0  0  0  0  0  0  0  0  0  0
    1.8682    6.4344   -1.1816 C   0  0  0  0  0  0  0  0  0  0  0  0
    0.9047    7.5290   -1.3813 N   0  0  0  0  0  0  0  0  0  0  0  0
  1  3  1  0  0  0  0
  1  2  1  6  0  0  0
  3  4  1  6  0  0  0
  5  6  1  1  0  0  0
  5  3  1  0  0  0  0
  7  9  1  0  0  0  0
  7  5  1  0  0  0  0
  7  8  1  6  0  0  0
  9 10  1  0  0  0  0
  9 11  1  1  0  0  0
 10  1  1  0  0  0  0
 11 12  1  0  0  0  0
 13 14  1  6  0  0  0
 13 21  1  0  0  0  0
 15 13  1  0  0  0  0
 16 15  1  0  0  0  0
 16 18  1  0  0  0  0
 16 17  1  6  0  0  0
 18  2  1  1  0  0  0
 18 19  1  0  0  0  0
 19 21  1  0  0  0  0
 19 20  1  6  0  0  0
 21 22  1  1  0  0  0
 23 20  1  1  0  0  0
 23 29  1  0  0  0  0
 23 24  1  0  0  0  0
 24 26  1  0  0  0  0
 24 25  1  6  0  0  0
 26 27  1  6  0  0  0
 28 26  1  0  0  0  0
 28 30  1  1  0  0  0
 29 28  1  0  0  0  0
 30 31  1  0  0  0  0
 32 27  1  1  0  0  0
 32 40  1  0  0  0  0
 32 33  1  0  0  0  0
 33 35  1  0  0  0  0
 33 34  1  1  0  0  0
 35 37  1  0  0  0  0
 35 36  1  6  0  0  0
 37 38  1  1  0  0  0
 39 37  1  0  0  0  0
 39 41  1  1  0  0  0
 40 39  1  0  0  0  0
 42 41  1  0  0  0  0
M  END
>  <CHROM.1>
76.70156661,-169.52104571,-174.32239846,-172.35494083,158.86606238,-52.78982965
-107.60570105,-61.49537530,-164.73995614,-69.67099212,53.54192557,-50.74142210
73.89625116,-173.88297180,-156.25441897,87.58737898,-73.62432981,65.80272299
-177.54976464,-56.81895647,160.00093991,91.47351427,-0.63818440,5.00870890
2.43306694,2.21728531,0.58876251,0.99892986

>  <Name>
lig.pdb

>  <RI>
3.31443e+07

>  <Rbt.Current_Directory>
/home/itssahil/PROJECTS/Mol_Feturizer/New_Systems/rnas/2mxs

>  <Rbt.Executable>
rbdock ($Id: //depot/dev/client3/rdock/2013.1/src/exe/rbdock.cxx#4 $)

>  <Rbt.Library>
libRbt.so (2013.1, Build901 2013/11/27)

>  <Rbt.Parameter_File>
/export/apps/rDock/src/rDock_2013.1_src/data/scripts/dock_solv.prm

>  <Rbt.Receptor>
prm/blind_docking_40.prm

>  <SCORE>
81.5223

>  <SCORE.INTER>
43.6063

>  <SCORE.INTER.CONST>
1

>  <SCORE.INTER.POLAR>
-4.5887

>  <SCORE.INTER.ROT>
9

>  <SCORE.INTER.SOLV>
29.8524

>  <SCORE.INTER.VDW>
24.8157

>  <SCORE.INTER.norm>
1.03824

>  <SCORE.INTRA>
6.77132

>  <SCORE.INTRA.DIHEDRAL>
-8.52289

>  <SCORE.INTRA.DIHEDRAL.0>
30.1357

>  <SCORE.INTRA.POLAR>
-0.768594

>  <SCORE.INTRA.POLAR.0>
-0.631696

>  <SCORE.INTRA.REPUL>
0

>  <SCORE.INTRA.REPUL.0>
0

>  <SCORE.INTRA.SOLV>
4.60405

>  <SCORE.INTRA.SOLV.lig_0>
-55.904

>  <SCORE.INTRA.VDW>
11.344

>  <SCORE.INTRA.VDW.0>
-8.21197

>  <SCORE.INTRA.norm>
0.161222

>  <SCORE.RESTR>
31.1447

>  <SCORE.RESTR.CAVITY>
31.1447

>  <SCORE.RESTR.norm>
0.74154

>  <SCORE.SYSTEM>
0

>  <SCORE.SYSTEM.CONST>
0

>  <SCORE.SYSTEM.DIHEDRAL>
0

>  <SCORE.SYSTEM.SOLV>
0

>  <SCORE.SYSTEM.norm>
0

>  <SCORE.heavy>
42

>  <SCORE.norm>
1.94101

>  <RMSD>
8.355

$$$$
lig.pdb
 OpenBabel11021811453D
libRbt.so/2013.1/901 2013/11/27
 42 45  0  0  0  0  0  0  0  0999 V2000
   -1.9730    6.5356    4.2025 C   0  0  2  0  0  0  0  0  0  0  0  0
   -1.4839    6.5789    2.8607 O   0  0  0  0  0  0  0  0  0  0  0  0
   -1.1822    7.4953    5.1044 C   0  0  2  0  0  0  0  0  0  0  0  0
   -1.1896    8.8640    4.5556 N   0  0  0  0  0  0  0  0  0  0  0  0
    0.2523    6.9945    5.3162 C   0  0  1  0  0  0  0  0  0  0  0  0
    0.9006    7.8156    6.2686 O   0  0  0  0  0  0  0  0  0  0  0  0
    0.2405    5.5432    5.8194 C   0  0  2  0  0  0  0  0  0  0  0  0
    1.5657    5.0495    5.8568 O   0  0  0  0  0  0  0  0  0  0  0  0
   -0.6280    4.6400    4.9204 C   0  0  2  0  0  0  0  0  0  0  0  0
   -1.9218    5.2067    4.7157 O   0  0  0  0  0  0  0  0  0  0  0  0
   -0.7637    3.2682    5.6081 C   0  0  0  0  0  0  0  0  0  0  0  0
   -1.6698    2.3849    4.8946 O   0  0  0  0  0  0  0  0  0  0  0  0
   -3.0494    2.9164    1.2280 C   0  0  2  0  0  0  0  0  0  0  0  0
   -3.5125    2.0727    0.1082 N   0  0  0  0  0  0  0  0  0  0  0  0
   -3.9149    4.1740    1.3398 C   0  0  0  0  0  0  0  0  0  0  0  0
   -3.3582    5.1162    2.4006 C   0  0  2  0  0  0  0  0  0  0  0  0
   -4.2481    6.2718    2.5695 N   0  0  0  0  0  0  0  0  0  0  0  0
   -1.9320    5.5396    1.9785 C   0  0  2  0  0  0  0  0  0  0  0  0
   -1.0474    4.3351    2.0249 C   0  0  2  0  0  0  0  0  0  0  0  0
    0.2599    4.7522    1.6762 O   0  0  0  0  0  0  0  0  0  0  0  0
   -1.5636    3.2854    1.0590 C   0  0  1  0  0  0  0  0  0  0  0  0
   -0.8111    2.0884    1.1228 O   0  0  0  0  0  0  0  0  0  0  0  0
    0.4456    5.3533    0.3990 C   0  0  1  0  0  0  0  0  0  0  0  0
    1.9365    5.6574    0.2377 C   0  0  2  0  0  0  0  0  0  0  0  0
    2.0926    6.8663   -0.4812 O   0  0  0  0  0  0  0  0  0  0  0  0
    2.4417    4.4328   -0.5371 C   0  0  2  0  0  0  0  0  0  0  0  0
    3.6691    4.6801   -1.2235 O   0  0  0  0  0  0  0  0  0  0  0  0
    1.2343    4.1778   -1.4477 C   0  0  2  0  0  0  0  0  0  0  0  0
    0.1050    4.4233   -0.6213 O   0  0  0  0  0  0  0  0  0  0  0  0
    1.1473    2.7497   -1.9985 C   0  0  0  0  0  0  0  0  0  0  0  0
    0.0161    2.0680   -1.4997 O   0  0  0  0  0  0  0  0  0  0  0  0
    3.7971    4.0060   -2.4739 C   0  0  2  0  0  0  0  0  0  0  0  0
    4.8276    2.8687   -2.4060 C   0  0  2  0  0  0  0  0  0  0  0  0
    4.5019    1.9274   -1.3217 N   0  0  0  0  0  0  0  0  0  0  0  0
    6.2539    3.4207   -2.2620 C   0  0  1  0  0  0  0  0  0  0  0  0
    7.1626    2.3371   -2.2918 O   0  0  0  0  0  0  0  0  0  0  0  0
    6.5271    4.3746   -3.4373 C   0  0  2  0  0  0  0  0  0  0  0  0
    7.8177    4.9466   -3.3291 O   0  0  0  0  0  0  0  0  0  0  0  0
    5.4528    5.4791   -3.5140 C   0  0  1  0  0  0  0  0  0  0  0  0
    4.1341    4.9276   -3.5084 O   0  0  0  0  0  0  0  0  0  0  0  0
    5.6232    6.5693   -2.4457 C   0  0  0  0  0  0  0  0  0  0  0  0
    6.1272    6.0076   -1.1820 N   0  0  0  0  0  0  0  0  0  0  0  0
  1  3  1  0  0  0  0
  1  2  1  6  0  0  0
  3  4  1  6  0  0  0
  5  6  1  1  0  0  0
  5  3  1  0  0  0  0
  7  9  1  0  0  0  0
  7  5  1  0  0  0  0
  7  8  1  6  0  0  0
  9 10  1  0  0  0  0
  9 11  1  1  0  0  0
 10  1  1  0  0  0  0
 11 12  1  0  0  0  0
 13 14  1  6  0  0  0
 13 21  1  0  0  0  0
 15 13  1  0  0  0  0
 16 15  1  0  0  0  0
 16 18  1  0  0  0  0
 16 17  1  6  0  0  0
 18  2  1  1  0  0  0
 18 19  1  0  0  0  0
 19 21  1  0  0  0  0
 19 20  1  6  0  0  0
 21 22  1  1  0  0  0
 23 20  1  1  0  0  0
 23 29  1  0  0  0  0
 23 24  1  0  0  0  0
 24 26  1  0  0  0  0
 24 25  1  6  0  0  0
 26 27  1  6  0  0  0
 28 26  1  0  0  0  0
 28 30  1  1  0  0  0
 29 28  1  0  0  0  0
 30 31  1  0  0  0  0
 32 27  1  1  0  0  0
 32 40  1  0  0  0  0
 32 33  1  0  0  0  0
 33 35  1  0  0  0  0
 33 34  1  1  0  0  0
 35 37  1  0  0  0  0
 35 36  1  6  0  0  0
 37 38  1  1  0  0  0
 39 37  1  0  0  0  0
 39 41  1  1  0  0  0
 40 39  1  0  0  0  0
 42 41  1  0  0  0  0
M  END
>  <CHROM.1>
31.40144948,167.20459067,96.50186261,-161.52924217,178.17320428,59.20745761
174.66760717,-37.19625152,-97.49512784,-59.26875443,-177.62029051,102.07994460
82.61345722,-145.16677319,-108.82711787,114.35932203,178.71127107,89.86295315
-67.59189371,73.74593651,-35.19371289,-59.49207273,1.07724137,4.70505245
0.96576230,-2.47412595,-0.36393095,-2.17416656

>  <Name>
lig.pdb

>  <RI>
3.31443e+07

>  <Rbt.Current_Directory>
/home/itssahil/PROJECTS/Mol_Feturizer/New_Systems/rnas/2mxs

>  <Rbt.Executable>
rbdock ($Id: //depot/dev/client3/rdock/2013.1/src/exe/rbdock.cxx#4 $)

>  <Rbt.Library>
libRbt.so (2013.1, Build901 2013/11/27)

>  <Rbt.Parameter_File>
/export/apps/rDock/src/rDock_2013.1_src/data/scripts/dock_solv.prm

>  <Rbt.Receptor>
prm/blind_docking_40.prm

>  <SCORE>
12.2652

>  <SCORE.INTER>
-33.2735

>  <SCORE.INTER.CONST>
1

>  <SCORE.INTER.POLAR>
-5.30832

>  <SCORE.INTER.ROT>
9

>  <SCORE.INTER.SOLV>
25.6359

>  <SCORE.INTER.VDW>
-22.6332

>  <SCORE.INTER.norm>
-0.792226

>  <SCORE.INTRA>
12.8439

>  <SCORE.INTRA.DIHEDRAL>
10.824

>  <SCORE.INTRA.DIHEDRAL.0>
30.1357

>  <SCORE.INTRA.POLAR>
-1.48691

>  <SCORE.INTRA.POLAR.0>
-0.631696

>  <SCORE.INTRA.REPUL>
0

>  <SCORE.INTRA.REPUL.0>
0

>  <SCORE.INTRA.SOLV>
2.98161

>  <SCORE.INTRA.SOLV.lig_0>
-55.904

>  <SCORE.INTRA.VDW>
10.9966

>  <SCORE.INTRA.VDW.0>
-8.21197

>  <SCORE.INTRA.norm>
0.305808

>  <SCORE.RESTR>
32.6948

>  <SCORE.RESTR.CAVITY>
32.6948

>  <SCORE.RESTR.norm>
0.778447

>  <SCORE.SYSTEM>
0

>  <SCORE.SYSTEM.CONST>
0

>  <SCORE.SYSTEM.DIHEDRAL>
0

>  <SCORE.SYSTEM.SOLV>
0

>  <SCORE.SYSTEM.norm>
0

>  <SCORE.heavy>
42

>  <SCORE.norm>
0.292029

>  <RMSD>
8.386

$$$$
lig.pdb
 OpenBabel11021811453D
libRbt.so/2013.1/901 2013/11/27
 42 45  0  0  0  0  0  0  0  0999 V2000
   -0.2438    4.9413    7.1996 C   0  0  2  0  0  0  0  0  0  0  0  0
   -0.8480    6.0718    6.5683 O   0  0  0  0  0  0  0  0  0  0  0  0
   -0.6501    4.8586    8.6787 C   0  0  2  0  0  0  0  0  0  0  0  0
   -2.1174    4.8567    8.8250 N   0  0  0  0  0  0  0  0  0  0  0  0
   -0.0173    5.9985    9.4874 C   0  0  1  0  0  0  0  0  0  0  0  0
   -0.2863    5.8042   10.8627 O   0  0  0  0  0  0  0  0  0  0  0  0
    1.5024    6.0286    9.2653 C   0  0  2  0  0  0  0  0  0  0  0  0
    2.0443    7.1768    9.8893 O   0  0  0  0  0  0  0  0  0  0  0  0
    1.8545    6.0351    7.7638 C   0  0  2  0  0  0  0  0  0  0  0  0
    1.1749    4.9893    7.0699 O   0  0  0  0  0  0  0  0  0  0  0  0
    3.3773    5.8457    7.6282 C   0  0  0  0  0  0  0  0  0  0  0  0
    3.8279    4.5947    8.2133 O   0  0  0  0  0  0  0  0  0  0  0  0
   -1.2335    6.7736    2.3387 C   0  0  2  0  0  0  0  0  0  0  0  0
   -0.6746    6.9729    0.9866 N   0  0  0  0  0  0  0  0  0  0  0  0
   -0.7355    7.8675    3.2866 C   0  0  0  0  0  0  0  0  0  0  0  0
   -1.1930    7.5903    4.7138 C   0  0  2  0  0  0  0  0  0  0  0  0
   -0.7950    8.6936    5.5970 N   0  0  0  0  0  0  0  0  0  0  0  0
   -0.5915    6.2394    5.1664 C   0  0  2  0  0  0  0  0  0  0  0  0
   -1.2015    5.1502    4.3436 C   0  0  2  0  0  0  0  0  0  0  0  0
   -0.6694    3.9207    4.8015 O   0  0  0  0  0  0  0  0  0  0  0  0
   -0.8783    5.3755    2.8786 C   0  0  1  0  0  0  0  0  0  0  0  0
   -1.5024    4.4184    2.0434 O   0  0  0  0  0  0  0  0  0  0  0  0
   -1.5877    2.8968    5.1695 C   0  0  1  0  0  0  0  0  0  0  0  0
   -2.0371    2.1896    3.8892 C   0  0  2  0  0  0  0  0  0  0  0  0
   -3.3973    1.8188    4.0121 O   0  0  0  0  0  0  0  0  0  0  0  0
   -1.0924    0.9817    3.8296 C   0  0  2  0  0  0  0  0  0  0  0  0
   -1.6001   -0.0784    3.0189 O   0  0  0  0  0  0  0  0  0  0  0  0
   -0.9844    0.6549    5.3241 C   0  0  2  0  0  0  0  0  0  0  0  0
   -0.9238    1.9219    5.9638 O   0  0  0  0  0  0  0  0  0  0  0  0
    0.2594   -0.1559    5.7065 C   0  0  0  0  0  0  0  0  0  0  0  0
    1.4472    0.5653    5.4571 O   0  0  0  0  0  0  0  0  0  0  0  0
   -0.6322   -0.6947    2.1718 C   0  0  2  0  0  0  0  0  0  0  0  0
   -0.8967   -0.3925    0.6890 C   0  0  2  0  0  0  0  0  0  0  0  0
   -0.9680    1.0590    0.4523 N   0  0  0  0  0  0  0  0  0  0  0  0
   -2.1646   -1.1056    0.1955 C   0  0  1  0  0  0  0  0  0  0  0  0
   -2.3091   -0.8622   -1.1904 O   0  0  0  0  0  0  0  0  0  0  0  0
   -2.0070   -2.6134    0.4557 C   0  0  2  0  0  0  0  0  0  0  0  0
   -3.1702   -3.3151    0.0570 O   0  0  0  0  0  0  0  0  0  0  0  0
   -1.6944   -2.8882    1.9410 C   0  0  1  0  0  0  0  0  0  0  0  0
   -0.5914   -2.1019    2.3977 O   0  0  0  0  0  0  0  0  0  0  0  0
   -2.9187   -2.7461    2.8573 C   0  0  0  0  0  0  0  0  0  0  0  0
   -3.9966   -3.6654    2.4583 N   0  0  0  0  0  0  0  0  0  0  0  0
  1  3  1  0  0  0  0
  1  2  1  1  0  0  0
  3  4  1  6  0  0  0
  5  6  1  1  0  0  0
  5  3  1  0  0  0  0
  7  9  1  0  0  0  0
  7  5  1  0  0  0  0
  7  8  1  6  0  0  0
  9 10  1  0  0  0  0
  9 11  1  1  0  0  0
 10  1  1  0  0  0  0
 11 12  1  0  0  0  0
 13 14  1  6  0  0  0
 13 21  1  0  0  0  0
 15 13  1  0  0  0  0
 16 15  1  0  0  0  0
 16 18  1  0  0  0  0
 16 17  1  1  0  0  0
 18  2  1  1  0  0  0
 18 19  1  0  0  0  0
 19 21  1  0  0  0  0
 19 20  1  1  0  0  0
 21 22  1  6  0  0  0
 23 20  1  6  0  0  0
 23 29  1  0  0  0  0
 23 24  1  0  0  0  0
 24 26  1  0  0  0  0
 24 25  1  1  0  0  0
 26 27  1  6  0  0  0
 28 26  1  0  0  0  0
 28 30  1  6  0  0  0
 29 28  1  0  0  0  0
 30 31  1  0  0  0  0
 32 27  1  1  0  0  0
 32 40  1  0  0  0  0
 32 33  1  0  0  0  0
 33 35  1  0  0  0  0
 33 34  1  1  0  0  0
 35 37  1  0  0  0  0
 35 36  1  6  0  0  0
 37 38  1  1  0  0  0
 39 37  1  0  0  0  0
 39 41  1  1  0  0  0
 40 39  1  0  0  0  0
 42 41  1  0  0  0  0
M  END
>  <CHROM.1>
-173.66798811,-177.69803390,-176.39089561,179.53494253,-55.79186166,165.71531193
59.84980246,151.85648181,-166.01446421,126.71143658,81.68167171,-64.86081633
-49.02445621,137.66200822,-111.43354968,63.80500981,-56.80444807,56.03845342
43.27142100,178.68076162,58.82770619,-55.33297083,-0.74668868,2.88806607
4.58148428,-0.64362465,1.24963197,2.91372663

>  <Name>
lig.pdb

>  <RI>
0

>  <Rbt.Current_Directory>
/home/itssahil/PROJECTS/Mol_Feturizer/New_Systems/rnas/2mxs

>  <Rbt.Executable>
rbdock ($Id: //depot/dev/client3/rdock/2013.1/src/exe/rbdock.cxx#4 $)

>  <Rbt.Library>
libRbt.so (2013.1, Build901 2013/11/27)

>  <Rbt.Parameter_File>
/export/apps/rDock/src/rDock_2013.1_src/data/scripts/dock_solv.prm

>  <Rbt.Receptor>
prm/pocket_docking_4.prm

>  <SCORE>
-27.0591

>  <SCORE.INTER>
-30.5048

>  <SCORE.INTER.CONST>
1

>  <SCORE.INTER.POLAR>
-4.36635

>  <SCORE.INTER.ROT>
9

>  <SCORE.INTER.SOLV>
14.8653

>  <SCORE.INTER.VDW>
-20.3371

>  <SCORE.INTER.norm>
-0.726305

>  <SCORE.INTRA>
3.38042

>  <SCORE.INTRA.DIHEDRAL>
-2.35416

>  <SCORE.INTRA.DIHEDRAL.0>
30.1357

>  <SCORE.INTRA.POLAR>
0.222305

>  <SCORE.INTRA.POLAR.0>
-0.631696

>  <SCORE.INTRA.REPUL>
0

>  <SCORE.INTRA.REPUL.0>
0

>  <SCORE.INTRA.SOLV>
0.0453671

>  <SCORE.INTRA.SOLV.lig_0>
-55.904

>  <SCORE.INTRA.VDW>
3.77899

>  <SCORE.INTRA.VDW.0>
-8.21197

>  <SCORE.INTRA.norm>
0.0804863

>  <SCORE.RESTR>
0.0653023

>  <SCORE.RESTR.CAVITY>
0.0653023

>  <SCORE.RESTR.norm>
0.00155482

>  <SCORE.SYSTEM>
0

>  <SCORE.SYSTEM.CONST>
0

>  <SCORE.SYSTEM.DIHEDRAL>
0

>  <SCORE.SYSTEM.SOLV>
0

>  <SCORE.SYSTEM.norm>
0

>  <SCORE.heavy>
42

>  <SCORE.norm>
-0.644264

>  <RMSD>
8.386

$$$$
lig.pdb
 OpenBabel11021811453D
libRbt.so/2013.1/901 2013/11/27
 42 45  0  0  0  0  0  0  0  0999 V2000
   -0.2979    1.1066    6.5219 C   0  0  2  0  0  0  0  0  0  0  0  0
   -0.2372   -0.2818    6.1900 O   0  0  0  0  0  0  0  0  0  0  0  0
    1.0072    1.5675    7.1883 C   0  0  2  0  0  0  0  0  0  0  0  0
    2.1734    1.2499    6.3436 N   0  0  0  0  0  0  0  0  0  0  0  0
    1.1567    0.9547    8.5868 C   0  0  1  0  0  0  0  0  0  0  0  0
    2.2855    1.5173    9.2278 O   0  0  0  0  0  0  0  0  0  0  0  0
   -0.0982    1.2347    9.4274 C   0  0  2  0  0  0  0  0  0  0  0  0
   -0.0088    0.5308   10.6513 O   0  0  0  0  0  0  0  0  0  0  0  0
   -1.3828    0.8223    8.6805 C   0  0  2  0  0  0  0  0  0  0  0  0
   -1.4152    1.3755    7.3652 O   0  0  0  0  0  0  0  0  0  0  0  0
   -2.5913    1.3315    9.4890 C   0  0  0  0  0  0  0  0  0  0  0  0
   -3.8540    0.8846    8.9268 O   0  0  0  0  0  0  0  0  0  0  0  0
   -2.1000   -2.5265    3.0243 C   0  0  2  0  0  0  0  0  0  0  0  0
   -3.1964   -2.7839    2.0692 N   0  0  0  0  0  0  0  0  0  0  0  0
   -2.6207   -2.5927    4.4622 C   0  0  0  0  0  0  0  0  0  0  0  0
   -1.5296   -2.1903    5.4474 C   0  0  2  0  0  0  0  0  0  0  0  0
   -2.0073   -2.3511    6.8264 N   0  0  0  0  0  0  0  0  0  0  0  0
   -1.1112   -0.7325    5.1450 C   0  0  2  0  0  0  0  0  0  0  0  0
   -0.4553   -0.6972    3.8018 C   0  0  2  0  0  0  0  0  0  0  0  0
   -0.0434    0.6362    3.5631 O   0  0  0  0  0  0  0  0  0  0  0  0
   -1.4353   -1.1659    2.7429 C   0  0  1  0  0  0  0  0  0  0  0  0
   -0.8405   -1.2326    1.4605 O   0  0  0  0  0  0  0  0  0  0  0  0
   -1.0392    1.6532    3.5926 C   0  0  1  0  0  0  0  0  0  0  0  0
   -0.3755    2.9695    3.1825 C   0  0  2  0  0  0  0  0  0  0  0  0
   -0.9490    4.0325    3.9200 O   0  0  0  0  0  0  0  0  0  0  0  0
   -0.6908    3.0456    1.6826 C   0  0  2  0  0  0  0  0  0  0  0  0
   -0.6076    4.3743    1.1664 O   0  0  0  0  0  0  0  0  0  0  0  0
   -2.0993    2.4389    1.6760 C   0  0  2  0  0  0  0  0  0  0  0  0
   -2.0351    1.3757    2.6161 O   0  0  0  0  0  0  0  0  0  0  0  0
   -2.5404    1.8777    0.3191 C   0  0  0  0  0  0  0  0  0  0  0  0
   -3.7975    1.2407    0.4036 O   0  0  0  0  0  0  0  0  0  0  0  0
    0.6536    5.0105    1.3632 C   0  0  2  0  0  0  0  0  0  0  0  0
    0.7609    6.3222    0.5707 C   0  0  2  0  0  0  0  0  0  0  0  0
   -0.3523    7.2281    0.8993 N   0  0  0  0  0  0  0  0  0  0  0  0
    0.8395    6.0526   -0.9395 C   0  0  1  0  0  0  0  0  0  0  0  0
    1.0233    7.2849   -1.6092 O   0  0  0  0  0  0  0  0  0  0  0  0
    2.0340    5.1208   -1.2057 C   0  0  2  0  0  0  0  0  0  0  0  0
    2.1263    4.8049   -2.5827 O   0  0  0  0  0  0  0  0  0  0  0  0
    1.9289    3.8329   -0.3631 C   0  0  1  0  0  0  0  0  0  0  0  0
    1.7196    4.1280    1.0198 O   0  0  0  0  0  0  0  0  0  0  0  0
    0.8908    2.8369   -0.9006 C   0  0  0  0  0  0  0  0  0  0  0  0
    1.2253    2.3978   -2.2650 N   0  0  0  0  0  0  0  0  0  0  0  0
  1  3  1  0  0  0  0
  1  2  1  1  0  0  0
  3  4  1  6  0  0  0
  5  6  1  1  0  0  0
  5  3  1  0  0  0  0
  7  9  1  0  0  0  0
  7  5  1  0  0  0  0
  7  8  1  1  0  0  0
  9 10  1  0  0  0  0
  9 11  1  1  0  0  0
 10  1  1  0  0  0  0
 11 12  1  0  0  0  0
 13 14  1  6  0  0  0
 13 21  1  0  0  0  0
 15 13  1  0  0  0  0
 16 15  1  0  0  0  0
 16 18  1  0  0  0  0
 16 17  1  1  0  0  0
 18  2  1  1  0  0  0
 18 19  1  0  0  0  0
 19 21  1  0  0  0  0
 19 20  1  6  0  0  0
 21 22  1  6  0  0  0
 23 20  1  6  0  0  0
 23 29  1  0  0  0  0
 23 24  1  0  0  0  0
 24 26  1  0  0  0  0
 24 25  1  1  0  0  0
 26 27  1  1  0  0  0
 28 26  1  0  0  0  0
 28 30  1  6  0  0  0
 29 28  1  0  0  0  0
 30 31  1  0  0  0  0
 32 27  1  6  0  0  0
 32 40  1  0  0  0  0
 32 33  1  0  0  0  0
 33 35  1  0  0  0  0
 33 34  1  6  0  0  0
 35 37  1  0  0  0  0
 35 36  1  6  0  0  0
 37 38  1  6  0  0  0
 39 37  1  0  0  0  0
 39 41  1  6  0  0  0
 40 39  1  0  0  0  0
 42 41  1  0  0  0  0
M  END
>  <CHROM.1>
-147.71211581,-156.84400175,150.96016567,-174.49795713,177.30693694,-57.49413773
-174.73375955,65.41130348,35.32007872,-57.85901365,-174.87672966,-67.74277718
62.00523949,57.03869483,169.65960733,175.31243355,-68.54446460,121.92961962
-101.29484004,62.40200350,60.79862364,92.42801475,-0.48281286,1.78638353
3.55186321,-1.92559050,-1.06903730,-1.37149025

>  <Name>
lig.pdb

>  <RI>
0

>  <Rbt.Current_Directory>
/home/itssahil/PROJECTS/Mol_Feturizer/New_Systems/rnas/2mxs

>  <Rbt.Executable>
rbdock ($Id: //depot/dev/client3/rdock/2013.1/src/exe/rbdock.cxx#4 $)

>  <Rbt.Library>
libRbt.so (2013.1, Build901 2013/11/27)

>  <Rbt.Parameter_File>
/export/apps/rDock/src/rDock_2013.1_src/data/scripts/dock_solv.prm

>  <Rbt.Receptor>
prm/pocket_docking_4.prm

>  <SCORE>
-40.9673

>  <SCORE.INTER>
-42.382

>  <SCORE.INTER.CONST>
1

>  <SCORE.INTER.POLAR>
-4.78762

>  <SCORE.INTER.ROT>
9

>  <SCORE.INTER.SOLV>
20.71

>  <SCORE.INTER.VDW>
-28.7993

>  <SCORE.INTER.norm>
-1.0091

>  <SCORE.INTRA>
1.41475

>  <SCORE.INTRA.DIHEDRAL>
-6.88016

>  <SCORE.INTRA.DIHEDRAL.0>
30.1357

>  <SCORE.INTRA.POLAR>
-0.174921

>  <SCORE.INTRA.POLAR.0>
-0.631696

>  <SCORE.INTRA.REPUL>
0

>  <SCORE.INTRA.REPUL.0>
0

>  <SCORE.INTRA.SOLV>
-0.203545

>  <SCORE.INTRA.SOLV.lig_0>
-55.904

>  <SCORE.INTRA.VDW>
5.55133

>  <SCORE.INTRA.VDW.0>
-8.21197

>  <SCORE.INTRA.norm>
0.0336845

>  <SCORE.RESTR>
0

>  <SCORE.RESTR.CAVITY>
0

>  <SCORE.RESTR.norm>
0

>  <SCORE.SYSTEM>
0

>  <SCORE.SYSTEM.CONST>
0

>  <SCORE.SYSTEM.DIHEDRAL>
0

>  <SCORE.SYSTEM.SOLV>
0

>  <SCORE.SYSTEM.norm>
0

>  <SCORE.heavy>
42

>  <SCORE.norm>
-0.975411

>  <RMSD>
8.388

$$$$
lig.pdb
 OpenBabel11021811453D
libRbt.so/2013.1/901 2013/11/27
 42 45  0  0  0  0  0  0  0  0999 V2000
   -3.7054    4.2318    3.9298 C   0  0  2  0  0  0  0  0  0  0  0  0
   -2.5266    3.4446    4.1093 O   0  0  0  0  0  0  0  0  0  0  0  0
   -4.5797    3.6590    2.8042 C   0  0  2  0  0  0  0  0  0  0  0  0
   -4.8934    2.2390    3.0483 N   0  0  0  0  0  0  0  0  0  0  0  0
   -3.9097    3.8480    1.4371 C   0  0  1  0  0  0  0  0  0  0  0  0
   -4.8048    3.4503    0.4163 O   0  0  0  0  0  0  0  0  0  0  0  0
   -3.5257    5.3211    1.2318 C   0  0  2  0  0  0  0  0  0  0  0  0
   -2.7712    5.4471    0.0417 O   0  0  0  0  0  0  0  0  0  0  0  0
   -2.7139    5.8655    2.4247 C   0  0  2  0  0  0  0  0  0  0  0  0
   -3.3688    5.5909    3.6628 O   0  0  0  0  0  0  0  0  0  0  0  0
   -2.5595    7.3876    2.2442 C   0  0  0  0  0  0  0  0  0  0  0  0
   -1.2868    7.8728    2.7492 O   0  0  0  0  0  0  0  0  0  0  0  0
   -0.2179    5.9716    6.7199 C   0  0  2  0  0  0  0  0  0  0  0  0
    0.8766    6.2114    7.6816 N   0  0  0  0  0  0  0  0  0  0  0  0
   -1.1955    4.9326    7.2749 C   0  0  0  0  0  0  0  0  0  0  0  0
   -2.2485    4.5756    6.2325 C   0  0  2  0  0  0  0  0  0  0  0  0
   -3.2374    3.6541    6.8058 N   0  0  0  0  0  0  0  0  0  0  0  0
   -1.5335    3.9674    5.0035 C   0  0  2  0  0  0  0  0  0  0  0  0
   -0.6998    5.0323    4.3659 C   0  0  2  0  0  0  0  0  0  0  0  0
   -0.0880    4.4668    3.2211 O   0  0  0  0  0  0  0  0  0  0  0  0
    0.3390    5.5273    5.3543 C   0  0  1  0  0  0  0  0  0  0  0  0
    1.1035    6.5971    4.8307 O   0  0  0  0  0  0  0  0  0  0  0  0
   -0.3639    5.0642    1.9586 C   0  0  1  0  0  0  0  0  0  0  0  0
    0.9512    5.6178    1.4060 C   0  0  2  0  0  0  0  0  0  0  0  0
    0.6951    6.8202    0.7049 O   0  0  0  0  0  0  0  0  0  0  0  0
    1.4286    4.4830    0.4897 C   0  0  2  0  0  0  0  0  0  0  0  0
    2.3608    4.9242   -0.4978 O   0  0  0  0  0  0  0  0  0  0  0  0
    0.0812    4.0042   -0.0645 C   0  0  2  0  0  0  0  0  0  0  0  0
   -0.8046    4.0681    1.0444 O   0  0  0  0  0  0  0  0  0  0  0  0
    0.0941    2.5713   -0.6096 C   0  0  0  0  0  0  0  0  0  0  0  0
   -1.1918    2.1604   -1.0227 O   0  0  0  0  0  0  0  0  0  0  0  0
    2.2825    4.2300   -1.7412 C   0  0  2  0  0  0  0  0  0  0  0  0
    3.2676    3.0526   -1.8004 C   0  0  2  0  0  0  0  0  0  0  0  0
    3.0644    2.1388   -0.6639 N   0  0  0  0  0  0  0  0  0  0  0  0
    4.7199    3.5479   -1.8711 C   0  0  1  0  0  0  0  0  0  0  0  0
    5.5726    2.4279   -2.0105 O   0  0  0  0  0  0  0  0  0  0  0  0
    4.8587    4.4753   -3.0903 C   0  0  2  0  0  0  0  0  0  0  0  0
    6.1725    4.9956   -3.1775 O   0  0  0  0  0  0  0  0  0  0  0  0
    3.8278    5.6215   -3.0331 C   0  0  1  0  0  0  0  0  0  0  0  0
    2.5032    5.1242   -2.8297 O   0  0  0  0  0  0  0  0  0  0  0  0
    4.1912    6.7170   -2.0198 C   0  0  0  0  0  0  0  0  0  0  0  0
    5.4762    6.4328   -1.3607 N   0  0  0  0  0  0  0  0  0  0  0  0
  1  3  1  0  0  0  0
  1  2  1  6  0  0  0
  3  4  1  1  0  0  0
  5  6  1  6  0  0  0
  5  3  1  0  0  0  0
  7  9  1  0  0  0  0
  7  5  1  0  0  0  0
  7  8  1  6  0  0  0
  9 10  1  0  0  0  0
  9 11  1  6  0  0  0
 10  1  1  0  0  0  0
 11 12  1  0  0  0  0
 13 14  1  1  0  0  0
 13 21  1  0  0  0  0
 15 13  1  0  0  0  0
 16 15  1  0  0  0  0
 16 18  1  0  0  0  0
 16 17  1  1  0  0  0
 18  2  1  6  0  0  0
 18 19  1  0  0  0  0
 19 21  1  0  0  0  0
 19 20  1  6  0  0  0
 21 22  1  6  0  0  0
 23 20  1  1  0  0  0
 23 29  1  0  0  0  0
 23 24  1  0  0  0  0
 24 26  1  0  0  0  0
 24 25  1  6  0  0  0
 26 27  1  6  0  0  0
 28 26  1  0  0  0  0
 28 30  1  1  0  0  0
 29 28  1  0  0  0  0
 30 31  1  0  0  0  0
 32 27  1  1  0  0  0
 32 40  1  0  0  0  0
 32 33  1  0  0  0  0
 33 35  1  0  0  0  0
 33 34  1  1  0  0  0
 35 37  1  0  0  0  0
 35 36  1  6  0  0  0
 37 38  1  1  0  0  0
 39 37  1  0  0  0  0
 39 41  1  1  0  0  0
 40 39  1  0  0  0  0
 42 41  1  0  0  0  0
M  END
>  <CHROM.1>
40.81781633,171.81201939,65.14962157,57.88250209,-159.95188342,179.84547139
-146.11380423,174.11119591,171.87604333,120.52890615,116.55045285,-58.46009078
-69.69429280,-146.88053389,-93.64264446,176.12371034,48.08937449,-44.00438669
-177.79172529,63.33943172,1.72913523,46.74275178,0.05773543,4.70670154,1.54284253
2.39312715,0.25710586,1.26863465

>  <Name>
lig.pdb

>  <RI>
3.31443e+07

>  <Rbt.Current_Directory>
/home/itssahil/PROJECTS/Mol_Feturizer/New_Systems/rnas/2mxs

>  <Rbt.Executable>
rbdock ($Id: //depot/dev/client3/rdock/2013.1/src/exe/rbdock.cxx#4 $)

>  <Rbt.Library>
libRbt.so (2013.1, Build901 2013/11/27)

>  <Rbt.Parameter_File>
/export/apps/rDock/src/rDock_2013.1_src/data/scripts/dock_solv.prm

>  <Rbt.Receptor>
prm/blind_docking_40.prm

>  <SCORE>
58.1035

>  <SCORE.INTER>
7.09159

>  <SCORE.INTER.CONST>
1

>  <SCORE.INTER.POLAR>
-2.39312

>  <SCORE.INTER.ROT>
9

>  <SCORE.INTER.SOLV>
26.4054

>  <SCORE.INTER.VDW>
-5.69701

>  <SCORE.INTER.norm>
0.168847

>  <SCORE.INTRA>
20.4057

>  <SCORE.INTRA.DIHEDRAL>
7.85126

>  <SCORE.INTRA.DIHEDRAL.0>
30.1357

>  <SCORE.INTRA.POLAR>
0.00836226

>  <SCORE.INTRA.POLAR.0>
-0.631696

>  <SCORE.INTRA.REPUL>
0

>  <SCORE.INTRA.REPUL.0>
0

>  <SCORE.INTRA.SOLV>
4.74872

>  <SCORE.INTRA.SOLV.lig_0>
-55.904

>  <SCORE.INTRA.VDW>
14.0772

>  <SCORE.INTRA.VDW.0>
-8.21197

>  <SCORE.INTRA.norm>
0.485849

>  <SCORE.RESTR>
30.6063

>  <SCORE.RESTR.CAVITY>
30.6063

>  <SCORE.RESTR.norm>
0.728721

>  <SCORE.SYSTEM>
0

>  <SCORE.SYSTEM.CONST>
0

>  <SCORE.SYSTEM.DIHEDRAL>
0

>  <SCORE.SYSTEM.SOLV>
0

>  <SCORE.SYSTEM.norm>
0

>  <SCORE.heavy>
42

>  <SCORE.norm>
1.38342

>  <RMSD>
8.391

$$$$
lig.pdb
 OpenBabel11021811453D
libRbt.so/2013.1/901 2013/11/27
 42 45  0  0  0  0  0  0  0  0999 V2000
    0.0589    1.1348    4.7698 C   0  0  2  0  0  0  0  0  0  0  0  0
   -0.1551   -0.2235    5.1577 O   0  0  0  0  0  0  0  0  0  0  0  0
    1.1379    1.7902    5.6450 C   0  0  2  0  0  0  0  0  0  0  0  0
    2.3856    1.0045    5.6239 N   0  0  0  0  0  0  0  0  0  0  0  0
    0.6358    1.9881    7.0810 C   0  0  1  0  0  0  0  0  0  0  0  0
    1.5922    2.7283    7.8152 O   0  0  0  0  0  0  0  0  0  0  0  0
   -0.7007    2.7455    7.0778 C   0  0  2  0  0  0  0  0  0  0  0  0
   -1.2235    2.7787    8.3920 O   0  0  0  0  0  0  0  0  0  0  0  0
   -1.7210    2.0881    6.1265 C   0  0  2  0  0  0  0  0  0  0  0  0
   -1.1574    1.8753    4.8326 O   0  0  0  0  0  0  0  0  0  0  0  0
   -2.9421    3.0207    6.0152 C   0  0  0  0  0  0  0  0  0  0  0  0
   -3.6194    3.1907    7.2890 O   0  0  0  0  0  0  0  0  0  0  0  0
   -2.6737   -3.1937    3.3231 C   0  0  2  0  0  0  0  0  0  0  0  0
   -3.9569   -3.6566    2.7581 N   0  0  0  0  0  0  0  0  0  0  0  0
   -2.8520   -2.7922    4.7894 C   0  0  0  0  0  0  0  0  0  0  0  0
   -1.5680   -2.1819    5.3389 C   0  0  2  0  0  0  0  0  0  0  0  0
   -1.7172   -1.8908    6.7702 N   0  0  0  0  0  0  0  0  0  0  0  0
   -1.2410   -0.9115    4.5199 C   0  0  2  0  0  0  0  0  0  0  0  0
   -0.9092   -1.3224    3.1211 C   0  0  2  0  0  0  0  0  0  0  0  0
   -0.5729   -0.1509    2.4007 O   0  0  0  0  0  0  0  0  0  0  0  0
   -2.1013   -2.0249    2.4993 C   0  0  1  0  0  0  0  0  0  0  0  0
   -1.8142   -2.5109    1.2014 O   0  0  0  0  0  0  0  0  0  0  0  0
   -0.3077   -0.2821    1.0081 C   0  0  1  0  0  0  0  0  0  0  0  0
   -0.4395    1.1045    0.3744 C   0  0  2  0  0  0  0  0  0  0  0  0
   -0.9942    0.9762   -0.9212 O   0  0  0  0  0  0  0  0  0  0  0  0
    1.0133    1.5986    0.3553 C   0  0  2  0  0  0  0  0  0  0  0  0
    1.2322    2.6364   -0.6007 O   0  0  0  0  0  0  0  0  0  0  0  0
    1.7382    0.2813    0.0534 C   0  0  2  0  0  0  0  0  0  0  0  0
    1.0396   -0.6938    0.8147 O   0  0  0  0  0  0  0  0  0  0  0  0
    3.2164    0.2647    0.4596 C   0  0  0  0  0  0  0  0  0  0  0  0
    3.6799   -1.0501    0.6821 O   0  0  0  0  0  0  0  0  0  0  0  0
    1.5369    3.9101   -0.0360 C   0  0  2  0  0  0  0  0  0  0  0  0
    0.8898    5.0556   -0.8293 C   0  0  2  0  0  0  0  0  0  0  0  0
   -0.5643    4.8574   -0.9486 N   0  0  0  0  0  0  0  0  0  0  0  0
    1.5500    5.2182   -2.2067 C   0  0  1  0  0  0  0  0  0  0  0  0
    0.9749    6.3368   -2.8539 O   0  0  0  0  0  0  0  0  0  0  0  0
    3.0577    5.4421   -1.9999 C   0  0  2  0  0  0  0  0  0  0  0  0
    3.7229    5.5556   -3.2445 O   0  0  0  0  0  0  0  0  0  0  0  0
    3.6753    4.3049   -1.1604 C   0  0  1  0  0  0  0  0  0  0  0  0
    2.9479    4.0952    0.0521 O   0  0  0  0  0  0  0  0  0  0  0  0
    3.8651    3.0004   -1.9484 C   0  0  0  0  0  0  0  0  0  0  0  0
    4.8461    3.1670   -3.0330 N   0  0  0  0  0  0  0  0  0  0  0  0
  1  3  1  0  0  0  0
  1  2  1  1  0  0  0
  3  4  1  1  0  0  0
  5  6  1  1  0  0  0
  5  3  1  0  0  0  0
  7  9  1  0  0  0  0
  7  5  1  0  0  0  0
  7  8  1  1  0  0  0
  9 10  1  0  0  0  0
  9 11  1  6  0  0  0
 10  1  1  0  0  0  0
 11 12  1  0  0  0  0
 13 14  1  6  0  0  0
 13 21  1  0  0  0  0
 15 13  1  0  0  0  0
 16 15  1  0  0  0  0
 16 18  1  0  0  0  0
 16 17  1  1  0  0  0
 18  2  1  1  0  0  0
 18 19  1  0  0  0  0
 19 21  1  0  0  0  0
 19 20  1  6  0  0  0
 21 22  1  6  0  0  0
 23 20  1  1  0  0  0
 23 29  1  0  0  0  0
 23 24  1  0  0  0  0
 24 26  1  0  0  0  0
 24 25  1  6  0  0  0
 26 27  1  6  0  0  0
 28 26  1  0  0  0  0
 28 30  1  1  0  0  0
 29 28  1  0  0  0  0
 30 31  1  0  0  0  0
 32 27  1  6  0  0  0
 32 40  1  0  0  0  0
 32 33  1  0  0  0  0
 33 35  1  0  0  0  0
 33 34  1  6  0  0  0
 35 37  1  0  0  0  0
 35 36  1  1  0  0  0
 37 38  1  6  0  0  0
 39 37  1  0  0  0  0
 39 41  1  6  0  0  0
 40 39  1  0  0  0  0
 42 41  1  0  0  0  0
M  END
>  <CHROM.1>
-163.80250497,173.34442599,-51.24036376,-167.35070955,-56.68223030,66.76587956
-63.00597301,-92.73497116,-22.62521701,-175.70945455,161.22217781,70.32050178
68.33216678,112.70015251,-142.35514792,155.75308561,63.32698415,-67.05721965
-58.73222528,72.18835688,64.94912368,-152.04635829,0.27666619,1.42089167
2.29173304,-2.76470565,-1.08774871,-2.22064535

>  <Name>
lig.pdb

>  <RI>
0

>  <Rbt.Current_Directory>
/home/itssahil/PROJECTS/Mol_Feturizer/New_Systems/rnas/2mxs

>  <Rbt.Executable>
rbdock ($Id: //depot/dev/client3/rdock/2013.1/src/exe/rbdock.cxx#4 $)

>  <Rbt.Library>
libRbt.so (2013.1, Build901 2013/11/27)

>  <Rbt.Parameter_File>
/export/apps/rDock/src/rDock_2013.1_src/data/scripts/dock_solv.prm

>  <Rbt.Receptor>
prm/pocket_docking_6.prm

>  <SCORE>
-36.2115

>  <SCORE.INTER>
-37.9899

>  <SCORE.INTER.CONST>
1

>  <SCORE.INTER.POLAR>
-6.0461

>  <SCORE.INTER.ROT>
9

>  <SCORE.INTER.SOLV>
21.4603

>  <SCORE.INTER.VDW>
-21.9264

>  <SCORE.INTER.norm>
-0.904523

>  <SCORE.INTRA>
1.77847

>  <SCORE.INTRA.DIHEDRAL>
-3.51641

>  <SCORE.INTRA.DIHEDRAL.0>
30.1357

>  <SCORE.INTRA.POLAR>
-0.432832

>  <SCORE.INTRA.POLAR.0>
-0.631696

>  <SCORE.INTRA.REPUL>
0

>  <SCORE.INTRA.REPUL.0>
0

>  <SCORE.INTRA.SOLV>
-0.647392

>  <SCORE.INTRA.SOLV.lig_0>
-55.904

>  <SCORE.INTRA.VDW>
5.332

>  <SCORE.INTRA.VDW.0>
-8.21197

>  <SCORE.INTRA.norm>
0.0423445

>  <SCORE.RESTR>
0

>  <SCORE.RESTR.CAVITY>
0

>  <SCORE.RESTR.norm>
0

>  <SCORE.SYSTEM>
0

>  <SCORE.SYSTEM.CONST>
0

>  <SCORE.SYSTEM.DIHEDRAL>
0

>  <SCORE.SYSTEM.SOLV>
0

>  <SCORE.SYSTEM.norm>
0

>  <SCORE.heavy>
42

>  <SCORE.norm>
-0.862178

>  <RMSD>
8.394

$$$$
lig.pdb
 OpenBabel11021811453D
libRbt.so/2013.1/901 2013/11/27
 42 45  0  0  0  0  0  0  0  0999 V2000
    0.4034    5.6214    4.1015 C   0  0  2  0  0  0  0  0  0  0  0  0
   -0.6685    4.6902    4.2611 O   0  0  0  0  0  0  0  0  0  0  0  0
    0.5765    6.4782    5.3647 C   0  0  2  0  0  0  0  0  0  0  0  0
    0.7514    5.6309    6.5589 N   0  0  0  0  0  0  0  0  0  0  0  0
   -0.6038    7.4421    5.5413 C   0  0  1  0  0  0  0  0  0  0  0  0
   -0.3389    8.3160    6.6219 O   0  0  0  0  0  0  0  0  0  0  0  0
   -0.8150    8.2649    4.2614 C   0  0  2  0  0  0  0  0  0  0  0  0
   -1.9987    9.0296    4.3860 O   0  0  0  0  0  0  0  0  0  0  0  0
   -0.9068    7.3599    3.0161 C   0  0  2  0  0  0  0  0  0  0  0  0
    0.1889    6.4471    2.9596 O   0  0  0  0  0  0  0  0  0  0  0  0
   -0.8978    8.2616    1.7670 C   0  0  0  0  0  0  0  0  0  0  0  0
   -0.4440    9.6086    2.0671 O   0  0  0  0  0  0  0  0  0  0  0  0
   -4.1323    3.8312    1.8538 C   0  0  2  0  0  0  0  0  0  0  0  0
   -5.0975    4.1527    0.7836 N   0  0  0  0  0  0  0  0  0  0  0  0
   -4.1630    4.9098    2.9395 C   0  0  0  0  0  0  0  0  0  0  0  0
   -3.0729    4.6604    3.9751 C   0  0  2  0  0  0  0  0  0  0  0  0
   -3.1729    5.6417    5.0627 N   0  0  0  0  0  0  0  0  0  0  0  0
   -1.7007    4.7202    3.2646 C   0  0  2  0  0  0  0  0  0  0  0  0
   -1.6079    3.5678    2.3165 C   0  0  2  0  0  0  0  0  0  0  0  0
   -0.3302    3.6173    1.7085 O   0  0  0  0  0  0  0  0  0  0  0  0
   -2.7118    3.6690    1.2809 C   0  0  1  0  0  0  0  0  0  0  0  0
   -2.7232    2.5566    0.4059 O   0  0  0  0  0  0  0  0  0  0  0  0
   -0.2588    3.4295    0.2991 C   0  0  1  0  0  0  0  0  0  0  0  0
    0.2987    4.7148   -0.3161 C   0  0  2  0  0  0  0  0  0  0  0  0
   -0.3244    4.9441   -1.5659 O   0  0  0  0  0  0  0  0  0  0  0  0
    1.7948    4.3980   -0.4445 C   0  0  2  0  0  0  0  0  0  0  0  0
    2.4534    5.2188   -1.4096 O   0  0  0  0  0  0  0  0  0  0  0  0
    1.7211    2.9097   -0.8073 C   0  0  2  0  0  0  0  0  0  0  0  0
    0.6715    2.3962    0.0009 O   0  0  0  0  0  0  0  0  0  0  0  0
    3.0043    2.1229   -0.5159 C   0  0  0  0  0  0  0  0  0  0  0  0
    4.0985    2.6197   -1.2569 O   0  0  0  0  0  0  0  0  0  0  0  0
    2.8456    6.5030   -0.9292 C   0  0  2  0  0  0  0  0  0  0  0  0
    2.0459    7.6313   -1.5983 C   0  0  2  0  0  0  0  0  0  0  0  0
    0.5981    7.4184   -1.4352 N   0  0  0  0  0  0  0  0  0  0  0  0
    2.4292    7.7801   -3.0783 C   0  0  1  0  0  0  0  0  0  0  0  0
    1.7284    8.8842   -3.6174 O   0  0  0  0  0  0  0  0  0  0  0  0
    3.9459    8.0204   -3.1661 C   0  0  2  0  0  0  0  0  0  0  0  0
    4.3601    8.1221   -4.5161 O   0  0  0  0  0  0  0  0  0  0  0  0
    4.7255    6.9008   -2.4461 C   0  0  1  0  0  0  0  0  0  0  0  0
    4.2453    6.7019   -1.1145 O   0  0  0  0  0  0  0  0  0  0  0  0
    4.7763    5.5870   -3.2398 C   0  0  0  0  0  0  0  0  0  0  0  0
    5.6334    4.5919   -2.5753 N   0  0  0  0  0  0  0  0  0  0  0  0
  1  3  1  0  0  0  0
  1  2  1  1  0  0  0
  3  4  1  1  0  0  0
  5  6  1  1  0  0  0
  5  3  1  0  0  0  0
  7  9  1  0  0  0  0
  7  5  1  0  0  0  0
  7  8  1  1  0  0  0
  9 10  1  0  0  0  0
  9 11  1  6  0  0  0
 10  1  1  0  0  0  0
 11 12  1  0  0  0  0
 13 14  1  6  0  0  0
 13 21  1  0  0  0  0
 15 13  1  0  0  0  0
 16 15  1  0  0  0  0
 16 18  1  0  0  0  0
 16 17  1  1  0  0  0
 18  2  1  1  0  0  0
 18 19  1  0  0  0  0
 19 21  1  0  0  0  0
 19 20  1  6  0  0  0
 21 22  1  1  0  0  0
 23 20  1  1  0  0  0
 23 29  1  0  0  0  0
 23 24  1  0  0  0  0
 24 26  1  0  0  0  0
 24 25  1  6  0  0  0
 26 27  1  6  0  0  0
 28 26  1  0  0  0  0
 28 30  1  1  0  0  0
 29 28  1  0  0  0  0
 30 31  1  0  0  0  0
 32 27  1  6  0  0  0
 32 40  1  0  0  0  0
 32 33  1  0  0  0  0
 33 35  1  0  0  0  0
 33 34  1  6  0  0  0
 35 37  1  0  0  0  0
 35 36  1  1  0  0  0
 37 38  1  6  0  0  0
 39 37  1  0  0  0  0
 39 41  1  6  0  0  0
 40 39  1  0  0  0  0
 42 41  1  0  0  0  0
M  END
>  <CHROM.1>
-135.02569992,125.13561021,-148.01955094,-70.57027597,49.80083190,-55.35187025
15.86285148,95.13858229,-177.63822282,-134.57477477,117.45813670,-58.24858483
-53.15910559,82.63300342,-112.40084188,-61.29815136,49.67988252,-52.79386297
63.62758920,72.24196731,174.66085169,22.89889235,0.41634980,5.72093363,0.96425568
-2.68237026,-0.78266727,-2.49762617

>  <Name>
lig.pdb

>  <RI>
3.31443e+07

>  <Rbt.Current_Directory>
/home/itssahil/PROJECTS/Mol_Feturizer/New_Systems/rnas/2mxs

>  <Rbt.Executable>
rbdock ($Id: //depot/dev/client3/rdock/2013.1/src/exe/rbdock.cxx#4 $)

>  <Rbt.Library>
libRbt.so (2013.1, Build901 2013/11/27)

>  <Rbt.Parameter_File>
/export/apps/rDock/src/rDock_2013.1_src/data/scripts/dock_solv.prm

>  <Rbt.Receptor>
prm/blind_docking_40.prm

>  <SCORE>
49.3694

>  <SCORE.INTER>
2.31941

>  <SCORE.INTER.CONST>
1

>  <SCORE.INTER.POLAR>
-2.14257

>  <SCORE.INTER.ROT>
9

>  <SCORE.INTER.SOLV>
31.8217

>  <SCORE.INTER.VDW>
-11.5191

>  <SCORE.INTER.norm>
0.0552241

>  <SCORE.INTRA>
17.4292

>  <SCORE.INTRA.DIHEDRAL>
20.1393

>  <SCORE.INTRA.DIHEDRAL.0>
30.1357

>  <SCORE.INTRA.POLAR>
-1.23502

>  <SCORE.INTRA.POLAR.0>
-0.631696

>  <SCORE.INTRA.REPUL>
0

>  <SCORE.INTRA.REPUL.0>
0

>  <SCORE.INTRA.SOLV>
3.0548

>  <SCORE.INTRA.SOLV.lig_0>
-55.904

>  <SCORE.INTRA.VDW>
10.0312

>  <SCORE.INTRA.VDW.0>
-8.21197

>  <SCORE.INTRA.norm>
0.41498

>  <SCORE.RESTR>
29.6208

>  <SCORE.RESTR.CAVITY>
29.6208

>  <SCORE.RESTR.norm>
0.705258

>  <SCORE.SYSTEM>
0

>  <SCORE.SYSTEM.CONST>
0

>  <SCORE.SYSTEM.DIHEDRAL>
0

>  <SCORE.SYSTEM.SOLV>
0

>  <SCORE.SYSTEM.norm>
0

>  <SCORE.heavy>
42

>  <SCORE.norm>
1.17546

>  <RMSD>
8.430

$$$$
lig.pdb
 OpenBabel11021811453D
libRbt.so/2013.1/901 2013/11/27
 42 45  0  0  0  0  0  0  0  0999 V2000
    1.0463    5.6748    7.3884 C   0  0  2  0  0  0  0  0  0  0  0  0
   -0.2514    5.9210    6.8434 O   0  0  0  0  0  0  0  0  0  0  0  0
    1.1661    4.2253    7.8827 C   0  0  2  0  0  0  0  0  0  0  0  0
    0.8245    3.2711    6.8116 N   0  0  0  0  0  0  0  0  0  0  0  0
    0.2956    3.9941    9.1246 C   0  0  1  0  0  0  0  0  0  0  0  0
    0.5468    2.7008    9.6401 O   0  0  0  0  0  0  0  0  0  0  0  0
    0.6155    5.0421   10.2013 C   0  0  2  0  0  0  0  0  0  0  0  0
   -0.3024    4.9113   11.2698 O   0  0  0  0  0  0  0  0  0  0  0  0
    0.5540    6.4742    9.6325 C   0  0  2  0  0  0  0  0  0  0  0  0
    1.3330    6.5906    8.4423 O   0  0  0  0  0  0  0  0  0  0  0  0
    1.0948    7.4390   10.7048 C   0  0  0  0  0  0  0  0  0  0  0  0
    0.6204    8.7980   10.5083 O   0  0  0  0  0  0  0  0  0  0  0  0
   -1.4029    7.7433    3.1173 C   0  0  2  0  0  0  0  0  0  0  0  0
   -1.1560    8.1218    1.7115 N   0  0  0  0  0  0  0  0  0  0  0  0
   -0.3610    8.3903    4.0332 C   0  0  0  0  0  0  0  0  0  0  0  0
   -0.5225    7.8935    5.4650 C   0  0  2  0  0  0  0  0  0  0  0  0
    0.4154    8.5921    6.3528 N   0  0  0  0  0  0  0  0  0  0  0  0
   -0.3032    6.3628    5.4790 C   0  0  2  0  0  0  0  0  0  0  0  0
   -1.4155    5.7182    4.7156 C   0  0  2  0  0  0  0  0  0  0  0  0
   -1.2188    4.3174    4.7761 O   0  0  0  0  0  0  0  0  0  0  0  0
   -1.4029    6.2118    3.2812 C   0  0  1  0  0  0  0  0  0  0  0  0
   -2.4880    5.6971    2.5324 O   0  0  0  0  0  0  0  0  0  0  0  0
   -2.3149    3.4783    4.4280 C   0  0  1  0  0  0  0  0  0  0  0  0
   -1.9428    2.7310    3.1456 C   0  0  2  0  0  0  0  0  0  0  0  0
   -3.0972    2.5778    2.3414 O   0  0  0  0  0  0  0  0  0  0  0  0
   -1.4089    1.3966    3.6835 C   0  0  2  0  0  0  0  0  0  0  0  0
   -1.4442    0.3534    2.7092 O   0  0  0  0  0  0  0  0  0  0  0  0
   -2.3506    1.1954    4.8772 C   0  0  2  0  0  0  0  0  0  0  0  0
   -2.5018    2.4928    5.4360 O   0  0  0  0  0  0  0  0  0  0  0  0
   -1.8119    0.2484    5.9558 C   0  0  0  0  0  0  0  0  0  0  0  0
   -2.8469   -0.2424    6.7810 O   0  0  0  0  0  0  0  0  0  0  0  0
   -0.9105    0.7111    1.4359 C   0  0  2  0  0  0  0  0  0  0  0  0
   -0.7302   -0.5150    0.5279 C   0  0  2  0  0  0  0  0  0  0  0  0
   -1.9942   -1.2573    0.3889 N   0  0  0  0  0  0  0  0  0  0  0  0
    0.4007   -1.4209    1.0377 C   0  0  1  0  0  0  0  0  0  0  0  0
    0.5778   -2.4822    0.1195 O   0  0  0  0  0  0  0  0  0  0  0  0
    1.6875   -0.5839    1.1356 C   0  0  2  0  0  0  0  0  0  0  0  0
    2.7549   -1.3631    1.6433 O   0  0  0  0  0  0  0  0  0  0  0  0
    1.4683    0.6663    2.0123 C   0  0  1  0  0  0  0  0  0  0  0  0
    0.3234    1.4092    1.5873 O   0  0  0  0  0  0  0  0  0  0  0  0
    1.4248    0.3555    3.5157 C   0  0  0  0  0  0  0  0  0  0  0  0
    2.7425   -0.0714    4.0133 N   0  0  0  0  0  0  0  0  0  0  0  0
  1  3  1  0  0  0  0
  1  2  1  1  0  0  0
  3  4  1  6  0  0  0
  5  6  1  1  0  0  0
  5  3  1  0  0  0  0
  7  9  1  0  0  0  0
  7  5  1  0  0  0  0
  7  8  1  1  0  0  0
  9 10  1  0  0  0  0
  9 11  1  1  0  0  0
 10  1  1  0  0  0  0
 11 12  1  0  0  0  0
 13 14  1  6  0  0  0
 13 21  1  0  0  0  0
 15 13  1  0  0  0  0
 16 15  1  0  0  0  0
 16 18  1  0  0  0  0
 16 17  1  1  0  0  0
 18  2  1  1  0  0  0
 18 19  1  0  0  0  0
 19 21  1  0  0  0  0
 19 20  1  6  0  0  0
 21 22  1  6  0  0  0
 23 20  1  1  0  0  0
 23 29  1  0  0  0  0
 23 24  1  0  0  0  0
 24 26  1  0  0  0  0
 24 25  1  6  0  0  0
 26 27  1  6  0  0  0
 28 26  1  0  0  0  0
 28 30  1  1  0  0  0
 29 28  1  0  0  0  0
 30 31  1  0  0  0  0
 32 27  1  1  0  0  0
 32 40  1  0  0  0  0
 32 33  1  0  0  0  0
 33 35  1  0  0  0  0
 33 34  1  1  0  0  0
 35 37  1  0  0  0  0
 35 36  1  6  0  0  0
 37 38  1  1  0  0  0
 39 37  1  0  0  0  0
 39 41  1  1  0  0  0
 40 39  1  0  0  0  0
 42 41  1  0  0  0  0
M  END
>  <CHROM.1>
-100.88334473,-121.75288863,-49.80270111,-179.01112323,173.15564238,62.47015601
-157.69189668,59.88494763,77.08914118,164.06926164,113.70907166,63.64120700
-62.95073970,47.84931856,169.06906641,-160.58699190,-164.52581210,67.04320330
58.40525027,173.13331667,68.41510634,-175.61533239,-0.33855462,3.39667341
4.93069289,-1.43110663,1.28868701,-2.51626580

>  <Name>
lig.pdb

>  <RI>
0

>  <Rbt.Current_Directory>
/home/itssahil/PROJECTS/Mol_Feturizer/New_Systems/rnas/2mxs

>  <Rbt.Executable>
rbdock ($Id: //depot/dev/client3/rdock/2013.1/src/exe/rbdock.cxx#4 $)

>  <Rbt.Library>
libRbt.so (2013.1, Build901 2013/11/27)

>  <Rbt.Parameter_File>
/export/apps/rDock/src/rDock_2013.1_src/data/scripts/dock_solv.prm

>  <Rbt.Receptor>
prm/pocket_docking_6.prm

>  <SCORE>
-40.0458

>  <SCORE.INTER>
-38.3463

>  <SCORE.INTER.CONST>
1

>  <SCORE.INTER.POLAR>
-5.46172

>  <SCORE.INTER.ROT>
9

>  <SCORE.INTER.SOLV>
17.7588

>  <SCORE.INTER.VDW>
-22.878

>  <SCORE.INTER.norm>
-0.913007

>  <SCORE.INTRA>
-1.73648

>  <SCORE.INTRA.DIHEDRAL>
-1.40644

>  <SCORE.INTRA.DIHEDRAL.0>
30.1357

>  <SCORE.INTRA.POLAR>
-1.31757

>  <SCORE.INTRA.POLAR.0>
-0.631696

>  <SCORE.INTRA.REPUL>
0

>  <SCORE.INTRA.REPUL.0>
0

>  <SCORE.INTRA.SOLV>
-0.458838

>  <SCORE.INTRA.SOLV.lig_0>
-55.904

>  <SCORE.INTRA.VDW>
3.6759

>  <SCORE.INTRA.VDW.0>
-8.21197

>  <SCORE.INTRA.norm>
-0.0413449

>  <SCORE.RESTR>
0.036959

>  <SCORE.RESTR.CAVITY>
0.036959

>  <SCORE.RESTR.norm>
0.000879976

>  <SCORE.SYSTEM>
0

>  <SCORE.SYSTEM.CONST>
0

>  <SCORE.SYSTEM.DIHEDRAL>
0

>  <SCORE.SYSTEM.SOLV>
0

>  <SCORE.SYSTEM.norm>
0

>  <SCORE.heavy>
42

>  <SCORE.norm>
-0.953471

>  <RMSD>
8.431

$$$$
lig.pdb
 OpenBabel11021811453D
libRbt.so/2013.1/901 2013/11/27
 42 45  0  0  0  0  0  0  0  0999 V2000
    0.4512    5.4721    4.4367 C   0  0  2  0  0  0  0  0  0  0  0  0
   -0.5906    4.5023    4.3122 O   0  0  0  0  0  0  0  0  0  0  0  0
    0.6187    5.9105    5.8994 C   0  0  2  0  0  0  0  0  0  0  0  0
    0.8363    4.7470    6.7789 N   0  0  0  0  0  0  0  0  0  0  0  0
   -0.5862    6.7368    6.3673 C   0  0  1  0  0  0  0  0  0  0  0  0
   -0.3302    7.2498    7.6606 O   0  0  0  0  0  0  0  0  0  0  0  0
   -0.8408    7.9018    5.3988 C   0  0  2  0  0  0  0  0  0  0  0  0
   -2.0441    8.5541    5.7567 O   0  0  0  0  0  0  0  0  0  0  0  0
   -0.9254    7.4147    3.9381 C   0  0  2  0  0  0  0  0  0  0  0  0
    0.1954    6.5979    3.6007 O   0  0  0  0  0  0  0  0  0  0  0  0
   -0.9616    8.6526    3.0218 C   0  0  0  0  0  0  0  0  0  0  0  0
   -2.0500    8.5918    2.0617 O   0  0  0  0  0  0  0  0  0  0  0  0
   -4.8397    4.9128    3.7569 C   0  0  2  0  0  0  0  0  0  0  0  0
   -6.1091    5.6599    3.8597 N   0  0  0  0  0  0  0  0  0  0  0  0
   -4.2337    4.6997    5.1463 C   0  0  0  0  0  0  0  0  0  0  0  0
   -2.8570    4.0547    5.0385 C   0  0  2  0  0  0  0  0  0  0  0  0
   -2.3268    3.7648    6.3766 N   0  0  0  0  0  0  0  0  0  0  0  0
   -1.9329    5.0051    4.2421 C   0  0  2  0  0  0  0  0  0  0  0  0
   -2.4358    5.0865    2.8364 C   0  0  2  0  0  0  0  0  0  0  0  0
   -1.5532    5.9267    2.1155 O   0  0  0  0  0  0  0  0  0  0  0  0
   -3.8476    5.6414    2.8309 C   0  0  1  0  0  0  0  0  0  0  0  0
   -4.4057    5.6619    1.5304 O   0  0  0  0  0  0  0  0  0  0  0  0
   -1.7063    5.9916    0.7015 C   0  0  1  0  0  0  0  0  0  0  0  0
   -0.3605    6.4077    0.1042 C   0  0  2  0  0  0  0  0  0  0  0  0
   -0.5838    7.2416   -1.0173 O   0  0  0  0  0  0  0  0  0  0  0  0
    0.2661    5.0581   -0.2712 C   0  0  2  0  0  0  0  0  0  0  0  0
    1.2867    5.1784   -1.2625 O   0  0  0  0  0  0  0  0  0  0  0  0
   -0.9874    4.3004   -0.7258 C   0  0  2  0  0  0  0  0  0  0  0  0
   -1.9970    4.6962    0.1921 O   0  0  0  0  0  0  0  0  0  0  0  0
   -0.8522    2.7736   -0.6893 C   0  0  0  0  0  0  0  0  0  0  0  0
   -0.1675    2.2850   -1.8231 O   0  0  0  0  0  0  0  0  0  0  0  0
    2.5619    5.5706   -0.7581 C   0  0  2  0  0  0  0  0  0  0  0  0
    3.4612    6.1437   -1.8639 C   0  0  2  0  0  0  0  0  0  0  0  0
    2.7953    7.2577   -2.5593 N   0  0  0  0  0  0  0  0  0  0  0  0
    3.8975    5.0474   -2.8475 C   0  0  1  0  0  0  0  0  0  0  0  0
    4.7889    5.6137   -3.7885 O   0  0  0  0  0  0  0  0  0  0  0  0
    4.6015    3.9339   -2.0535 C   0  0  2  0  0  0  0  0  0  0  0  0
    4.9872    2.8745   -2.9099 O   0  0  0  0  0  0  0  0  0  0  0  0
    3.6980    3.4081   -0.9191 C   0  0  1  0  0  0  0  0  0  0  0  0
    3.2024    4.4754   -0.1075 O   0  0  0  0  0  0  0  0  0  0  0  0
    2.5689    2.4925   -1.4148 C   0  0  0  0  0  0  0  0  0  0  0  0
    2.2848    1.4199   -0.4478 N   0  0  0  0  0  0  0  0  0  0  0  0
  1  3  1  0  0  0  0
  1  2  1  1  0  0  0
  3  4  1  1  0  0  0
  5  6  1  1  0  0  0
  5  3  1  0  0  0  0
  7  9  1  0  0  0  0
  7  5  1  0  0  0  0
  7  8  1  1  0  0  0
  9 10  1  0  0  0  0
  9 11  1  6  0  0  0
 10  1  1  0  0  0  0
 11 12  1  0  0  0  0
 13 14  1  1  0  0  0
 13 21  1  0  0  0  0
 15 13  1  0  0  0  0
 16 15  1  0  0  0  0
 16 18  1  0  0  0  0
 16 17  1  1  0  0  0
 18  2  1  6  0  0  0
 18 19  1  0  0  0  0
 19 21  1  0  0  0  0
 19 20  1  6  0  0  0
 21 22  1  6  0  0  0
 23 20  1  1  0  0  0
 23 29  1  0  0  0  0
 23 24  1  0  0  0  0
 24 26  1  0  0  0  0
 24 25  1  6  0  0  0
 26 27  1  6  0  0  0
 28 26  1  0  0  0  0
 28 30  1  1  0  0  0
 29 28  1  0  0  0  0
 30 31  1  0  0  0  0
 32 27  1  6  0  0  0
 32 40  1  0  0  0  0
 32 33  1  0  0  0  0
 33 35  1  0  0  0  0
 33 34  1  6  0  0  0
 35 37  1  0  0  0  0
 35 36  1  6  0  0  0
 37 38  1  6  0  0  0
 39 37  1  0  0  0  0
 39 41  1  6  0  0  0
 40 39  1  0  0  0  0
 42 41  1  0  0  0  0
M  END
>  <CHROM.1>
-141.72729092,82.34455306,-172.52408419,-172.05354876,-177.81761715,-90.25554384
-129.77286724,-179.06774873,50.58292601,170.42084012,-155.40184207,-23.60237772
64.19462364,81.43714907,-160.34536074,-80.52502676,-172.60610937,-172.20328082
-72.20780246,-43.73297580,144.97926760,69.13705641,-0.17213682,5.35475186
1.71110175,-2.21287847,-0.08063213,-1.86657304

>  <Name>
lig.pdb

>  <RI>
3.31443e+07

>  <Rbt.Current_Directory>
/home/itssahil/PROJECTS/Mol_Feturizer/New_Systems/rnas/2mxs

>  <Rbt.Executable>
rbdock ($Id: //depot/dev/client3/rdock/2013.1/src/exe/rbdock.cxx#4 $)

>  <Rbt.Library>
libRbt.so (2013.1, Build901 2013/11/27)

>  <Rbt.Parameter_File>
/export/apps/rDock/src/rDock_2013.1_src/data/scripts/dock_solv.prm

>  <Rbt.Receptor>
prm/blind_docking_40.prm

>  <SCORE>
41.1132

>  <SCORE.INTER>
-1.09247

>  <SCORE.INTER.CONST>
1

>  <SCORE.INTER.POLAR>
-1.30811

>  <SCORE.INTER.ROT>
9

>  <SCORE.INTER.SOLV>
31.0579

>  <SCORE.INTER.VDW>
-16.3206

>  <SCORE.INTER.norm>
-0.0260111

>  <SCORE.INTRA>
17.9362

>  <SCORE.INTRA.DIHEDRAL>
5.76237

>  <SCORE.INTRA.DIHEDRAL.0>
30.1357

>  <SCORE.INTRA.POLAR>
0.6202

>  <SCORE.INTRA.POLAR.0>
-0.631696

>  <SCORE.INTRA.REPUL>
0.0349244

>  <SCORE.INTRA.REPUL.0>
0

>  <SCORE.INTRA.SOLV>
3.33933

>  <SCORE.INTRA.SOLV.lig_0>
-55.904

>  <SCORE.INTRA.VDW>
11.102

>  <SCORE.INTRA.VDW.0>
-8.21197

>  <SCORE.INTRA.norm>
0.427052

>  <SCORE.RESTR>
24.2694

>  <SCORE.RESTR.CAVITY>
24.2694

>  <SCORE.RESTR.norm>
0.577844

>  <SCORE.SYSTEM>
0

>  <SCORE.SYSTEM.CONST>
0

>  <SCORE.SYSTEM.DIHEDRAL>
0

>  <SCORE.SYSTEM.SOLV>
0

>  <SCORE.SYSTEM.norm>
0

>  <SCORE.heavy>
42

>  <SCORE.norm>
0.978885

>  <RMSD>
8.437

$$$$
lig.pdb
 OpenBabel11021811453D
libRbt.so/2013.1/901 2013/11/27
 42 45  0  0  0  0  0  0  0  0999 V2000
   -0.0686    3.7493    6.1132 C   0  0  2  0  0  0  0  0  0  0  0  0
   -0.8303    4.9564    6.1783 O   0  0  0  0  0  0  0  0  0  0  0  0
   -0.4288    2.8117    7.2755 C   0  0  2  0  0  0  0  0  0  0  0  0
   -1.8796    2.5503    7.3143 N   0  0  0  0  0  0  0  0  0  0  0  0
    0.0647    3.3788    8.6128 C   0  0  1  0  0  0  0  0  0  0  0  0
   -0.1469    2.4237    9.6347 O   0  0  0  0  0  0  0  0  0  0  0  0
    1.5620    3.7118    8.5294 C   0  0  2  0  0  0  0  0  0  0  0  0
    1.9606    4.3771    9.7126 O   0  0  0  0  0  0  0  0  0  0  0  0
    1.8781    4.5924    7.3035 C   0  0  2  0  0  0  0  0  0  0  0  0
    1.3282    4.0334    6.1110 O   0  0  0  0  0  0  0  0  0  0  0  0
    3.4094    4.6971    7.1710 C   0  0  0  0  0  0  0  0  0  0  0  0
    3.8125    5.8278    6.3529 O   0  0  0  0  0  0  0  0  0  0  0  0
   -1.4901    8.0292    3.2366 C   0  0  2  0  0  0  0  0  0  0  0  0
   -1.0584    8.8784    2.1084 N   0  0  0  0  0  0  0  0  0  0  0  0
   -0.5976    8.2712    4.4565 C   0  0  0  0  0  0  0  0  0  0  0  0
   -0.9460    7.2995    5.5778 C   0  0  2  0  0  0  0  0  0  0  0  0
   -0.1536    7.6031    6.7761 N   0  0  0  0  0  0  0  0  0  0  0  0
   -0.7013    5.8593    5.0705 C   0  0  2  0  0  0  0  0  0  0  0  0
   -1.6846    5.5671    3.9827 C   0  0  2  0  0  0  0  0  0  0  0  0
   -1.4712    4.2323    3.5619 O   0  0  0  0  0  0  0  0  0  0  0  0
   -1.4832    6.5415    2.8376 C   0  0  1  0  0  0  0  0  0  0  0  0
   -2.4441    6.3644    1.8137 O   0  0  0  0  0  0  0  0  0  0  0  0
   -2.3615    3.6929    2.5906 C   0  0  1  0  0  0  0  0  0  0  0  0
   -1.7121    2.4356    2.0083 C   0  0  2  0  0  0  0  0  0  0  0  0
   -2.0327    2.3372    0.6334 O   0  0  0  0  0  0  0  0  0  0  0  0
   -2.3428    1.3178    2.8496 C   0  0  2  0  0  0  0  0  0  0  0  0
   -2.2808    0.0424    2.2108 O   0  0  0  0  0  0  0  0  0  0  0  0
   -3.7579    1.8828    3.0242 C   0  0  2  0  0  0  0  0  0  0  0  0
   -3.5646    3.2761    3.2238 O   0  0  0  0  0  0  0  0  0  0  0  0
   -4.5249    1.3100    4.2217 C   0  0  0  0  0  0  0  0  0  0  0  0
   -3.8983    1.6348    5.4443 O   0  0  0  0  0  0  0  0  0  0  0  0
   -3.0806   -0.9680    2.8219 C   0  0  2  0  0  0  0  0  0  0  0  0
   -2.7423   -2.3667    2.2839 C   0  0  2  0  0  0  0  0  0  0  0  0
   -1.3066   -2.6560    2.4361 N   0  0  0  0  0  0  0  0  0  0  0  0
   -3.1961   -2.5242    0.8249 C   0  0  1  0  0  0  0  0  0  0  0  0
   -2.9383   -3.8525    0.4127 O   0  0  0  0  0  0  0  0  0  0  0  0
   -4.7037   -2.2286    0.7500 C   0  0  2  0  0  0  0  0  0  0  0  0
   -5.1664   -2.3180   -0.5851 O   0  0  0  0  0  0  0  0  0  0  0  0
   -5.0247   -0.8398    1.3397 C   0  0  1  0  0  0  0  0  0  0  0  0
   -4.4670   -0.6847    2.6467 O   0  0  0  0  0  0  0  0  0  0  0  0
   -4.6390    0.3203    0.4100 C   0  0  0  0  0  0  0  0  0  0  0  0
   -5.7172    0.6233   -0.5450 N   0  0  0  0  0  0  0  0  0  0  0  0
  1  3  1  0  0  0  0
  1  2  1  1  0  0  0
  3  4  1  1  0  0  0
  5  6  1  1  0  0  0
  5  3  1  0  0  0  0
  7  9  1  0  0  0  0
  7  5  1  0  0  0  0
  7  8  1  1  0  0  0
  9 10  1  0  0  0  0
  9 11  1  6  0  0  0
 10  1  1  0  0  0  0
 11 12  1  0  0  0  0
 13 14  1  6  0  0  0
 13 21  1  0  0  0  0
 15 13  1  0  0  0  0
 16 15  1  0  0  0  0
 16 18  1  0  0  0  0
 16 17  1  1  0  0  0
 18  2  1  1  0  0  0
 18 19  1  0  0  0  0
 19 21  1  0  0  0  0
 19 20  1  6  0  0  0
 21 22  1  6  0  0  0
 23 20  1  1  0  0  0
 23 29  1  0  0  0  0
 23 24  1  0  0  0  0
 24 26  1  0  0  0  0
 24 25  1  6  0  0  0
 26 27  1  6  0  0  0
 28 26  1  0  0  0  0
 28 30  1  1  0  0  0
 29 28  1  0  0  0  0
 30 31  1  0  0  0  0
 32 27  1  6  0  0  0
 32 40  1  0  0  0  0
 32 33  1  0  0  0  0
 33 35  1  0  0  0  0
 33 34  1  6  0  0  0
 35 37  1  0  0  0  0
 35 36  1  1  0  0  0
 37 38  1  6  0  0  0
 39 37  1  0  0  0  0
 39 41  1  6  0  0  0
 40 39  1  0  0  0  0
 42 41  1  0  0  0  0
M  END
>  <CHROM.1>
-151.31482598,-173.32104908,64.24877725,-173.27109687,178.37450741,-173.89044020
-160.89384883,-50.55087452,72.04720833,175.57797612,163.86996062,62.98038555
52.30434690,-168.07873433,-167.73231678,63.46216088,68.02940298,-173.86098120
-169.80695336,65.89875435,86.32907455,69.42669154,-1.68105384,2.75911117
4.00869095,-0.57219753,0.98876832,2.90331802

>  <Name>
lig.pdb

>  <RI>
0

>  <Rbt.Current_Directory>
/home/itssahil/PROJECTS/Mol_Feturizer/New_Systems/rnas/2mxs

>  <Rbt.Executable>
rbdock ($Id: //depot/dev/client3/rdock/2013.1/src/exe/rbdock.cxx#4 $)

>  <Rbt.Library>
libRbt.so (2013.1, Build901 2013/11/27)

>  <Rbt.Parameter_File>
/export/apps/rDock/src/rDock_2013.1_src/data/scripts/dock_solv.prm

>  <Rbt.Receptor>
prm/pocket_docking_6.prm

>  <SCORE>
-40.9575

>  <SCORE.INTER>
-36.7394

>  <SCORE.INTER.CONST>
1

>  <SCORE.INTER.POLAR>
-4.98702

>  <SCORE.INTER.ROT>
9

>  <SCORE.INTER.SOLV>
19.1576

>  <SCORE.INTER.VDW>
-23.8554

>  <SCORE.INTER.norm>
-0.874748

>  <SCORE.INTRA>
-4.52122

>  <SCORE.INTRA.DIHEDRAL>
-17.1554

>  <SCORE.INTRA.DIHEDRAL.0>
30.1357

>  <SCORE.INTRA.POLAR>
-0.479306

>  <SCORE.INTRA.POLAR.0>
-0.631696

>  <SCORE.INTRA.REPUL>
0

>  <SCORE.INTRA.REPUL.0>
0

>  <SCORE.INTRA.SOLV>
0.376486

>  <SCORE.INTRA.SOLV.lig_0>
-55.904

>  <SCORE.INTRA.VDW>
5.49786

>  <SCORE.INTRA.VDW.0>
-8.21197

>  <SCORE.INTRA.norm>
-0.107648

>  <SCORE.RESTR>
0.303112

>  <SCORE.RESTR.CAVITY>
0.303112

>  <SCORE.RESTR.norm>
0.00721696

>  <SCORE.SYSTEM>
0

>  <SCORE.SYSTEM.CONST>
0

>  <SCORE.SYSTEM.DIHEDRAL>
0

>  <SCORE.SYSTEM.SOLV>
0

>  <SCORE.SYSTEM.norm>
0

>  <SCORE.heavy>
42

>  <SCORE.norm>
-0.975179

>  <RMSD>
8.442

$$$$
lig.pdb
 OpenBabel11021811453D
libRbt.so/2013.1/901 2013/11/27
 42 45  0  0  0  0  0  0  0  0999 V2000
   -2.9227   -1.6921    2.7466 C   0  0  2  0  0  0  0  0  0  0  0  0
   -3.4768   -2.9801    2.4717 O   0  0  0  0  0  0  0  0  0  0  0  0
   -1.4464   -1.8074    3.1550 C   0  0  2  0  0  0  0  0  0  0  0  0
   -0.6710   -2.5382    2.1357 N   0  0  0  0  0  0  0  0  0  0  0  0
   -1.3068   -2.4686    4.5322 C   0  0  1  0  0  0  0  0  0  0  0  0
    0.0465   -2.4197    4.9417 O   0  0  0  0  0  0  0  0  0  0  0  0
   -2.1777   -1.7368    5.5646 C   0  0  2  0  0  0  0  0  0  0  0  0
   -2.1594   -2.4528    6.7847 O   0  0  0  0  0  0  0  0  0  0  0  0
   -3.6307   -1.5830    5.0713 C   0  0  2  0  0  0  0  0  0  0  0  0
   -3.6735   -1.0252    3.7582 O   0  0  0  0  0  0  0  0  0  0  0  0
   -4.3746   -0.6585    6.0538 C   0  0  0  0  0  0  0  0  0  0  0  0
   -3.7240    0.6331    6.1900 O   0  0  0  0  0  0  0  0  0  0  0  0
   -5.5807   -4.0884   -1.1167 C   0  0  2  0  0  0  0  0  0  0  0  0
   -6.7262   -4.0021   -2.0443 N   0  0  0  0  0  0  0  0  0  0  0  0
   -6.0466   -4.5661    0.2610 C   0  0  0  0  0  0  0  0  0  0  0  0
   -4.8973   -4.5230    1.2611 C   0  0  2  0  0  0  0  0  0  0  0  0
   -5.3277   -5.0747    2.5519 N   0  0  0  0  0  0  0  0  0  0  0  0
   -4.4144   -3.0595    1.3882 C   0  0  2  0  0  0  0  0  0  0  0  0
   -3.8114   -2.6450    0.0843 C   0  0  2  0  0  0  0  0  0  0  0  0
   -3.3389   -1.3189    0.2351 O   0  0  0  0  0  0  0  0  0  0  0  0
   -4.8563   -2.7331   -1.0120 C   0  0  1  0  0  0  0  0  0  0  0  0
   -4.3172   -2.4318   -2.2854 O   0  0  0  0  0  0  0  0  0  0  0  0
   -2.5805   -0.7598   -0.8322 C   0  0  1  0  0  0  0  0  0  0  0  0
   -2.7393    0.7609   -0.7722 C   0  0  2  0  0  0  0  0  0  0  0  0
   -2.7673    1.2809   -2.0881 O   0  0  0  0  0  0  0  0  0  0  0  0
   -1.4939    1.1926    0.0136 C   0  0  2  0  0  0  0  0  0  0  0  0
   -1.1520    2.5624   -0.2001 O   0  0  0  0  0  0  0  0  0  0  0  0
   -0.4748    0.1822   -0.5274 C   0  0  2  0  0  0  0  0  0  0  0  0
   -1.1997   -1.0351   -0.6330 O   0  0  0  0  0  0  0  0  0  0  0  0
    0.7404   -0.0391    0.3808 C   0  0  0  0  0  0  0  0  0  0  0  0
    1.7406   -0.7983   -0.2646 O   0  0  0  0  0  0  0  0  0  0  0  0
   -0.6605    3.2396    0.9548 C   0  0  2  0  0  0  0  0  0  0  0  0
   -0.8033    4.7638    0.8265 C   0  0  2  0  0  0  0  0  0  0  0  0
   -2.1977    5.1394    0.5391 N   0  0  0  0  0  0  0  0  0  0  0  0
    0.1594    5.3237   -0.2315 C   0  0  1  0  0  0  0  0  0  0  0  0
    0.0458    6.7335   -0.2443 O   0  0  0  0  0  0  0  0  0  0  0  0
    1.5918    4.9103    0.1471 C   0  0  2  0  0  0  0  0  0  0  0  0
    2.5178    5.3660   -0.8220 O   0  0  0  0  0  0  0  0  0  0  0  0
    1.6989    3.3809    0.3176 C   0  0  1  0  0  0  0  0  0  0  0  0
    0.6967    2.8820    1.2063 O   0  0  0  0  0  0  0  0  0  0  0  0
    1.7137    2.6193   -1.0160 C   0  0  0  0  0  0  0  0  0  0  0  0
    2.8620    3.0156   -1.8471 N   0  0  0  0  0  0  0  0  0  0  0  0
  1  3  1  0  0  0  0
  1  2  1  1  0  0  0
  3  4  1  6  0  0  0
  5  6  1  1  0  0  0
  5  3  1  0  0  0  0
  7  9  1  0  0  0  0
  7  5  1  0  0  0  0
  7  8  1  1  0  0  0
  9 10  1  0  0  0  0
  9 11  1  1  0  0  0
 10  1  1  0  0  0  0
 11 12  1  0  0  0  0
 13 14  1  6  0  0  0
 13 21  1  0  0  0  0
 15 13  1  0  0  0  0
 16 15  1  0  0  0  0
 16 18  1  0  0  0  0
 16 17  1  1  0  0  0
 18  2  1  1  0  0  0
 18 19  1  0  0  0  0
 19 21  1  0  0  0  0
 19 20  1  1  0  0  0
 21 22  1  6  0  0  0
 23 20  1  1  0  0  0
 23 29  1  0  0  0  0
 23 24  1  0  0  0  0
 24 26  1  0  0  0  0
 24 25  1  6  0  0  0
 26 27  1  6  0  0  0
 28 26  1  0  0  0  0
 28 30  1  1  0  0  0
 29 28  1  0  0  0  0
 30 31  1  0  0  0  0
 32 27  1  6  0  0  0
 32 40  1  0  0  0  0
 32 33  1  0  0  0  0
 33 35  1  0  0  0  0
 33 34  1  6  0  0  0
 35 37  1  0  0  0  0
 35 36  1  1  0  0  0
 37 38  1  6  0  0  0
 39 37  1  0  0  0  0
 39 41  1  6  0  0  0
 40 39  1  0  0  0  0
 42 41  1  0  0  0  0
M  END
>  <CHROM.1>
-179.69583157,-142.74800066,-178.66675597,-76.35475316,-62.81273535,65.36803205
56.91701661,-61.28363787,-69.63305640,172.78844818,154.11887275,70.04204662
-61.68351453,142.68269293,-158.87075682,-170.11146535,-44.92102500,-173.74145945
-67.69782167,63.51595673,60.61189015,-43.85838908,-1.90931463,-0.08766352
1.12116074,-2.69156469,-0.91828170,-1.34497703

>  <Name>
lig.pdb

>  <RI>
4.11275e+07

>  <Rbt.Current_Directory>
/home/itssahil/PROJECTS/Mol_Feturizer/New_Systems/rnas/2mxs

>  <Rbt.Executable>
rbdock ($Id: //depot/dev/client3/rdock/2013.1/src/exe/rbdock.cxx#4 $)

>  <Rbt.Library>
libRbt.so (2013.1, Build901 2013/11/27)

>  <Rbt.Parameter_File>
/export/apps/rDock/src/rDock_2013.1_src/data/scripts/dock_solv.prm

>  <Rbt.Receptor>
prm/pocket_docking_8.prm

>  <SCORE>
-65.0247

>  <SCORE.INTER>
-60.1231

>  <SCORE.INTER.CONST>
1

>  <SCORE.INTER.POLAR>
-7.9173

>  <SCORE.INTER.ROT>
9

>  <SCORE.INTER.SOLV>
22.8483

>  <SCORE.INTER.VDW>
-30.9071

>  <SCORE.INTER.norm>
-1.4315

>  <SCORE.INTRA>
-4.90162

>  <SCORE.INTRA.DIHEDRAL>
-9.96572

>  <SCORE.INTRA.DIHEDRAL.0>
30.1357

>  <SCORE.INTRA.POLAR>
-1.02454

>  <SCORE.INTRA.POLAR.0>
-0.631696

>  <SCORE.INTRA.REPUL>
0

>  <SCORE.INTRA.REPUL.0>
0

>  <SCORE.INTRA.SOLV>
0.0400513

>  <SCORE.INTRA.SOLV.lig_0>
-55.904

>  <SCORE.INTRA.VDW>
3.54464

>  <SCORE.INTRA.VDW.0>
-8.21197

>  <SCORE.INTRA.norm>
-0.116705

>  <SCORE.RESTR>
0

>  <SCORE.RESTR.CAVITY>
0

>  <SCORE.RESTR.norm>
0

>  <SCORE.SYSTEM>
0

>  <SCORE.SYSTEM.CONST>
0

>  <SCORE.SYSTEM.DIHEDRAL>
0

>  <SCORE.SYSTEM.SOLV>
0

>  <SCORE.SYSTEM.norm>
0

>  <SCORE.heavy>
42

>  <SCORE.norm>
-1.54821

>  <RMSD>
8.453

$$$$
lig.pdb
 OpenBabel11021811453D
libRbt.so/2013.1/901 2013/11/27
 42 45  0  0  0  0  0  0  0  0999 V2000
   -2.0835    6.5039    4.6629 C   0  0  2  0  0  0  0  0  0  0  0  0
   -1.8272    6.7447    3.2780 O   0  0  0  0  0  0  0  0  0  0  0  0
   -1.4162    7.5762    5.5373 C   0  0  2  0  0  0  0  0  0  0  0  0
   -1.8311    8.9295    5.1240 N   0  0  0  0  0  0  0  0  0  0  0  0
    0.1113    7.4359    5.5097 C   0  0  1  0  0  0  0  0  0  0  0  0
    0.6824    8.3358    6.4401 O   0  0  0  0  0  0  0  0  0  0  0  0
    0.5204    6.0005    5.8730 C   0  0  2  0  0  0  0  0  0  0  0  0
    1.9150    5.8500    5.6885 O   0  0  0  0  0  0  0  0  0  0  0  0
   -0.2344    4.9634    5.0169 C   0  0  2  0  0  0  0  0  0  0  0  0
   -1.6414    5.2020    5.0389 O   0  0  0  0  0  0  0  0  0  0  0  0
    0.0649    3.5635    5.5860 C   0  0  0  0  0  0  0  0  0  0  0  0
   -0.6142    3.3288    6.8486 O   0  0  0  0  0  0  0  0  0  0  0  0
   -3.1816    3.0549    1.5226 C   0  0  2  0  0  0  0  0  0  0  0  0
   -3.6102    2.2278    0.3769 N   0  0  0  0  0  0  0  0  0  0  0  0
   -4.1250    4.2471    1.7005 C   0  0  0  0  0  0  0  0  0  0  0  0
   -3.6106    5.1809    2.7896 C   0  0  2  0  0  0  0  0  0  0  0  0
   -4.5706    6.2675    3.0209 N   0  0  0  0  0  0  0  0  0  0  0  0
   -2.2236    5.7142    2.3614 C   0  0  2  0  0  0  0  0  0  0  0  0
   -1.2614    4.5699    2.3433 C   0  0  2  0  0  0  0  0  0  0  0  0
    0.0088    5.0860    1.9902 O   0  0  0  0  0  0  0  0  0  0  0  0
   -1.7266    3.5278    1.3439 C   0  0  1  0  0  0  0  0  0  0  0  0
   -0.8964    2.3816    1.3458 O   0  0  0  0  0  0  0  0  0  0  0  0
    0.1853    5.5598    0.6593 C   0  0  1  0  0  0  0  0  0  0  0  0
    1.6824    5.7865    0.4384 C   0  0  2  0  0  0  0  0  0  0  0  0
    1.8670    6.9172   -0.3924 O   0  0  0  0  0  0  0  0  0  0  0  0
    2.1199    4.4766   -0.2308 C   0  0  2  0  0  0  0  0  0  0  0  0
    3.3382    4.6095   -0.9635 O   0  0  0  0  0  0  0  0  0  0  0  0
    0.8808    4.1891   -1.0876 C   0  0  2  0  0  0  0  0  0  0  0  0
   -0.2168    4.5551   -0.2632 O   0  0  0  0  0  0  0  0  0  0  0  0
    0.7246    2.7213   -1.5021 C   0  0  0  0  0  0  0  0  0  0  0  0
    0.9699    2.5413   -2.8807 O   0  0  0  0  0  0  0  0  0  0  0  0
    3.2860    4.1116   -2.2989 C   0  0  2  0  0  0  0  0  0  0  0  0
    4.4636    3.1734   -2.6046 C   0  0  2  0  0  0  0  0  0  0  0  0
    4.5289    2.0750   -1.6262 N   0  0  0  0  0  0  0  0  0  0  0  0
    5.7880    3.9489   -2.6687 C   0  0  1  0  0  0  0  0  0  0  0  0
    6.8186    3.0527   -3.0368 O   0  0  0  0  0  0  0  0  0  0  0  0
    5.6501    5.0605   -3.7228 C   0  0  2  0  0  0  0  0  0  0  0  0
    6.8329    5.8355   -3.7917 O   0  0  0  0  0  0  0  0  0  0  0  0
    4.4334    5.9598   -3.4219 C   0  0  1  0  0  0  0  0  0  0  0  0
    3.2454    5.1872   -3.2341 O   0  0  0  0  0  0  0  0  0  0  0  0
    4.6711    6.9375   -2.2616 C   0  0  0  0  0  0  0  0  0  0  0  0
    3.5371    7.8613   -2.0980 N   0  0  0  0  0  0  0  0  0  0  0  0
  1  3  1  0  0  0  0
  1  2  1  6  0  0  0
  3  4  1  6  0  0  0
  5  6  1  1  0  0  0
  5  3  1  0  0  0  0
  7  9  1  0  0  0  0
  7  5  1  0  0  0  0
  7  8  1  6  0  0  0
  9 10  1  0  0  0  0
  9 11  1  1  0  0  0
 10  1  1  0  0  0  0
 11 12  1  0  0  0  0
 13 14  1  6  0  0  0
 13 21  1  0  0  0  0
 15 13  1  0  0  0  0
 16 15  1  0  0  0  0
 16 18  1  0  0  0  0
 16 17  1  6  0  0  0
 18  2  1  1  0  0  0
 18 19  1  0  0  0  0
 19 21  1  0  0  0  0
 19 20  1  6  0  0  0
 21 22  1  1  0  0  0
 23 20  1  1  0  0  0
 23 29  1  0  0  0  0
 23 24  1  0  0  0  0
 24 26  1  0  0  0  0
 24 25  1  6  0  0  0
 26 27  1  6  0  0  0
 28 26  1  0  0  0  0
 28 30  1  1  0  0  0
 29 28  1  0  0  0  0
 30 31  1  0  0  0  0
 32 27  1  1  0  0  0
 32 40  1  0  0  0  0
 32 33  1  0  0  0  0
 33 35  1  0  0  0  0
 33 34  1  1  0  0  0
 35 37  1  0  0  0  0
 35 36  1  6  0  0  0
 37 38  1  1  0  0  0
 39 37  1  0  0  0  0
 39 41  1  1  0  0  0
 40 39  1  0  0  0  0
 42 41  1  0  0  0  0
M  END
>  <CHROM.1>
41.94214155,171.10556013,-175.02210830,-66.52034413,-179.56592586,61.38153858
72.66828554,84.99752146,155.22636498,-68.88606497,-168.42093849,65.49998497
73.96782037,-129.62042061,-130.16839694,-109.09406052,82.35170850,85.51772511
-177.63946116,176.97231752,174.39704298,-47.73344060,0.81143065,5.03654101
1.10191690,-2.36151822,-0.42966675,-2.13185790

>  <Name>
lig.pdb

>  <RI>
3.31443e+07

>  <Rbt.Current_Directory>
/home/itssahil/PROJECTS/Mol_Feturizer/New_Systems/rnas/2mxs

>  <Rbt.Executable>
rbdock ($Id: //depot/dev/client3/rdock/2013.1/src/exe/rbdock.cxx#4 $)

>  <Rbt.Library>
libRbt.so (2013.1, Build901 2013/11/27)

>  <Rbt.Parameter_File>
/export/apps/rDock/src/rDock_2013.1_src/data/scripts/dock_solv.prm

>  <Rbt.Receptor>
prm/blind_docking_40.prm

>  <SCORE>
13.8153

>  <SCORE.INTER>
-27.7405

>  <SCORE.INTER.CONST>
1

>  <SCORE.INTER.POLAR>
-4.82516

>  <SCORE.INTER.ROT>
9

>  <SCORE.INTER.SOLV>
29.5564

>  <SCORE.INTER.VDW>
-21.8619

>  <SCORE.INTER.norm>
-0.660488

>  <SCORE.INTRA>
11.803

>  <SCORE.INTRA.DIHEDRAL>
0.207387

>  <SCORE.INTRA.DIHEDRAL.0>
30.1357

>  <SCORE.INTRA.POLAR>
-0.390145

>  <SCORE.INTRA.POLAR.0>
-0.631696

>  <SCORE.INTRA.REPUL>
0

>  <SCORE.INTRA.REPUL.0>
0

>  <SCORE.INTRA.SOLV>
2.04675

>  <SCORE.INTRA.SOLV.lig_0>
-55.904

>  <SCORE.INTRA.VDW>
12.0024

>  <SCORE.INTRA.VDW.0>
-8.21197

>  <SCORE.INTRA.norm>
0.281023

>  <SCORE.RESTR>
29.7528

>  <SCORE.RESTR.CAVITY>
29.7528

>  <SCORE.RESTR.norm>
0.7084

>  <SCORE.SYSTEM>
0

>  <SCORE.SYSTEM.CONST>
0

>  <SCORE.SYSTEM.DIHEDRAL>
0

>  <SCORE.SYSTEM.SOLV>
0

>  <SCORE.SYSTEM.norm>
0

>  <SCORE.heavy>
42

>  <SCORE.norm>
0.328936

>  <RMSD>
8.461

$$$$
lig.pdb
 OpenBabel11021811453D
libRbt.so/2013.1/901 2013/11/27
 42 45  0  0  0  0  0  0  0  0999 V2000
   -1.5346    3.4775    5.4744 C   0  0  2  0  0  0  0  0  0  0  0  0
   -2.2152    4.2507    6.4646 O   0  0  0  0  0  0  0  0  0  0  0  0
   -2.2280    2.1227    5.2662 C   0  0  2  0  0  0  0  0  0  0  0  0
   -3.6556    2.3029    4.9441 N   0  0  0  0  0  0  0  0  0  0  0  0
   -2.0499    1.2195    6.4935 C   0  0  1  0  0  0  0  0  0  0  0  0
   -2.5657   -0.0667    6.2088 O   0  0  0  0  0  0  0  0  0  0  0  0
   -0.5619    1.1022    6.8564 C   0  0  2  0  0  0  0  0  0  0  0  0
   -0.4315    0.3993    8.0772 O   0  0  0  0  0  0  0  0  0  0  0  0
    0.1013    2.4891    6.9791 C   0  0  2  0  0  0  0  0  0  0  0  0
   -0.1668    3.2927    5.8305 O   0  0  0  0  0  0  0  0  0  0  0  0
    1.6208    2.2821    7.1261 C   0  0  0  0  0  0  0  0  0  0  0  0
    1.9412    1.2363    8.0822 O   0  0  0  0  0  0  0  0  0  0  0  0
   -1.5622    8.4482    7.1611 C   0  0  2  0  0  0  0  0  0  0  0  0
   -0.7545    9.5874    7.6409 N   0  0  0  0  0  0  0  0  0  0  0  0
   -1.8612    7.4856    8.3131 C   0  0  0  0  0  0  0  0  0  0  0  0
   -2.5723    6.2389    7.8001 C   0  0  2  0  0  0  0  0  0  0  0  0
   -2.9420    5.3680    8.9229 N   0  0  0  0  0  0  0  0  0  0  0  0
   -1.6407    5.5238    6.7940 C   0  0  2  0  0  0  0  0  0  0  0  0
   -1.4778    6.4006    5.5940 C   0  0  2  0  0  0  0  0  0  0  0  0
   -0.6570    5.7105    4.6696 O   0  0  0  0  0  0  0  0  0  0  0  0
   -0.8503    7.7187    6.0064 C   0  0  1  0  0  0  0  0  0  0  0  0
   -0.7495    8.6219    4.9215 O   0  0  0  0  0  0  0  0  0  0  0  0
   -0.7387    6.0883    3.2994 C   0  0  1  0  0  0  0  0  0  0  0  0
    0.2999    5.2726    2.5267 C   0  0  2  0  0  0  0  0  0  0  0  0
    0.8456    6.0693    1.4922 O   0  0  0  0  0  0  0  0  0  0  0  0
   -0.5307    4.0954    1.9982 C   0  0  2  0  0  0  0  0  0  0  0  0
    0.0698    3.4561    0.8715 O   0  0  0  0  0  0  0  0  0  0  0  0
   -1.8525    4.8146    1.7021 C   0  0  2  0  0  0  0  0  0  0  0  0
   -2.0119    5.7275    2.7789 O   0  0  0  0  0  0  0  0  0  0  0  0
   -3.0761    3.8924    1.6458 C   0  0  0  0  0  0  0  0  0  0  0  0
   -4.2577    4.6127    1.3665 O   0  0  0  0  0  0  0  0  0  0  0  0
   -0.4603    2.1677    0.5667 C   0  0  2  0  0  0  0  0  0  0  0  0
    0.0078    1.1054    1.5730 C   0  0  2  0  0  0  0  0  0  0  0  0
   -0.3194    1.5061    2.9515 N   0  0  0  0  0  0  0  0  0  0  0  0
    1.5073    0.8131    1.4133 C   0  0  1  0  0  0  0  0  0  0  0  0
    1.8614   -0.2289    2.3019 O   0  0  0  0  0  0  0  0  0  0  0  0
    1.7666    0.3817   -0.0402 C   0  0  2  0  0  0  0  0  0  0  0  0
    3.1453    0.1408   -0.2533 O   0  0  0  0  0  0  0  0  0  0  0  0
    1.2449    1.4413   -1.0326 C   0  0  1  0  0  0  0  0  0  0  0  0
   -0.1161    1.7854   -0.7632 O   0  0  0  0  0  0  0  0  0  0  0  0
    2.1433    2.6835   -1.1249 C   0  0  0  0  0  0  0  0  0  0  0  0
    1.3510    3.9022   -1.3557 N   0  0  0  0  0  0  0  0  0  0  0  0
  1  3  1  0  0  0  0
  1  2  1  1  0  0  0
  3  4  1  1  0  0  0
  5  6  1  6  0  0  0
  5  3  1  0  0  0  0
  7  9  1  0  0  0  0
  7  5  1  0  0  0  0
  7  8  1  1  0  0  0
  9 10  1  0  0  0  0
  9 11  1  6  0  0  0
 10  1  1  0  0  0  0
 11 12  1  0  0  0  0
 13 14  1  1  0  0  0
 13 21  1  0  0  0  0
 15 13  1  0  0  0  0
 16 15  1  0  0  0  0
 16 18  1  0  0  0  0
 16 17  1  1  0  0  0
 18  2  1  6  0  0  0
 18 19  1  0  0  0  0
 19 21  1  0  0  0  0
 19 20  1  6  0  0  0
 21 22  1  6  0  0  0
 23 20  1  1  0  0  0
 23 29  1  0  0  0  0
 23 24  1  0  0  0  0
 24 26  1  0  0  0  0
 24 25  1  6  0  0  0
 26 27  1  6  0  0  0
 28 26  1  0  0  0  0
 28 30  1  1  0  0  0
 29 28  1  0  0  0  0
 30 31  1  0  0  0  0
 32 27  1  1  0  0  0
 32 40  1  0  0  0  0
 32 33  1  0  0  0  0
 33 35  1  0  0  0  0
 33 34  1  1  0  0  0
 35 37  1  0  0  0  0
 35 36  1  1  0  0  0
 37 38  1  1  0  0  0
 39 37  1  0  0  0  0
 39 41  1  1  0  0  0
 40 39  1  0  0  0  0
 42 41  1  0  0  0  0
M  END
>  <CHROM.1>
176.03595198,177.73186120,-45.04310893,62.05129860,63.28767882,80.13781035
-45.46561741,-61.29706074,-174.48000123,157.85148433,176.25360953,174.43700711
-178.57609337,164.18913829,-73.90513887,-179.83146817,-170.57421454,42.85305677
-177.59251006,160.44047921,-145.81625030,-175.94059261,-0.61237029,3.66789403
3.98954204,-2.87003483,1.25300135,-0.83276896

>  <Name>
lig.pdb

>  <RI>
0

>  <Rbt.Current_Directory>
/home/itssahil/PROJECTS/Mol_Feturizer/New_Systems/rnas/2mxs

>  <Rbt.Executable>
rbdock ($Id: //depot/dev/client3/rdock/2013.1/src/exe/rbdock.cxx#4 $)

>  <Rbt.Library>
libRbt.so (2013.1, Build901 2013/11/27)

>  <Rbt.Parameter_File>
/export/apps/rDock/src/rDock_2013.1_src/data/scripts/dock_solv.prm

>  <Rbt.Receptor>
prm/pocket_docking_6.prm

>  <SCORE>
-33.2767

>  <SCORE.INTER>
-28.4228

>  <SCORE.INTER.CONST>
1

>  <SCORE.INTER.POLAR>
-4.08515

>  <SCORE.INTER.ROT>
9

>  <SCORE.INTER.SOLV>
19.2355

>  <SCORE.INTER.VDW>
-21.3432

>  <SCORE.INTER.norm>
-0.676734

>  <SCORE.INTRA>
-4.85387

>  <SCORE.INTRA.DIHEDRAL>
-15.6124

>  <SCORE.INTRA.DIHEDRAL.0>
30.1357

>  <SCORE.INTRA.POLAR>
-0.368499

>  <SCORE.INTRA.POLAR.0>
-0.631696

>  <SCORE.INTRA.REPUL>
0

>  <SCORE.INTRA.REPUL.0>
0

>  <SCORE.INTRA.SOLV>
0.667614

>  <SCORE.INTRA.SOLV.lig_0>
-55.904

>  <SCORE.INTRA.VDW>
3.87143

>  <SCORE.INTRA.VDW.0>
-8.21197

>  <SCORE.INTRA.norm>
-0.115568

>  <SCORE.RESTR>
0

>  <SCORE.RESTR.CAVITY>
0

>  <SCORE.RESTR.norm>
0

>  <SCORE.SYSTEM>
0

>  <SCORE.SYSTEM.CONST>
0

>  <SCORE.SYSTEM.DIHEDRAL>
0

>  <SCORE.SYSTEM.SOLV>
0

>  <SCORE.SYSTEM.norm>
0

>  <SCORE.heavy>
42

>  <SCORE.norm>
-0.792302

>  <RMSD>
8.464

$$$$
lig.pdb
 OpenBabel11021811453D
libRbt.so/2013.1/901 2013/11/27
 42 45  0  0  0  0  0  0  0  0999 V2000
   -2.0364    3.2152    2.4589 C   0  0  2  0  0  0  0  0  0  0  0  0
   -0.9498    3.9482    1.8902 O   0  0  0  0  0  0  0  0  0  0  0  0
   -3.2460    3.2072    1.5121 C   0  0  2  0  0  0  0  0  0  0  0  0
   -2.8716    2.6988    0.1795 N   0  0  0  0  0  0  0  0  0  0  0  0
   -3.8755    4.6027    1.4123 C   0  0  1  0  0  0  0  0  0  0  0  0
   -5.0701    4.5263    0.6583 O   0  0  0  0  0  0  0  0  0  0  0  0
   -4.1922    5.1451    2.8142 C   0  0  2  0  0  0  0  0  0  0  0  0
   -4.6224    6.4888    2.7105 O   0  0  0  0  0  0  0  0  0  0  0  0
   -2.9649    5.0601    3.7441 C   0  0  2  0  0  0  0  0  0  0  0  0
   -2.3963    3.7510    3.7298 O   0  0  0  0  0  0  0  0  0  0  0  0
   -3.4209    5.4137    5.1725 C   0  0  0  0  0  0  0  0  0  0  0  0
   -2.6526    4.7077    6.1833 O   0  0  0  0  0  0  0  0  0  0  0  0
   -0.2291    6.9513    4.8890 C   0  0  2  0  0  0  0  0  0  0  0  0
    0.6404    7.9037    5.6082 N   0  0  0  0  0  0  0  0  0  0  0  0
    0.3011    5.5239    5.0459 C   0  0  0  0  0  0  0  0  0  0  0  0
   -0.5076    4.5540    4.1927 C   0  0  2  0  0  0  0  0  0  0  0  0
   -0.0557    3.1764    4.4249 N   0  0  0  0  0  0  0  0  0  0  0  0
   -0.3632    4.9694    2.7102 C   0  0  2  0  0  0  0  0  0  0  0  0
   -1.0253    6.2970    2.5239 C   0  0  2  0  0  0  0  0  0  0  0  0
   -0.9184    6.6386    1.1540 O   0  0  0  0  0  0  0  0  0  0  0  0
   -0.3480    7.3326    3.4014 C   0  0  1  0  0  0  0  0  0  0  0  0
   -0.9889    8.5923    3.3281 O   0  0  0  0  0  0  0  0  0  0  0  0
    0.3365    7.1228    0.6875 C   0  0  1  0  0  0  0  0  0  0  0  0
    1.3445    5.9754    0.7811 C   0  0  2  0  0  0  0  0  0  0  0  0
    2.6117    6.4936    1.1394 O   0  0  0  0  0  0  0  0  0  0  0  0
    1.3172    5.3947   -0.6392 C   0  0  2  0  0  0  0  0  0  0  0  0
    2.4898    4.6424   -0.9520 O   0  0  0  0  0  0  0  0  0  0  0  0
    1.1438    6.6846   -1.4504 C   0  0  2  0  0  0  0  0  0  0  0  0
    0.2347    7.4666   -0.6886 O   0  0  0  0  0  0  0  0  0  0  0  0
    0.5655    6.4760   -2.8549 C   0  0  0  0  0  0  0  0  0  0  0  0
    0.3442    7.7048   -3.5139 O   0  0  0  0  0  0  0  0  0  0  0  0
    2.3273    3.7014   -2.0113 C   0  0  2  0  0  0  0  0  0  0  0  0
    2.7522    2.2869   -1.5882 C   0  0  2  0  0  0  0  0  0  0  0  0
    2.0298    1.8603   -0.3782 N   0  0  0  0  0  0  0  0  0  0  0  0
    4.2736    2.1995   -1.3951 C   0  0  1  0  0  0  0  0  0  0  0  0
    4.6140    0.8604   -1.0923 O   0  0  0  0  0  0  0  0  0  0  0  0
    4.9557    2.6378   -2.7022 C   0  0  2  0  0  0  0  0  0  0  0  0
    6.3645    2.6167   -2.5639 O   0  0  0  0  0  0  0  0  0  0  0  0
    4.4773    4.0399   -3.1321 C   0  0  1  0  0  0  0  0  0  0  0  0
    3.0504    4.1178   -3.1675 O   0  0  0  0  0  0  0  0  0  0  0  0
    5.0934    5.1748   -2.3008 C   0  0  0  0  0  0  0  0  0  0  0  0
    5.5247    4.6968   -0.9773 N   0  0  0  0  0  0  0  0  0  0  0  0
  1  3  1  0  0  0  0
  1  2  1  6  0  0  0
  3  4  1  6  0  0  0
  5  6  1  6  0  0  0
  5  3  1  0  0  0  0
  7  9  1  0  0  0  0
  7  5  1  0  0  0  0
  7  8  1  6  0  0  0
  9 10  1  0  0  0  0
  9 11  1  1  0  0  0
 10  1  1  0  0  0  0
 11 12  1  0  0  0  0
 13 14  1  1  0  0  0
 13 21  1  0  0  0  0
 15 13  1  0  0  0  0
 16 15  1  0  0  0  0
 16 18  1  0  0  0  0
 16 17  1  6  0  0  0
 18  2  1  6  0  0  0
 18 19  1  0  0  0  0
 19 21  1  0  0  0  0
 19 20  1  6  0  0  0
 21 22  1  1  0  0  0
 23 20  1  6  0  0  0
 23 29  1  0  0  0  0
 23 24  1  0  0  0  0
 24 26  1  0  0  0  0
 24 25  1  6  0  0  0
 26 27  1  6  0  0  0
 28 26  1  0  0  0  0
 28 30  1  6  0  0  0
 29 28  1  0  0  0  0
 30 31  1  0  0  0  0
 32 27  1  1  0  0  0
 32 40  1  0  0  0  0
 32 33  1  0  0  0  0
 33 35  1  0  0  0  0
 33 34  1  1  0  0  0
 35 37  1  0  0  0  0
 35 36  1  6  0  0  0
 37 38  1  1  0  0  0
 39 37  1  0  0  0  0
 39 41  1  1  0  0  0
 40 39  1  0  0  0  0
 42 41  1  0  0  0  0
M  END
>  <CHROM.1>
30.05976815,128.33604997,145.96006892,-114.01274371,61.60821840,-118.67795225
148.43258058,-81.65239997,-87.66868080,-77.13654621,66.74548981,174.52846302
-127.09131037,158.11423437,-126.08027654,175.91717754,71.50504303,62.78665111
-68.63335365,65.17872356,-23.99281290,-48.50689223,0.34620407,4.92016871
0.97771114,2.61868593,0.55783057,0.53673375

>  <Name>
lig.pdb

>  <RI>
3.31443e+07

>  <Rbt.Current_Directory>
/home/itssahil/PROJECTS/Mol_Feturizer/New_Systems/rnas/2mxs

>  <Rbt.Executable>
rbdock ($Id: //depot/dev/client3/rdock/2013.1/src/exe/rbdock.cxx#4 $)

>  <Rbt.Library>
libRbt.so (2013.1, Build901 2013/11/27)

>  <Rbt.Parameter_File>
/export/apps/rDock/src/rDock_2013.1_src/data/scripts/dock_solv.prm

>  <Rbt.Receptor>
prm/blind_docking_40.prm

>  <SCORE>
226.839

>  <SCORE.INTER>
159.902

>  <SCORE.INTER.CONST>
1

>  <SCORE.INTER.POLAR>
-2.23602

>  <SCORE.INTER.ROT>
9

>  <SCORE.INTER.SOLV>
37.3994

>  <SCORE.INTER.VDW>
91.9885

>  <SCORE.INTER.norm>
3.8072

>  <SCORE.INTRA>
47.8298

>  <SCORE.INTRA.DIHEDRAL>
25.1382

>  <SCORE.INTRA.DIHEDRAL.0>
30.1357

>  <SCORE.INTRA.POLAR>
-0.186741

>  <SCORE.INTRA.POLAR.0>
-0.631696

>  <SCORE.INTRA.REPUL>
0

>  <SCORE.INTRA.REPUL.0>
0

>  <SCORE.INTRA.SOLV>
2.6146

>  <SCORE.INTRA.SOLV.lig_0>
-55.904

>  <SCORE.INTRA.VDW>
34.5883

>  <SCORE.INTRA.VDW.0>
-8.21197

>  <SCORE.INTRA.norm>
1.13881

>  <SCORE.RESTR>
19.1064

>  <SCORE.RESTR.CAVITY>
19.1064

>  <SCORE.RESTR.norm>
0.454914

>  <SCORE.SYSTEM>
0

>  <SCORE.SYSTEM.CONST>
0

>  <SCORE.SYSTEM.DIHEDRAL>
0

>  <SCORE.SYSTEM.SOLV>
0

>  <SCORE.SYSTEM.norm>
0

>  <SCORE.heavy>
42

>  <SCORE.norm>
5.40092

>  <RMSD>
8.476

$$$$
lig.pdb
 OpenBabel11021811453D
libRbt.so/2013.1/901 2013/11/27
 42 45  0  0  0  0  0  0  0  0999 V2000
   -1.7096    3.9589    6.4089 C   0  0  2  0  0  0  0  0  0  0  0  0
   -1.5749    5.3717    6.5744 O   0  0  0  0  0  0  0  0  0  0  0  0
   -2.6016    3.3619    7.5078 C   0  0  2  0  0  0  0  0  0  0  0  0
   -3.9093    4.0417    7.5553 N   0  0  0  0  0  0  0  0  0  0  0  0
   -1.9030    3.4155    8.8726 C   0  0  1  0  0  0  0  0  0  0  0  0
   -2.6842    2.7231    9.8276 O   0  0  0  0  0  0  0  0  0  0  0  0
   -0.5134    2.7666    8.7850 C   0  0  2  0  0  0  0  0  0  0  0  0
    0.1746    2.9662   10.0049 O   0  0  0  0  0  0  0  0  0  0  0  0
    0.3107    3.3501    7.6193 C   0  0  2  0  0  0  0  0  0  0  0  0
   -0.4317    3.3276    6.4005 O   0  0  0  0  0  0  0  0  0  0  0  0
    1.5888    2.5039    7.4657 C   0  0  0  0  0  0  0  0  0  0  0  0
    1.2923    1.0998    7.2400 O   0  0  0  0  0  0  0  0  0  0  0  0
   -1.6262    8.2054    3.3343 C   0  0  2  0  0  0  0  0  0  0  0  0
   -1.0226    8.8628    2.1580 N   0  0  0  0  0  0  0  0  0  0  0  0
   -0.7539    8.4255    4.5727 C   0  0  0  0  0  0  0  0  0  0  0  0
   -1.2945    7.6341    5.7577 C   0  0  2  0  0  0  0  0  0  0  0  0
   -0.5103    7.9281    6.9637 N   0  0  0  0  0  0  0  0  0  0  0  0
   -1.2622    6.1306    5.3973 C   0  0  2  0  0  0  0  0  0  0  0  0
   -2.2371    5.8882    4.2900 C   0  0  2  0  0  0  0  0  0  0  0  0
   -2.2223    4.5015    4.0044 O   0  0  0  0  0  0  0  0  0  0  0  0
   -1.8402    6.7025    3.0732 C   0  0  1  0  0  0  0  0  0  0  0  0
   -2.7773    6.5760    2.0202 O   0  0  0  0  0  0  0  0  0  0  0  0
   -3.1744    4.0071    3.0686 C   0  0  1  0  0  0  0  0  0  0  0  0
   -2.4062    3.4753    1.8567 C   0  0  2  0  0  0  0  0  0  0  0  0
   -3.1460    3.7415    0.6800 O   0  0  0  0  0  0  0  0  0  0  0  0
   -2.2968    1.9762    2.1664 C   0  0  2  0  0  0  0  0  0  0  0  0
   -2.0575    1.1865    1.0012 O   0  0  0  0  0  0  0  0  0  0  0  0
   -3.6574    1.7429    2.8347 C   0  0  2  0  0  0  0  0  0  0  0  0
   -3.8677    2.9003    3.6312 O   0  0  0  0  0  0  0  0  0  0  0  0
   -3.7167    0.5023    3.7335 C   0  0  0  0  0  0  0  0  0  0  0  0
   -2.7588    0.5640    4.7688 O   0  0  0  0  0  0  0  0  0  0  0  0
   -1.7556   -0.1826    1.2627 C   0  0  2  0  0  0  0  0  0  0  0  0
   -0.3736   -0.3480    1.9130 C   0  0  2  0  0  0  0  0  0  0  0  0
   -0.2661    0.4664    3.1350 N   0  0  0  0  0  0  0  0  0  0  0  0
    0.7500   -0.0203    0.9182 C   0  0  1  0  0  0  0  0  0  0  0  0
    1.9938   -0.2724    1.5428 O   0  0  0  0  0  0  0  0  0  0  0  0
    0.5843   -0.9219   -0.3169 C   0  0  2  0  0  0  0  0  0  0  0  0
    1.5728   -0.6296   -1.2873 O   0  0  0  0  0  0  0  0  0  0  0  0
   -0.8264   -0.7747   -0.9234 C   0  0  1  0  0  0  0  0  0  0  0  0
   -1.8426   -0.9529    0.0660 O   0  0  0  0  0  0  0  0  0  0  0  0
   -1.0167    0.5289   -1.7128 C   0  0  0  0  0  0  0  0  0  0  0  0
   -0.0264    0.6499   -2.7949 N   0  0  0  0  0  0  0  0  0  0  0  0
  1  3  1  0  0  0  0
  1  2  1  1  0  0  0
  3  4  1  1  0  0  0
  5  6  1  1  0  0  0
  5  3  1  0  0  0  0
  7  9  1  0  0  0  0
  7  5  1  0  0  0  0
  7  8  1  1  0  0  0
  9 10  1  0  0  0  0
  9 11  1  6  0  0  0
 10  1  1  0  0  0  0
 11 12  1  0  0  0  0
 13 14  1  6  0  0  0
 13 21  1  0  0  0  0
 15 13  1  0  0  0  0
 16 15  1  0  0  0  0
 16 18  1  0  0  0  0
 16 17  1  1  0  0  0
 18  2  1  1  0  0  0
 18 19  1  0  0  0  0
 19 21  1  0  0  0  0
 19 20  1  6  0  0  0
 21 22  1  6  0  0  0
 23 20  1  1  0  0  0
 23 29  1  0  0  0  0
 23 24  1  0  0  0  0
 24 26  1  0  0  0  0
 24 25  1  6  0  0  0
 26 27  1  6  0  0  0
 28 26  1  0  0  0  0
 28 30  1  1  0  0  0
 29 28  1  0  0  0  0
 30 31  1  0  0  0  0
 32 27  1  6  0  0  0
 32 40  1  0  0  0  0
 32 33  1  0  0  0  0
 33 35  1  0  0  0  0
 33 34  1  1  0  0  0
 35 37  1  0  0  0  0
 35 36  1  1  0  0  0
 37 38  1  6  0  0  0
 39 37  1  0  0  0  0
 39 41  1  1  0  0  0
 40 39  1  0  0  0  0
 42 41  1  0  0  0  0
M  END
>  <CHROM.1>
174.62039317,-155.36067931,-60.36063686,-68.91428893,-58.14627765,179.82958895
57.38368055,-172.21419151,-47.66650315,173.83096754,115.52475156,67.62376821
177.88593488,171.29105768,-69.90607977,58.60407272,68.56329174,-76.72298364
-66.55911450,90.05278866,57.22993964,-37.32520264,-1.30821997,3.02477636
3.84592506,-1.98692212,1.34428396,-1.76580309

>  <Name>
lig.pdb

>  <RI>
0

>  <Rbt.Current_Directory>
/home/itssahil/PROJECTS/Mol_Feturizer/New_Systems/rnas/2mxs

>  <Rbt.Executable>
rbdock ($Id: //depot/dev/client3/rdock/2013.1/src/exe/rbdock.cxx#4 $)

>  <Rbt.Library>
libRbt.so (2013.1, Build901 2013/11/27)

>  <Rbt.Parameter_File>
/export/apps/rDock/src/rDock_2013.1_src/data/scripts/dock_solv.prm

>  <Rbt.Receptor>
prm/pocket_docking_4.prm

>  <SCORE>
-44.8392

>  <SCORE.INTER>
-41.1661

>  <SCORE.INTER.CONST>
1

>  <SCORE.INTER.POLAR>
-6.46724

>  <SCORE.INTER.ROT>
9

>  <SCORE.INTER.SOLV>
17.4585

>  <SCORE.INTER.VDW>
-21.3061

>  <SCORE.INTER.norm>
-0.980145

>  <SCORE.INTRA>
-3.67314

>  <SCORE.INTRA.DIHEDRAL>
-11.3687

>  <SCORE.INTRA.DIHEDRAL.0>
30.1357

>  <SCORE.INTRA.POLAR>
-1.28189

>  <SCORE.INTRA.POLAR.0>
-0.631696

>  <SCORE.INTRA.REPUL>
0

>  <SCORE.INTRA.REPUL.0>
0

>  <SCORE.INTRA.SOLV>
1.54275

>  <SCORE.INTRA.SOLV.lig_0>
-55.904

>  <SCORE.INTRA.VDW>
5.59827

>  <SCORE.INTRA.VDW.0>
-8.21197

>  <SCORE.INTRA.norm>
-0.0874558

>  <SCORE.RESTR>
0

>  <SCORE.RESTR.CAVITY>
0

>  <SCORE.RESTR.norm>
0

>  <SCORE.SYSTEM>
0

>  <SCORE.SYSTEM.CONST>
0

>  <SCORE.SYSTEM.DIHEDRAL>
0

>  <SCORE.SYSTEM.SOLV>
0

>  <SCORE.SYSTEM.norm>
0

>  <SCORE.heavy>
42

>  <SCORE.norm>
-1.0676

>  <RMSD>
8.478

$$$$
lig.pdb
 OpenBabel11021811453D
libRbt.so/2013.1/901 2013/11/27
 42 45  0  0  0  0  0  0  0  0999 V2000
   -1.2048    0.1927    6.8724 C   0  0  2  0  0  0  0  0  0  0  0  0
   -1.9808   -1.0070    6.8719 O   0  0  0  0  0  0  0  0  0  0  0  0
   -0.3176    0.2699    8.1241 C   0  0  2  0  0  0  0  0  0  0  0  0
    0.5236   -0.9344    8.2514 N   0  0  0  0  0  0  0  0  0  0  0  0
   -1.1637    0.4868    9.3853 C   0  0  1  0  0  0  0  0  0  0  0  0
   -0.3097    0.7052   10.4919 O   0  0  0  0  0  0  0  0  0  0  0  0
   -2.0849    1.7028    9.2055 C   0  0  2  0  0  0  0  0  0  0  0  0
   -2.9651    1.7910   10.3096 O   0  0  0  0  0  0  0  0  0  0  0  0
   -2.8961    1.6092    7.8973 C   0  0  2  0  0  0  0  0  0  0  0  0
   -2.0475    1.3388    6.7821 O   0  0  0  0  0  0  0  0  0  0  0  0
   -3.6209    2.9521    7.6860 C   0  0  0  0  0  0  0  0  0  0  0  0
   -2.6923    4.0457    7.4577 O   0  0  0  0  0  0  0  0  0  0  0  0
   -4.1384   -2.8101    3.6124 C   0  0  2  0  0  0  0  0  0  0  0  0
   -5.0997   -2.7651    2.4925 N   0  0  0  0  0  0  0  0  0  0  0  0
   -4.8350   -2.4472    4.9262 C   0  0  0  0  0  0  0  0  0  0  0  0
   -3.8234   -2.3538    6.0623 C   0  0  2  0  0  0  0  0  0  0  0  0
   -4.5117   -2.1027    7.3347 N   0  0  0  0  0  0  0  0  0  0  0  0
   -2.8081   -1.2379    5.7223 C   0  0  2  0  0  0  0  0  0  0  0  0
   -2.0153   -1.6667    4.5294 C   0  0  2  0  0  0  0  0  0  0  0  0
   -1.0655   -0.6516    4.2610 O   0  0  0  0  0  0  0  0  0  0  0  0
   -2.9436   -1.8748    3.3478 C   0  0  1  0  0  0  0  0  0  0  0  0
   -2.2559   -2.3633    2.2113 O   0  0  0  0  0  0  0  0  0  0  0  0
   -1.5546    0.6500    3.9550 C   0  0  1  0  0  0  0  0  0  0  0  0
   -0.3626    1.5090    3.5279 C   0  0  2  0  0  0  0  0  0  0  0  0
   -0.5503    2.8332    3.9903 O   0  0  0  0  0  0  0  0  0  0  0  0
   -0.4073    1.3992    1.9978 C   0  0  2  0  0  0  0  0  0  0  0  0
    0.2805    2.4673    1.3461 O   0  0  0  0  0  0  0  0  0  0  0  0
   -1.9249    1.3805    1.7770 C   0  0  2  0  0  0  0  0  0  0  0  0
   -2.4306    0.5810    2.8370 O   0  0  0  0  0  0  0  0  0  0  0  0
   -2.3626    0.7701    0.4405 C   0  0  0  0  0  0  0  0  0  0  0  0
   -3.7689    0.7324    0.3217 O   0  0  0  0  0  0  0  0  0  0  0  0
    0.4592    2.2903   -0.0578 C   0  0  2  0  0  0  0  0  0  0  0  0
    1.9450    2.2883   -0.4482 C   0  0  2  0  0  0  0  0  0  0  0  0
    2.6890    1.2745    0.3179 N   0  0  0  0  0  0  0  0  0  0  0  0
    2.5636    3.6845   -0.2823 C   0  0  1  0  0  0  0  0  0  0  0  0
    3.9026    3.6418   -0.7362 O   0  0  0  0  0  0  0  0  0  0  0  0
    1.7492    4.6805   -1.1251 C   0  0  2  0  0  0  0  0  0  0  0  0
    2.2530    5.9949   -0.9735 O   0  0  0  0  0  0  0  0  0  0  0  0
    0.2540    4.6298   -0.7490 C   0  0  1  0  0  0  0  0  0  0  0  0
   -0.2492    3.2923   -0.7839 O   0  0  0  0  0  0  0  0  0  0  0  0
   -0.0629    5.3273    0.5821 C   0  0  0  0  0  0  0  0  0  0  0  0
   -1.5070    5.5709    0.7292 N   0  0  0  0  0  0  0  0  0  0  0  0
  1  3  1  0  0  0  0
  1  2  1  1  0  0  0
  3  4  1  1  0  0  0
  5  6  1  1  0  0  0
  5  3  1  0  0  0  0
  7  9  1  0  0  0  0
  7  5  1  0  0  0  0
  7  8  1  1  0  0  0
  9 10  1  0  0  0  0
  9 11  1  6  0  0  0
 10  1  1  0  0  0  0
 11 12  1  0  0  0  0
 13 14  1  6  0  0  0
 13 21  1  0  0  0  0
 15 13  1  0  0  0  0
 16 15  1  0  0  0  0
 16 18  1  0  0  0  0
 16 17  1  1  0  0  0
 18  2  1  1  0  0  0
 18 19  1  0  0  0  0
 19 21  1  0  0  0  0
 19 20  1  6  0  0  0
 21 22  1  6  0  0  0
 23 20  1  6  0  0  0
 23 29  1  0  0  0  0
 23 24  1  0  0  0  0
 24 26  1  0  0  0  0
 24 25  1  6  0  0  0
 26 27  1  6  0  0  0
 28 26  1  0  0  0  0
 28 30  1  6  0  0  0
 29 28  1  0  0  0  0
 30 31  1  0  0  0  0
 32 27  1  1  0  0  0
 32 40  1  0  0  0  0
 32 33  1  0  0  0  0
 33 35  1  0  0  0  0
 33 34  1  1  0  0  0
 35 37  1  0  0  0  0
 35 36  1  6  0  0  0
 37 38  1  1  0  0  0
 39 37  1  0  0  0  0
 39 41  1  1  0  0  0
 40 39  1  0  0  0  0
 42 41  1  0  0  0  0
M  END
>  <CHROM.1>
-165.29999200,-177.02353890,66.40824036,-71.76211200,-57.52063934,178.70552055
65.44541716,-49.25460095,68.11223771,-60.67881187,-172.66911897,177.65716222
-55.64576535,169.94004870,-120.32517618,177.59174207,-57.87319836,169.83420734
-165.52151936,179.37650660,164.90670134,-66.19513835,-1.26788814,1.16218619
3.82868797,-2.25532091,-0.92784056,-1.69108615

>  <Name>
lig.pdb

>  <RI>
3.99633e+07

>  <Rbt.Current_Directory>
/home/itssahil/PROJECTS/Mol_Feturizer/New_Systems/rnas/2mxs

>  <Rbt.Executable>
rbdock ($Id: //depot/dev/client3/rdock/2013.1/src/exe/rbdock.cxx#4 $)

>  <Rbt.Library>
libRbt.so (2013.1, Build901 2013/11/27)

>  <Rbt.Parameter_File>
/export/apps/rDock/src/rDock_2013.1_src/data/scripts/dock_solv.prm

>  <Rbt.Receptor>
prm/pocket_docking_5.prm

>  <SCORE>
-35.5372

>  <SCORE.INTER>
-32.4935

>  <SCORE.INTER.CONST>
1

>  <SCORE.INTER.POLAR>
-4.05799

>  <SCORE.INTER.ROT>
9

>  <SCORE.INTER.SOLV>
18.8193

>  <SCORE.INTER.VDW>
-24.0088

>  <SCORE.INTER.norm>
-0.773655

>  <SCORE.INTRA>
-3.05326

>  <SCORE.INTRA.DIHEDRAL>
-16.7437

>  <SCORE.INTRA.DIHEDRAL.0>
30.1357

>  <SCORE.INTRA.POLAR>
0.595921

>  <SCORE.INTRA.POLAR.0>
-0.631696

>  <SCORE.INTRA.REPUL>
0.0122804

>  <SCORE.INTRA.REPUL.0>
0

>  <SCORE.INTRA.SOLV>
-0.814546

>  <SCORE.INTRA.SOLV.lig_0>
-55.904

>  <SCORE.INTRA.VDW>
3.63834

>  <SCORE.INTRA.VDW.0>
-8.21197

>  <SCORE.INTRA.norm>
-0.0726967

>  <SCORE.RESTR>
0.00955218

>  <SCORE.RESTR.CAVITY>
0.00955218

>  <SCORE.RESTR.norm>
0.000227433

>  <SCORE.SYSTEM>
0

>  <SCORE.SYSTEM.CONST>
0

>  <SCORE.SYSTEM.DIHEDRAL>
0

>  <SCORE.SYSTEM.SOLV>
0

>  <SCORE.SYSTEM.norm>
0

>  <SCORE.heavy>
42

>  <SCORE.norm>
-0.846124

>  <RMSD>
8.495

$$$$
lig.pdb
 OpenBabel11021811453D
libRbt.so/2013.1/901 2013/11/27
 42 45  0  0  0  0  0  0  0  0999 V2000
   -1.4915    5.8314    8.6473 C   0  0  2  0  0  0  0  0  0  0  0  0
   -2.0975    4.5861    8.2960 O   0  0  0  0  0  0  0  0  0  0  0  0
   -1.8476    6.9210    7.6247 C   0  0  2  0  0  0  0  0  0  0  0  0
   -3.3088    7.0408    7.4663 N   0  0  0  0  0  0  0  0  0  0  0  0
   -1.1675    6.6527    6.2760 C   0  0  1  0  0  0  0  0  0  0  0  0
   -1.3919    7.7491    5.4105 O   0  0  0  0  0  0  0  0  0  0  0  0
    0.3439    6.4595    6.4713 C   0  0  2  0  0  0  0  0  0  0  0  0
    0.9270    6.0582    5.2464 O   0  0  0  0  0  0  0  0  0  0  0  0
    0.6437    5.4100    7.5608 C   0  0  2  0  0  0  0  0  0  0  0  0
   -0.0776    5.6906    8.7600 O   0  0  0  0  0  0  0  0  0  0  0  0
    2.1574    5.4349    7.8461 C   0  0  0  0  0  0  0  0  0  0  0  0
    2.9306    4.8753    6.7509 O   0  0  0  0  0  0  0  0  0  0  0  0
   -0.0046    1.8545   10.8822 C   0  0  2  0  0  0  0  0  0  0  0  0
    0.1257    0.5747   11.6072 N   0  0  0  0  0  0  0  0  0  0  0  0
   -1.2459    2.6123   11.3596 C   0  0  0  0  0  0  0  0  0  0  0  0
   -1.4660    3.8651   10.5199 C   0  0  2  0  0  0  0  0  0  0  0  0
   -2.5993    4.6358   11.0466 N   0  0  0  0  0  0  0  0  0  0  0  0
   -1.6894    3.4361    9.0510 C   0  0  2  0  0  0  0  0  0  0  0  0
   -0.4199    2.8389    8.5339 C   0  0  2  0  0  0  0  0  0  0  0  0
   -0.6329    2.4919    7.1779 O   0  0  0  0  0  0  0  0  0  0  0  0
   -0.0554    1.6204    9.3607 C   0  0  1  0  0  0  0  0  0  0  0  0
    1.1847    1.0630    8.9677 O   0  0  0  0  0  0  0  0  0  0  0  0
   -1.8504    1.8332    6.8455 C   0  0  1  0  0  0  0  0  0  0  0  0
   -1.9025    1.6873    5.3232 C   0  0  2  0  0  0  0  0  0  0  0  0
   -3.2392    1.8385    4.8839 O   0  0  0  0  0  0  0  0  0  0  0  0
   -1.3608    0.2676    5.1083 C   0  0  2  0  0  0  0  0  0  0  0  0
   -1.7464   -0.2873    3.8505 O   0  0  0  0  0  0  0  0  0  0  0  0
   -1.9608   -0.4339    6.3331 C   0  0  2  0  0  0  0  0  0  0  0  0
   -1.8438    0.5165    7.3826 O   0  0  0  0  0  0  0  0  0  0  0  0
   -1.2359   -1.7209    6.7437 C   0  0  0  0  0  0  0  0  0  0  0  0
    0.1426   -1.4976    6.9515 O   0  0  0  0  0  0  0  0  0  0  0  0
   -1.1433   -1.5431    3.5449 C   0  0  2  0  0  0  0  0  0  0  0  0
    0.3198   -1.3816    3.1052 C   0  0  2  0  0  0  0  0  0  0  0  0
    1.0960   -0.6479    4.1188 N   0  0  0  0  0  0  0  0  0  0  0  0
    0.4136   -0.7071    1.7283 C   0  0  1  0  0  0  0  0  0  0  0  0
    1.7727   -0.6636    1.3385 O   0  0  0  0  0  0  0  0  0  0  0  0
   -0.4003   -1.5391    0.7227 C   0  0  2  0  0  0  0  0  0  0  0  0
   -0.3823   -0.9357   -0.5579 O   0  0  0  0  0  0  0  0  0  0  0  0
   -1.8519   -1.7285    1.2089 C   0  0  1  0  0  0  0  0  0  0  0  0
   -1.8944   -2.2305    2.5467 O   0  0  0  0  0  0  0  0  0  0  0  0
   -2.7194   -0.4725    1.0397 C   0  0  0  0  0  0  0  0  0  0  0  0
   -3.7557   -0.3922    2.0818 N   0  0  0  0  0  0  0  0  0  0  0  0
  1  3  1  0  0  0  0
  1  2  1  6  0  0  0
  3  4  1  6  0  0  0
  5  6  1  6  0  0  0
  5  3  1  0  0  0  0
  7  9  1  0  0  0  0
  7  5  1  0  0  0  0
  7  8  1  6  0  0  0
  9 10  1  0  0  0  0
  9 11  1  1  0  0  0
 10  1  1  0  0  0  0
 11 12  1  0  0  0  0
 13 14  1  1  0  0  0
 13 21  1  0  0  0  0
 15 13  1  0  0  0  0
 16 15  1  0  0  0  0
 16 18  1  0  0  0  0
 16 17  1  1  0  0  0
 18  2  1  6  0  0  0
 18 19  1  0  0  0  0
 19 21  1  0  0  0  0
 19 20  1  6  0  0  0
 21 22  1  6  0  0  0
 23 20  1  6  0  0  0
 23 29  1  0  0  0  0
 23 24  1  0  0  0  0
 24 26  1  0  0  0  0
 24 25  1  1  0  0  0
 26 27  1  6  0  0  0
 28 26  1  0  0  0  0
 28 30  1  1  0  0  0
 29 28  1  0  0  0  0
 30 31  1  0  0  0  0
 32 27  1  6  0  0  0
 32 40  1  0  0  0  0
 32 33  1  0  0  0  0
 33 35  1  0  0  0  0
 33 34  1  1  0  0  0
 35 37  1  0  0  0  0
 35 36  1  6  0  0  0
 37 38  1  6  0  0  0
 39 37  1  0  0  0  0
 39 41  1  1  0  0  0
 40 39  1  0  0  0  0
 42 41  1  0  0  0  0
M  END
>  <CHROM.1>
36.68399476,170.99956306,67.10562114,62.67074862,60.92422850,46.58589833
-71.16484126,-53.11727793,165.24060574,-44.58878748,174.71043007,179.93757483
-174.16088272,173.32166586,-76.24256606,54.73890608,64.76174017,171.58742640
-68.81861995,94.06530547,-149.23070864,178.95020197,-0.81616000,2.09535393
6.14752312,0.77377986,-1.54521304,0.03299350

>  <Name>
lig.pdb

>  <RI>
0

>  <Rbt.Current_Directory>
/home/itssahil/PROJECTS/Mol_Feturizer/New_Systems/rnas/2mxs

>  <Rbt.Executable>
rbdock ($Id: //depot/dev/client3/rdock/2013.1/src/exe/rbdock.cxx#4 $)

>  <Rbt.Library>
libRbt.so (2013.1, Build901 2013/11/27)

>  <Rbt.Parameter_File>
/export/apps/rDock/src/rDock_2013.1_src/data/scripts/dock_solv.prm

>  <Rbt.Receptor>
prm/pocket_docking_4.prm

>  <SCORE>
-20.7421

>  <SCORE.INTER>
-15.5858

>  <SCORE.INTER.CONST>
1

>  <SCORE.INTER.POLAR>
-3.08897

>  <SCORE.INTER.ROT>
9

>  <SCORE.INTER.SOLV>
15.1407

>  <SCORE.INTER.VDW>
-14.7408

>  <SCORE.INTER.norm>
-0.37109

>  <SCORE.INTRA>
-5.1669

>  <SCORE.INTRA.DIHEDRAL>
-13.9228

>  <SCORE.INTRA.DIHEDRAL.0>
30.1357

>  <SCORE.INTRA.POLAR>
-1.7143

>  <SCORE.INTRA.POLAR.0>
-0.631696

>  <SCORE.INTRA.REPUL>
0

>  <SCORE.INTRA.REPUL.0>
0

>  <SCORE.INTRA.SOLV>
2.00724

>  <SCORE.INTRA.SOLV.lig_0>
-55.904

>  <SCORE.INTRA.VDW>
6.61951

>  <SCORE.INTRA.VDW.0>
-8.21197

>  <SCORE.INTRA.norm>
-0.123021

>  <SCORE.RESTR>
0.0105172

>  <SCORE.RESTR.CAVITY>
0.0105172

>  <SCORE.RESTR.norm>
0.000250409

>  <SCORE.SYSTEM>
0

>  <SCORE.SYSTEM.CONST>
0

>  <SCORE.SYSTEM.DIHEDRAL>
0

>  <SCORE.SYSTEM.SOLV>
0

>  <SCORE.SYSTEM.norm>
0

>  <SCORE.heavy>
42

>  <SCORE.norm>
-0.493861

>  <RMSD>
8.507

$$$$
lig.pdb
 OpenBabel11021811453D
libRbt.so/2013.1/901 2013/11/27
 42 45  0  0  0  0  0  0  0  0999 V2000
   -0.5152    0.7341    5.0528 C   0  0  2  0  0  0  0  0  0  0  0  0
    0.5564    0.1376    4.3198 O   0  0  0  0  0  0  0  0  0  0  0  0
    0.0195    1.5322    6.2515 C   0  0  2  0  0  0  0  0  0  0  0  0
    1.0184    2.5279    5.8210 N   0  0  0  0  0  0  0  0  0  0  0  0
    0.5993    0.5968    7.3204 C   0  0  1  0  0  0  0  0  0  0  0  0
    0.9403    1.3499    8.4685 O   0  0  0  0  0  0  0  0  0  0  0  0
   -0.4306   -0.4767    7.7033 C   0  0  2  0  0  0  0  0  0  0  0  0
    0.1743   -1.4190    8.5679 O   0  0  0  0  0  0  0  0  0  0  0  0
   -0.9892   -1.1943    6.4578 C   0  0  2  0  0  0  0  0  0  0  0  0
   -1.4452   -0.2567    5.4831 O   0  0  0  0  0  0  0  0  0  0  0  0
   -2.1599   -2.0899    6.9059 C   0  0  0  0  0  0  0  0  0  0  0  0
   -3.4324   -1.3904    6.8627 O   0  0  0  0  0  0  0  0  0  0  0  0
    0.4180   -2.2725    0.7556 C   0  0  2  0  0  0  0  0  0  0  0  0
   -0.1752   -2.6677   -0.5375 N   0  0  0  0  0  0  0  0  0  0  0  0
   -0.5965   -2.4615    1.8862 C   0  0  0  0  0  0  0  0  0  0  0  0
   -0.0418   -1.9248    3.2005 C   0  0  2  0  0  0  0  0  0  0  0  0
   -0.9800   -2.1989    4.2962 N   0  0  0  0  0  0  0  0  0  0  0  0
    0.2300   -0.4115    3.0348 C   0  0  2  0  0  0  0  0  0  0  0  0
    1.3361   -0.2348    2.0445 C   0  0  2  0  0  0  0  0  0  0  0  0
    1.5969    1.1528    1.9391 O   0  0  0  0  0  0  0  0  0  0  0  0
    0.9212   -0.8176    0.7067 C   0  0  1  0  0  0  0  0  0  0  0  0
    1.9642   -0.7529   -0.2477 O   0  0  0  0  0  0  0  0  0  0  0  0
    0.5233    2.0012    1.5461 C   0  0  1  0  0  0  0  0  0  0  0  0
    1.0551    3.4351    1.4952 C   0  0  2  0  0  0  0  0  0  0  0  0
    0.0424    4.3255    1.9246 O   0  0  0  0  0  0  0  0  0  0  0  0
    1.4085    3.6042    0.0114 C   0  0  2  0  0  0  0  0  0  0  0  0
    1.4700    4.9730   -0.3902 O   0  0  0  0  0  0  0  0  0  0  0  0
    0.2716    2.7961   -0.6263 C   0  0  2  0  0  0  0  0  0  0  0  0
    0.1112    1.6707    0.2258 O   0  0  0  0  0  0  0  0  0  0  0  0
    0.5644    2.3056   -2.0490 C   0  0  0  0  0  0  0  0  0  0  0  0
   -0.4387    1.4273   -2.5131 O   0  0  0  0  0  0  0  0  0  0  0  0
    1.4002    5.1827   -1.7992 C   0  0  2  0  0  0  0  0  0  0  0  0
    2.7909    5.4066   -2.4124 C   0  0  2  0  0  0  0  0  0  0  0  0
    3.6973    4.2945   -2.0814 N   0  0  0  0  0  0  0  0  0  0  0  0
    3.3772    6.7583   -1.9779 C   0  0  1  0  0  0  0  0  0  0  0  0
    4.6136    6.9474   -2.6385 O   0  0  0  0  0  0  0  0  0  0  0  0
    2.3885    7.8676   -2.3751 C   0  0  2  0  0  0  0  0  0  0  0  0
    2.8624    9.1346   -1.9577 O   0  0  0  0  0  0  0  0  0  0  0  0
    0.9880    7.5958   -1.7882 C   0  0  1  0  0  0  0  0  0  0  0  0
    0.5365    6.2762   -2.1014 O   0  0  0  0  0  0  0  0  0  0  0  0
    0.8896    7.8942   -0.2849 C   0  0  0  0  0  0  0  0  0  0  0  0
   -0.2275    7.1631    0.3348 N   0  0  0  0  0  0  0  0  0  0  0  0
  1  3  1  0  0  0  0
  1  2  1  1  0  0  0
  3  4  1  6  0  0  0
  5  6  1  1  0  0  0
  5  3  1  0  0  0  0
  7  9  1  0  0  0  0
  7  5  1  0  0  0  0
  7  8  1  1  0  0  0
  9 10  1  0  0  0  0
  9 11  1  1  0  0  0
 10  1  1  0  0  0  0
 11 12  1  0  0  0  0
 13 14  1  6  0  0  0
 13 21  1  0  0  0  0
 15 13  1  0  0  0  0
 16 15  1  0  0  0  0
 16 18  1  0  0  0  0
 16 17  1  1  0  0  0
 18  2  1  1  0  0  0
 18 19  1  0  0  0  0
 19 21  1  0  0  0  0
 19 20  1  6  0  0  0
 21 22  1  6  0  0  0
 23 20  1  6  0  0  0
 23 29  1  0  0  0  0
 23 24  1  0  0  0  0
 24 26  1  0  0  0  0
 24 25  1  6  0  0  0
 26 27  1  6  0  0  0
 28 26  1  0  0  0  0
 28 30  1  6  0  0  0
 29 28  1  0  0  0  0
 30 31  1  0  0  0  0
 32 27  1  1  0  0  0
 32 40  1  0  0  0  0
 32 33  1  0  0  0  0
 33 35  1  0  0  0  0
 33 34  1  1  0  0  0
 35 37  1  0  0  0  0
 35 36  1  6  0  0  0
 37 38  1  1  0  0  0
 39 37  1  0  0  0  0
 39 41  1  1  0  0  0
 40 39  1  0  0  0  0
 42 41  1  0  0  0  0
M  END
>  <CHROM.1>
-95.34667411,-168.02139078,164.24586910,63.58795771,-47.12930387,63.92152500
90.00187968,79.35323186,44.13700082,-58.17400134,-179.54969790,58.77925686
70.52826152,-162.36726974,-99.28634432,172.30384607,178.71587386,61.74359666
63.32874885,175.01431415,-157.92326992,70.63551104,0.64653291,2.11709554
1.83250665,-2.99025372,-1.32131008,-2.22971101

>  <Name>
lig.pdb

>  <RI>
0

>  <Rbt.Current_Directory>
/home/itssahil/PROJECTS/Mol_Feturizer/New_Systems/rnas/2mxs

>  <Rbt.Executable>
rbdock ($Id: //depot/dev/client3/rdock/2013.1/src/exe/rbdock.cxx#4 $)

>  <Rbt.Library>
libRbt.so (2013.1, Build901 2013/11/27)

>  <Rbt.Parameter_File>
/export/apps/rDock/src/rDock_2013.1_src/data/scripts/dock_solv.prm

>  <Rbt.Receptor>
prm/blind_docking_20.prm

>  <SCORE>
31.9163

>  <SCORE.INTER>
-13.3099

>  <SCORE.INTER.CONST>
1

>  <SCORE.INTER.POLAR>
-3.1717

>  <SCORE.INTER.ROT>
9

>  <SCORE.INTER.SOLV>
27.3579

>  <SCORE.INTER.VDW>
-17.0203

>  <SCORE.INTER.norm>
-0.316903

>  <SCORE.INTRA>
16.1461

>  <SCORE.INTRA.DIHEDRAL>
-9.12052

>  <SCORE.INTRA.DIHEDRAL.0>
30.1357

>  <SCORE.INTRA.POLAR>
-0.395736

>  <SCORE.INTRA.POLAR.0>
-0.631696

>  <SCORE.INTRA.REPUL>
0.141988

>  <SCORE.INTRA.REPUL.0>
0

>  <SCORE.INTRA.SOLV>
1.07598

>  <SCORE.INTRA.SOLV.lig_0>
-55.904

>  <SCORE.INTRA.VDW>
20.8039

>  <SCORE.INTRA.VDW.0>
-8.21197

>  <SCORE.INTRA.norm>
0.38443

>  <SCORE.RESTR>
29.0802

>  <SCORE.RESTR.CAVITY>
29.0802

>  <SCORE.RESTR.norm>
0.692385

>  <SCORE.SYSTEM>
0

>  <SCORE.SYSTEM.CONST>
0

>  <SCORE.SYSTEM.DIHEDRAL>
0

>  <SCORE.SYSTEM.SOLV>
0

>  <SCORE.SYSTEM.norm>
0

>  <SCORE.heavy>
42

>  <SCORE.norm>
0.759912

>  <RMSD>
8.559

$$$$
lig.pdb
 OpenBabel11021811453D
libRbt.so/2013.1/901 2013/11/27
 42 45  0  0  0  0  0  0  0  0999 V2000
   -1.5532    3.1928    2.9067 C   0  0  2  0  0  0  0  0  0  0  0  0
   -0.5695    4.0607    2.3406 O   0  0  0  0  0  0  0  0  0  0  0  0
   -2.1027    2.2245    1.8483 C   0  0  2  0  0  0  0  0  0  0  0  0
   -1.0110    1.4759    1.1984 N   0  0  0  0  0  0  0  0  0  0  0  0
   -2.9538    2.9687    0.8113 C   0  0  1  0  0  0  0  0  0  0  0  0
   -3.5655    2.0314   -0.0541 O   0  0  0  0  0  0  0  0  0  0  0  0
   -4.0399    3.7992    1.5115 C   0  0  2  0  0  0  0  0  0  0  0  0
   -4.7091    4.5976    0.5543 O   0  0  0  0  0  0  0  0  0  0  0  0
   -3.4426    4.6968    2.6141 C   0  0  2  0  0  0  0  0  0  0  0  0
   -2.6103    3.9450    3.4969 O   0  0  0  0  0  0  0  0  0  0  0  0
   -4.6069    5.3236    3.4044 C   0  0  0  0  0  0  0  0  0  0  0  0
   -4.8508    4.6343    4.6596 O   0  0  0  0  0  0  0  0  0  0  0  0
   -1.3983    7.7687    4.3642 C   0  0  2  0  0  0  0  0  0  0  0  0
   -1.0086    9.0963    4.8799 N   0  0  0  0  0  0  0  0  0  0  0  0
   -0.5520    6.6743    5.0193 C   0  0  0  0  0  0  0  0  0  0  0  0
   -0.8492    5.3177    4.3915 C   0  0  2  0  0  0  0  0  0  0  0  0
   -0.1069    4.2616    5.0912 N   0  0  0  0  0  0  0  0  0  0  0  0
   -0.4861    5.3839    2.8897 C   0  0  2  0  0  0  0  0  0  0  0  0
   -1.4219    6.3372    2.2180 C   0  0  2  0  0  0  0  0  0  0  0  0
   -1.0998    6.3512    0.8394 O   0  0  0  0  0  0  0  0  0  0  0  0
   -1.2710    7.7170    2.8301 C   0  0  1  0  0  0  0  0  0  0  0  0
   -2.1944    8.6426    2.2885 O   0  0  0  0  0  0  0  0  0  0  0  0
    0.1171    6.9786    0.4492 C   0  0  1  0  0  0  0  0  0  0  0  0
    1.2151    5.9129    0.4540 C   0  0  2  0  0  0  0  0  0  0  0  0
    2.4300    6.4945    0.8882 O   0  0  0  0  0  0  0  0  0  0  0  0
    1.2557    5.4734   -1.0157 C   0  0  2  0  0  0  0  0  0  0  0  0
    2.4908    4.8527   -1.3737 O   0  0  0  0  0  0  0  0  0  0  0  0
    0.9876    6.8181   -1.7028 C   0  0  2  0  0  0  0  0  0  0  0  0
    0.0064    7.4458   -0.8893 O   0  0  0  0  0  0  0  0  0  0  0  0
    0.4481    6.7016   -3.1331 C   0  0  0  0  0  0  0  0  0  0  0  0
    1.3998    6.1259   -4.0026 O   0  0  0  0  0  0  0  0  0  0  0  0
    2.3608    3.7239   -2.2357 C   0  0  2  0  0  0  0  0  0  0  0  0
    2.5258    2.4009   -1.4724 C   0  0  2  0  0  0  0  0  0  0  0  0
    1.5833    2.3235   -0.3437 N   0  0  0  0  0  0  0  0  0  0  0  0
    3.9769    2.2063   -1.0076 C   0  0  1  0  0  0  0  0  0  0  0  0
    4.0869    0.9387   -0.3897 O   0  0  0  0  0  0  0  0  0  0  0  0
    4.8957    2.2779   -2.2390 C   0  0  2  0  0  0  0  0  0  0  0  0
    6.2534    2.1469   -1.8597 O   0  0  0  0  0  0  0  0  0  0  0  0
    4.6776    3.5926   -3.0158 C   0  0  1  0  0  0  0  0  0  0  0  0
    3.2947    3.8031   -3.3102 O   0  0  0  0  0  0  0  0  0  0  0  0
    5.3115    4.8145   -2.3346 C   0  0  0  0  0  0  0  0  0  0  0  0
    6.7726    4.8288   -2.5112 N   0  0  0  0  0  0  0  0  0  0  0  0
  1  3  1  0  0  0  0
  1  2  1  6  0  0  0
  3  4  1  6  0  0  0
  5  6  1  6  0  0  0
  5  3  1  0  0  0  0
  7  9  1  0  0  0  0
  7  5  1  0  0  0  0
  7  8  1  6  0  0  0
  9 10  1  0  0  0  0
  9 11  1  1  0  0  0
 10  1  1  0  0  0  0
 11 12  1  0  0  0  0
 13 14  1  1  0  0  0
 13 21  1  0  0  0  0
 15 13  1  0  0  0  0
 16 15  1  0  0  0  0
 16 18  1  0  0  0  0
 16 17  1  1  0  0  0
 18  2  1  6  0  0  0
 18 19  1  0  0  0  0
 19 21  1  0  0  0  0
 19 20  1  6  0  0  0
 21 22  1  6  0  0  0
 23 20  1  6  0  0  0
 23 29  1  0  0  0  0
 23 24  1  0  0  0  0
 24 26  1  0  0  0  0
 24 25  1  6  0  0  0
 26 27  1  6  0  0  0
 28 26  1  0  0  0  0
 28 30  1  6  0  0  0
 29 28  1  0  0  0  0
 30 31  1  0  0  0  0
 32 27  1  1  0  0  0
 32 40  1  0  0  0  0
 32 33  1  0  0  0  0
 33 35  1  0  0  0  0
 33 34  1  1  0  0  0
 35 37  1  0  0  0  0
 35 36  1  6  0  0  0
 37 38  1  1  0  0  0
 39 37  1  0  0  0  0
 39 41  1  1  0  0  0
 40 39  1  0  0  0  0
 42 41  1  0  0  0  0
M  END
>  <CHROM.1>
32.41226161,147.69316411,81.21550549,-71.32906859,100.25637398,-55.00478121
100.42870426,130.73378279,56.07739036,-71.25125505,90.74553831,-173.35101503
-27.72350320,139.96675415,-102.86205252,-65.46251165,-41.06511412,-167.25492148
59.15073698,61.91615576,75.35935485,-32.83822437,0.24798080,4.75399674,0.68520257
2.79306381,0.61405096,0.24104032

>  <Name>
lig.pdb

>  <RI>
3.31443e+07

>  <Rbt.Current_Directory>
/home/itssahil/PROJECTS/Mol_Feturizer/New_Systems/rnas/2mxs

>  <Rbt.Executable>
rbdock ($Id: //depot/dev/client3/rdock/2013.1/src/exe/rbdock.cxx#4 $)

>  <Rbt.Library>
libRbt.so (2013.1, Build901 2013/11/27)

>  <Rbt.Parameter_File>
/export/apps/rDock/src/rDock_2013.1_src/data/scripts/dock_solv.prm

>  <Rbt.Receptor>
prm/blind_docking_40.prm

>  <SCORE>
150.69

>  <SCORE.INTER>
103.949

>  <SCORE.INTER.CONST>
1

>  <SCORE.INTER.POLAR>
-3.16266

>  <SCORE.INTER.ROT>
9

>  <SCORE.INTER.SOLV>
34.349

>  <SCORE.INTER.VDW>
58.7918

>  <SCORE.INTER.norm>
2.47497

>  <SCORE.INTRA>
24.1226

>  <SCORE.INTRA.DIHEDRAL>
16.1331

>  <SCORE.INTRA.DIHEDRAL.0>
30.1357

>  <SCORE.INTRA.POLAR>
-0.0292286

>  <SCORE.INTRA.POLAR.0>
-0.631696

>  <SCORE.INTRA.REPUL>
0

>  <SCORE.INTRA.REPUL.0>
0

>  <SCORE.INTRA.SOLV>
1.21177

>  <SCORE.INTRA.SOLV.lig_0>
-55.904

>  <SCORE.INTRA.VDW>
15.5496

>  <SCORE.INTRA.VDW.0>
-8.21197

>  <SCORE.INTRA.norm>
0.574349

>  <SCORE.RESTR>
22.6187

>  <SCORE.RESTR.CAVITY>
22.6187

>  <SCORE.RESTR.norm>
0.53854

>  <SCORE.SYSTEM>
0

>  <SCORE.SYSTEM.CONST>
0

>  <SCORE.SYSTEM.DIHEDRAL>
0

>  <SCORE.SYSTEM.SOLV>
0

>  <SCORE.SYSTEM.norm>
0

>  <SCORE.heavy>
42

>  <SCORE.norm>
3.58786

>  <RMSD>
8.567

$$$$
lig.pdb
 OpenBabel11021811453D
libRbt.so/2013.1/901 2013/11/27
 42 45  0  0  0  0  0  0  0  0999 V2000
   -3.6010    4.8476    4.0948 C   0  0  2  0  0  0  0  0  0  0  0  0
   -2.4764    3.9984    4.3306 O   0  0  0  0  0  0  0  0  0  0  0  0
   -4.5205    4.2517    3.0182 C   0  0  2  0  0  0  0  0  0  0  0  0
   -4.9269    2.8787    3.3704 N   0  0  0  0  0  0  0  0  0  0  0  0
   -3.8498    4.2909    1.6390 C   0  0  1  0  0  0  0  0  0  0  0  0
   -4.7775    3.8785    0.6537 O   0  0  0  0  0  0  0  0  0  0  0  0
   -3.3692    5.7150    1.3213 C   0  0  2  0  0  0  0  0  0  0  0  0
   -2.6172    5.6992    0.1231 O   0  0  0  0  0  0  0  0  0  0  0  0
   -2.5136    6.2920    2.4673 C   0  0  2  0  0  0  0  0  0  0  0  0
   -3.1759    6.1568    3.7243 O   0  0  0  0  0  0  0  0  0  0  0  0
   -2.2586    7.7821    2.1711 C   0  0  0  0  0  0  0  0  0  0  0  0
   -1.2246    8.3411    3.0247 O   0  0  0  0  0  0  0  0  0  0  0  0
   -0.0747    6.4439    6.9348 C   0  0  2  0  0  0  0  0  0  0  0  0
    0.9656    6.6321    7.9657 N   0  0  0  0  0  0  0  0  0  0  0  0
   -1.2129    5.5775    7.4796 C   0  0  0  0  0  0  0  0  0  0  0  0
   -2.2206    5.2617    6.3807 C   0  0  2  0  0  0  0  0  0  0  0  0
   -3.3568    4.5144    6.9342 N   0  0  0  0  0  0  0  0  0  0  0  0
   -1.4962    4.4730    5.2650 C   0  0  2  0  0  0  0  0  0  0  0  0
   -0.4909    5.3751    4.6238 C   0  0  2  0  0  0  0  0  0  0  0  0
    0.1304    4.6479    3.5799 O   0  0  0  0  0  0  0  0  0  0  0  0
    0.5240    5.8247    5.6578 C   0  0  1  0  0  0  0  0  0  0  0  0
    1.4529    6.7493    5.1238 O   0  0  0  0  0  0  0  0  0  0  0  0
   -0.4945    4.6596    2.3007 C   0  0  1  0  0  0  0  0  0  0  0  0
    0.4700    5.3231    1.3153 C   0  0  2  0  0  0  0  0  0  0  0  0
   -0.2688    6.0793    0.3745 O   0  0  0  0  0  0  0  0  0  0  0  0
    1.1807    4.1174    0.6857 C   0  0  2  0  0  0  0  0  0  0  0  0
    1.7699    4.4208   -0.5790 O   0  0  0  0  0  0  0  0  0  0  0  0
    0.0161    3.1210    0.6315 C   0  0  2  0  0  0  0  0  0  0  0  0
   -0.6858    3.3246    1.8498 O   0  0  0  0  0  0  0  0  0  0  0  0
    0.4440    1.6514    0.5430 C   0  0  0  0  0  0  0  0  0  0  0  0
    1.8375    1.5260    0.3546 O   0  0  0  0  0  0  0  0  0  0  0  0
    2.8078    5.3980   -0.5320 C   0  0  2  0  0  0  0  0  0  0  0  0
    2.5895    6.5124   -1.5667 C   0  0  2  0  0  0  0  0  0  0  0  0
    1.2638    7.1316   -1.4015 N   0  0  0  0  0  0  0  0  0  0  0  0
    2.7911    5.9886   -2.9966 C   0  0  1  0  0  0  0  0  0  0  0  0
    2.6633    7.0723   -3.8966 O   0  0  0  0  0  0  0  0  0  0  0  0
    4.1997    5.3789   -3.0970 C   0  0  2  0  0  0  0  0  0  0  0  0
    4.4222    4.8407   -4.3874 O   0  0  0  0  0  0  0  0  0  0  0  0
    4.4120    4.2972   -2.0179 C   0  0  1  0  0  0  0  0  0  0  0  0
    4.0822    4.7854   -0.7155 O   0  0  0  0  0  0  0  0  0  0  0  0
    3.6972    2.9747   -2.3328 C   0  0  0  0  0  0  0  0  0  0  0  0
    4.0709    1.9219   -1.3746 N   0  0  0  0  0  0  0  0  0  0  0  0
  1  3  1  0  0  0  0
  1  2  1  6  0  0  0
  3  4  1  1  0  0  0
  5  6  1  6  0  0  0
  5  3  1  0  0  0  0
  7  9  1  0  0  0  0
  7  5  1  0  0  0  0
  7  8  1  6  0  0  0
  9 10  1  0  0  0  0
  9 11  1  6  0  0  0
 10  1  1  0  0  0  0
 11 12  1  0  0  0  0
 13 14  1  1  0  0  0
 13 21  1  0  0  0  0
 15 13  1  0  0  0  0
 16 15  1  0  0  0  0
 16 18  1  0  0  0  0
 16 17  1  1  0  0  0
 18  2  1  6  0  0  0
 18 19  1  0  0  0  0
 19 21  1  0  0  0  0
 19 20  1  6  0  0  0
 21 22  1  6  0  0  0
 23 20  1  1  0  0  0
 23 29  1  0  0  0  0
 23 24  1  0  0  0  0
 24 26  1  0  0  0  0
 24 25  1  6  0  0  0
 26 27  1  6  0  0  0
 28 26  1  0  0  0  0
 28 30  1  1  0  0  0
 29 28  1  0  0  0  0
 30 31  1  0  0  0  0
 32 27  1  6  0  0  0
 32 40  1  0  0  0  0
 32 33  1  0  0  0  0
 33 35  1  0  0  0  0
 33 34  1  6  0  0  0
 35 37  1  0  0  0  0
 35 36  1  6  0  0  0
 37 38  1  6  0  0  0
 39 37  1  0  0  0  0
 39 41  1  6  0  0  0
 40 39  1  0  0  0  0
 42 41  1  0  0  0  0
M  END
>  <CHROM.1>
34.81410121,176.73474052,62.10355339,68.15126997,-55.21602060,-169.05804864
-167.17088358,-56.25979145,61.40085029,86.93006392,117.29807839,-40.09829432
81.74115537,63.31764787,-129.53587493,-7.66892233,72.29765090,-140.47323211
164.00188817,81.57452427,172.43643686,-47.67998860,-0.08460345,5.00464753
1.71560684,2.22933640,0.17351695,1.36546115

>  <Name>
lig.pdb

>  <RI>
3.17932e+07

>  <Rbt.Current_Directory>
/home/itssahil/PROJECTS/Mol_Feturizer/New_Systems/rnas/2mxs

>  <Rbt.Executable>
rbdock ($Id: //depot/dev/client3/rdock/2013.1/src/exe/rbdock.cxx#4 $)

>  <Rbt.Library>
libRbt.so (2013.1, Build901 2013/11/27)

>  <Rbt.Parameter_File>
/export/apps/rDock/src/rDock_2013.1_src/data/scripts/dock_solv.prm

>  <Rbt.Receptor>
prm/blind_docking_100.prm

>  <SCORE>
37.2604

>  <SCORE.INTER>
-5.67782

>  <SCORE.INTER.CONST>
1

>  <SCORE.INTER.POLAR>
-4.27169

>  <SCORE.INTER.ROT>
9

>  <SCORE.INTER.SOLV>
28.1129

>  <SCORE.INTER.VDW>
-8.51722

>  <SCORE.INTER.norm>
-0.135186

>  <SCORE.INTRA>
12.2282

>  <SCORE.INTRA.DIHEDRAL>
7.79594

>  <SCORE.INTRA.DIHEDRAL.0>
30.1357

>  <SCORE.INTRA.POLAR>
-1.08987

>  <SCORE.INTRA.POLAR.0>
-0.631696

>  <SCORE.INTRA.REPUL>
0.0205899

>  <SCORE.INTRA.REPUL.0>
0

>  <SCORE.INTRA.SOLV>
5.11219

>  <SCORE.INTRA.SOLV.lig_0>
-55.904

>  <SCORE.INTRA.VDW>
9.37676

>  <SCORE.INTRA.VDW.0>
-8.21197

>  <SCORE.INTRA.norm>
0.291148

>  <SCORE.RESTR>
30.71

>  <SCORE.RESTR.CAVITY>
30.71

>  <SCORE.RESTR.norm>
0.73119

>  <SCORE.SYSTEM>
0

>  <SCORE.SYSTEM.CONST>
0

>  <SCORE.SYSTEM.DIHEDRAL>
0

>  <SCORE.SYSTEM.SOLV>
0

>  <SCORE.SYSTEM.norm>
0

>  <SCORE.heavy>
42

>  <SCORE.norm>
0.887152

>  <RMSD>
8.581

$$$$
lig.pdb
 OpenBabel11021811453D
libRbt.so/2013.1/901 2013/11/27
 42 45  0  0  0  0  0  0  0  0999 V2000
   -2.1804   -0.8462    4.6544 C   0  0  2  0  0  0  0  0  0  0  0  0
   -2.8060   -2.0903    4.9742 O   0  0  0  0  0  0  0  0  0  0  0  0
   -0.8638   -0.6809    5.4284 C   0  0  2  0  0  0  0  0  0  0  0  0
    0.0334   -1.8281    5.1972 N   0  0  0  0  0  0  0  0  0  0  0  0
   -1.1279   -0.4812    6.9264 C   0  0  1  0  0  0  0  0  0  0  0  0
    0.0893   -0.1810    7.5819 O   0  0  0  0  0  0  0  0  0  0  0  0
   -2.1202    0.6713    7.1428 C   0  0  2  0  0  0  0  0  0  0  0  0
   -2.4714    0.7363    8.5116 O   0  0  0  0  0  0  0  0  0  0  0  0
   -3.3899    0.4928    6.2859 C   0  0  2  0  0  0  0  0  0  0  0  0
   -3.0598    0.2438    4.9198 O   0  0  0  0  0  0  0  0  0  0  0  0
   -4.2250    1.7829    6.3925 C   0  0  0  0  0  0  0  0  0  0  0  0
   -5.5999    1.5821    5.9688 O   0  0  0  0  0  0  0  0  0  0  0  0
   -5.7392   -4.2360    2.6669 C   0  0  2  0  0  0  0  0  0  0  0  0
   -7.0345   -4.3417    1.9660 N   0  0  0  0  0  0  0  0  0  0  0  0
   -5.9604   -3.9279    4.1499 C   0  0  0  0  0  0  0  0  0  0  0  0
   -4.6302   -3.6782    4.8506 C   0  0  2  0  0  0  0  0  0  0  0  0
   -4.8445   -3.4810    6.2897 N   0  0  0  0  0  0  0  0  0  0  0  0
   -3.9531   -2.4537    4.1922 C   0  0  2  0  0  0  0  0  0  0  0  0
   -3.5913   -2.8118    2.7864 C   0  0  2  0  0  0  0  0  0  0  0  0
   -2.9364   -1.6935    2.2162 O   0  0  0  0  0  0  0  0  0  0  0  0
   -4.8461   -3.1661    2.0110 C   0  0  1  0  0  0  0  0  0  0  0  0
   -4.5540   -3.5952    0.6943 O   0  0  0  0  0  0  0  0  0  0  0  0
   -3.7179   -0.5348    1.9449 C   0  0  1  0  0  0  0  0  0  0  0  0
   -2.7723    0.6675    1.9031 C   0  0  2  0  0  0  0  0  0  0  0  0
   -3.4278    1.7976    2.4474 O   0  0  0  0  0  0  0  0  0  0  0  0
   -2.4846    0.8099    0.4024 C   0  0  2  0  0  0  0  0  0  0  0  0
   -2.0289    2.1157    0.0479 O   0  0  0  0  0  0  0  0  0  0  0  0
   -3.8562    0.4291   -0.1684 C   0  0  2  0  0  0  0  0  0  0  0  0
   -4.3000   -0.6426    0.6520 O   0  0  0  0  0  0  0  0  0  0  0  0
   -3.8263   -0.0403   -1.6276 C   0  0  0  0  0  0  0  0  0  0  0  0
   -4.0642   -1.4279   -1.7326 O   0  0  0  0  0  0  0  0  0  0  0  0
   -1.1515    2.7174    0.9978 C   0  0  2  0  0  0  0  0  0  0  0  0
   -0.7475    4.1397    0.5806 C   0  0  2  0  0  0  0  0  0  0  0  0
   -1.9358    4.9765    0.3448 N   0  0  0  0  0  0  0  0  0  0  0  0
    0.1762    4.1161   -0.6465 C   0  0  1  0  0  0  0  0  0  0  0  0
    0.5833    5.4406   -0.9307 O   0  0  0  0  0  0  0  0  0  0  0  0
    1.3998    3.2440   -0.3175 C   0  0  2  0  0  0  0  0  0  0  0  0
    2.2656    3.1534   -1.4340 O   0  0  0  0  0  0  0  0  0  0  0  0
    0.9677    1.8373    0.1450 C   0  0  1  0  0  0  0  0  0  0  0  0
    0.0036    1.9059    1.1981 O   0  0  0  0  0  0  0  0  0  0  0  0
    0.4968    0.9360   -1.0060 C   0  0  0  0  0  0  0  0  0  0  0  0
    0.4527   -0.4772   -0.5968 N   0  0  0  0  0  0  0  0  0  0  0  0
  1  3  1  0  0  0  0
  1  2  1  1  0  0  0
  3  4  1  1  0  0  0
  5  6  1  1  0  0  0
  5  3  1  0  0  0  0
  7  9  1  0  0  0  0
  7  5  1  0  0  0  0
  7  8  1  1  0  0  0
  9 10  1  0  0  0  0
  9 11  1  6  0  0  0
 10  1  1  0  0  0  0
 11 12  1  0  0  0  0
 13 14  1  6  0  0  0
 13 21  1  0  0  0  0
 15 13  1  0  0  0  0
 16 15  1  0  0  0  0
 16 18  1  0  0  0  0
 16 17  1  1  0  0  0
 18  2  1  1  0  0  0
 18 19  1  0  0  0  0
 19 21  1  0  0  0  0
 19 20  1  6  0  0  0
 21 22  1  6  0  0  0
 23 20  1  6  0  0  0
 23 29  1  0  0  0  0
 23 24  1  0  0  0  0
 24 26  1  0  0  0  0
 24 25  1  6  0  0  0
 26 27  1  1  0  0  0
 28 26  1  0  0  0  0
 28 30  1  6  0  0  0
 29 28  1  0  0  0  0
 30 31  1  0  0  0  0
 32 27  1  6  0  0  0
 32 40  1  0  0  0  0
 32 33  1  0  0  0  0
 33 35  1  0  0  0  0
 33 34  1  6  0  0  0
 35 37  1  0  0  0  0
 35 36  1  1  0  0  0
 37 38  1  6  0  0  0
 39 37  1  0  0  0  0
 39 41  1  6  0  0  0
 40 39  1  0  0  0  0
 42 41  1  0  0  0  0
M  END
>  <CHROM.1>
-169.72259691,-172.05085295,-172.83094706,-53.86773618,-51.81290125,68.51392418
-162.61875704,-171.37604851,-97.08743969,-69.97297141,156.91743608,74.12966043
70.78422924,38.21743853,-177.67376248,108.61591987,76.42106043,-175.62428490
66.19636553,69.99586942,164.25184347,-153.92357918,-2.47179925,0.03323128
2.57023439,-2.39602890,-0.86661250,-1.50700931

>  <Name>
lig.pdb

>  <RI>
0

>  <Rbt.Current_Directory>
/home/itssahil/PROJECTS/Mol_Feturizer/New_Systems/rnas/2mxs

>  <Rbt.Executable>
rbdock ($Id: //depot/dev/client3/rdock/2013.1/src/exe/rbdock.cxx#4 $)

>  <Rbt.Library>
libRbt.so (2013.1, Build901 2013/11/27)

>  <Rbt.Parameter_File>
/export/apps/rDock/src/rDock_2013.1_src/data/scripts/dock_solv.prm

>  <Rbt.Receptor>
prm/pocket_docking_7.prm

>  <SCORE>
-47.2161

>  <SCORE.INTER>
-48.1282

>  <SCORE.INTER.CONST>
1

>  <SCORE.INTER.POLAR>
-7.07422

>  <SCORE.INTER.ROT>
9

>  <SCORE.INTER.SOLV>
14.7779

>  <SCORE.INTER.VDW>
-23.0307

>  <SCORE.INTER.norm>
-1.14591

>  <SCORE.INTRA>
0.912137

>  <SCORE.INTRA.DIHEDRAL>
-8.53686

>  <SCORE.INTRA.DIHEDRAL.0>
30.1357

>  <SCORE.INTRA.POLAR>
-0.187971

>  <SCORE.INTRA.POLAR.0>
-0.631696

>  <SCORE.INTRA.REPUL>
0.00455966

>  <SCORE.INTRA.REPUL.0>
0

>  <SCORE.INTRA.SOLV>
0.132632

>  <SCORE.INTRA.SOLV.lig_0>
-55.904

>  <SCORE.INTRA.VDW>
5.73055

>  <SCORE.INTRA.VDW.0>
-8.21197

>  <SCORE.INTRA.norm>
0.0217175

>  <SCORE.RESTR>
0

>  <SCORE.RESTR.CAVITY>
0

>  <SCORE.RESTR.norm>
0

>  <SCORE.SYSTEM>
0

>  <SCORE.SYSTEM.CONST>
0

>  <SCORE.SYSTEM.DIHEDRAL>
0

>  <SCORE.SYSTEM.SOLV>
0

>  <SCORE.SYSTEM.norm>
0

>  <SCORE.heavy>
42

>  <SCORE.norm>
-1.12419

>  <RMSD>
8.596

$$$$
lig.pdb
 OpenBabel11021811453D
libRbt.so/2013.1/901 2013/11/27
 42 45  0  0  0  0  0  0  0  0999 V2000
    0.2536    3.3135    7.3647 C   0  0  2  0  0  0  0  0  0  0  0  0
    1.3662    4.1787    7.1298 O   0  0  0  0  0  0  0  0  0  0  0  0
    0.6168    1.8558    7.0439 C   0  0  2  0  0  0  0  0  0  0  0  0
    1.8155    1.4325    7.7910 N   0  0  0  0  0  0  0  0  0  0  0  0
    0.8092    1.6563    5.5350 C   0  0  1  0  0  0  0  0  0  0  0  0
    0.9903    0.2799    5.2626 O   0  0  0  0  0  0  0  0  0  0  0  0
   -0.4199    2.1692    4.7694 C   0  0  2  0  0  0  0  0  0  0  0  0
   -0.1590    2.1231    3.3797 O   0  0  0  0  0  0  0  0  0  0  0  0
   -0.7845    3.6090    5.1847 C   0  0  2  0  0  0  0  0  0  0  0  0
   -0.8780    3.7288    6.6038 O   0  0  0  0  0  0  0  0  0  0  0  0
   -2.1389    3.9642    4.5422 C   0  0  0  0  0  0  0  0  0  0  0  0
   -3.1829    3.0231    4.9091 O   0  0  0  0  0  0  0  0  0  0  0  0
    3.7449    5.0803   10.6026 C   0  0  2  0  0  0  0  0  0  0  0  0
    4.2117    5.9834   11.6734 N   0  0  0  0  0  0  0  0  0  0  0  0
    4.0860    5.6631    9.2288 C   0  0  0  0  0  0  0  0  0  0  0  0
    3.4849    4.8089    8.1189 C   0  0  2  0  0  0  0  0  0  0  0  0
    3.8989    5.3191    6.8059 N   0  0  0  0  0  0  0  0  0  0  0  0
    1.9470    4.8073    8.2817 C   0  0  2  0  0  0  0  0  0  0  0  0
    1.6060    4.0934    9.5504 C   0  0  2  0  0  0  0  0  0  0  0  0
    0.1946    4.0667    9.6588 O   0  0  0  0  0  0  0  0  0  0  0  0
    2.2325    4.8170   10.7273 C   0  0  1  0  0  0  0  0  0  0  0  0
    2.0116    4.1364   11.9484 O   0  0  0  0  0  0  0  0  0  0  0  0
   -0.3838    3.1241   10.5554 C   0  0  1  0  0  0  0  0  0  0  0  0
   -1.8730    3.0142   10.2214 C   0  0  2  0  0  0  0  0  0  0  0  0
   -2.6080    2.8255   11.4160 O   0  0  0  0  0  0  0  0  0  0  0  0
   -1.9148    1.7909    9.2956 C   0  0  2  0  0  0  0  0  0  0  0  0
   -3.2091    1.1918    9.2284 O   0  0  0  0  0  0  0  0  0  0  0  0
   -0.8361    0.9222    9.9543 C   0  0  2  0  0  0  0  0  0  0  0  0
    0.1821    1.8394   10.3291 O   0  0  0  0  0  0  0  0  0  0  0  0
   -0.2317   -0.1435    9.0327 C   0  0  0  0  0  0  0  0  0  0  0  0
    0.8697   -0.7887    9.6360 O   0  0  0  0  0  0  0  0  0  0  0  0
   -4.2586    2.0840    8.8590 C   0  0  2  0  0  0  0  0  0  0  0  0
   -5.5650    1.7676    9.6030 C   0  0  2  0  0  0  0  0  0  0  0  0
   -5.3533    1.7648   11.0601 N   0  0  0  0  0  0  0  0  0  0  0  0
   -6.1706    0.4411    9.1202 C   0  0  1  0  0  0  0  0  0  0  0  0
   -7.4094    0.2457    9.7745 O   0  0  0  0  0  0  0  0  0  0  0  0
   -6.3819    0.5281    7.5991 C   0  0  2  0  0  0  0  0  0  0  0  0
   -6.9002   -0.6890    7.0946 O   0  0  0  0  0  0  0  0  0  0  0  0
   -5.0680    0.8942    6.8786 C   0  0  1  0  0  0  0  0  0  0  0  0
   -4.4656    2.0584    7.4485 O   0  0  0  0  0  0  0  0  0  0  0  0
   -4.0783   -0.2766    6.7851 C   0  0  0  0  0  0  0  0  0  0  0  0
   -2.8502    0.1150    6.0747 N   0  0  0  0  0  0  0  0  0  0  0  0
  1  3  1  0  0  0  0
  1  2  1  6  0  0  0
  3  4  1  1  0  0  0
  5  6  1  1  0  0  0
  5  3  1  0  0  0  0
  7  9  1  0  0  0  0
  7  5  1  0  0  0  0
  7  8  1  6  0  0  0
  9 10  1  0  0  0  0
  9 11  1  6  0  0  0
 10  1  1  0  0  0  0
 11 12  1  0  0  0  0
 13 14  1  1  0  0  0
 13 21  1  0  0  0  0
 15 13  1  0  0  0  0
 16 15  1  0  0  0  0
 16 18  1  0  0  0  0
 16 17  1  6  0  0  0
 18  2  1  6  0  0  0
 18 19  1  0  0  0  0
 19 21  1  0  0  0  0
 19 20  1  1  0  0  0
 21 22  1  1  0  0  0
 23 20  1  6  0  0  0
 23 29  1  0  0  0  0
 23 24  1  0  0  0  0
 24 26  1  0  0  0  0
 24 25  1  1  0  0  0
 26 27  1  1  0  0  0
 28 26  1  0  0  0  0
 28 30  1  6  0  0  0
 29 28  1  0  0  0  0
 30 31  1  0  0  0  0
 32 27  1  6  0  0  0
 32 40  1  0  0  0  0
 32 33  1  0  0  0  0
 33 35  1  0  0  0  0
 33 34  1  1  0  0  0
 35 37  1  0  0  0  0
 35 36  1  1  0  0  0
 37 38  1  6  0  0  0
 39 37  1  0  0  0  0
 39 41  1  1  0  0  0
 40 39  1  0  0  0  0
 42 41  1  0  0  0  0
M  END
>  <CHROM.1>
140.04287999,-113.11362428,177.42423268,-59.34720366,-58.69517783,73.95816663
56.63434941,-57.00251309,-161.26251476,162.06808602,-164.64585562,169.01837751
65.60931510,54.72883928,-143.63626768,172.23214591,57.44148088,152.78811484
-173.86255316,178.73266186,179.21281520,-0.07561487,-1.02529835,2.42106012
8.24124358,-0.17692240,-0.41272151,-1.71650682

>  <Name>
lig.pdb

>  <RI>
4.11275e+07

>  <Rbt.Current_Directory>
/home/itssahil/PROJECTS/Mol_Feturizer/New_Systems/rnas/2mxs

>  <Rbt.Executable>
rbdock ($Id: //depot/dev/client3/rdock/2013.1/src/exe/rbdock.cxx#4 $)

>  <Rbt.Library>
libRbt.so (2013.1, Build901 2013/11/27)

>  <Rbt.Parameter_File>
/export/apps/rDock/src/rDock_2013.1_src/data/scripts/dock_solv.prm

>  <Rbt.Receptor>
prm/pocket_docking_8.prm

>  <SCORE>
-20.9243

>  <SCORE.INTER>
-17.0225

>  <SCORE.INTER.CONST>
1

>  <SCORE.INTER.POLAR>
-3.8783

>  <SCORE.INTER.ROT>
9

>  <SCORE.INTER.SOLV>
14.7659

>  <SCORE.INTER.VDW>
-12.9427

>  <SCORE.INTER.norm>
-0.405298

>  <SCORE.INTRA>
-3.90177

>  <SCORE.INTRA.DIHEDRAL>
-1.48171

>  <SCORE.INTRA.DIHEDRAL.0>
30.1357

>  <SCORE.INTRA.POLAR>
-3.17501

>  <SCORE.INTRA.POLAR.0>
-0.631696

>  <SCORE.INTRA.REPUL>
0.0719989

>  <SCORE.INTRA.REPUL.0>
0

>  <SCORE.INTRA.SOLV>
3.67163

>  <SCORE.INTRA.SOLV.lig_0>
-55.904

>  <SCORE.INTRA.VDW>
5.43831

>  <SCORE.INTRA.VDW.0>
-8.21197

>  <SCORE.INTRA.norm>
-0.0928994

>  <SCORE.RESTR>
0

>  <SCORE.RESTR.CAVITY>
0

>  <SCORE.RESTR.norm>
0

>  <SCORE.SYSTEM>
0

>  <SCORE.SYSTEM.CONST>
0

>  <SCORE.SYSTEM.DIHEDRAL>
0

>  <SCORE.SYSTEM.SOLV>
0

>  <SCORE.SYSTEM.norm>
0

>  <SCORE.heavy>
42

>  <SCORE.norm>
-0.498197

>  <RMSD>
8.601

$$$$
lig.pdb
 OpenBabel11021811453D
libRbt.so/2013.1/901 2013/11/27
 42 45  0  0  0  0  0  0  0  0999 V2000
    7.0415    8.7031   -3.7261 C   0  0  2  0  0  0  0  0  0  0  0  0
    6.6222    8.7694   -2.3617 O   0  0  0  0  0  0  0  0  0  0  0  0
    6.4891    9.8921   -4.5266 C   0  0  2  0  0  0  0  0  0  0  0  0
    6.8581   11.1724   -3.8949 N   0  0  0  0  0  0  0  0  0  0  0  0
    4.9686    9.7806   -4.6982 C   0  0  1  0  0  0  0  0  0  0  0  0
    4.5176   10.8039   -5.5648 O   0  0  0  0  0  0  0  0  0  0  0  0
    4.5990    8.4124   -5.2906 C   0  0  2  0  0  0  0  0  0  0  0  0
    3.1916    8.2679   -5.2934 O   0  0  0  0  0  0  0  0  0  0  0  0
    5.2407    7.2588   -4.4932 C   0  0  2  0  0  0  0  0  0  0  0  0
    6.6413    7.4695   -4.3176 O   0  0  0  0  0  0  0  0  0  0  0  0
    5.0049    5.9499   -5.2707 C   0  0  0  0  0  0  0  0  0  0  0  0
    5.7678    5.9015   -6.5060 O   0  0  0  0  0  0  0  0  0  0  0  0
    8.8374    5.5035   -0.6419 C   0  0  2  0  0  0  0  0  0  0  0  0
    9.4070    4.7645    0.5025 N   0  0  0  0  0  0  0  0  0  0  0  0
    9.4212    6.9171   -0.7061 C   0  0  0  0  0  0  0  0  0  0  0  0
    8.7362    7.7319   -1.7968 C   0  0  2  0  0  0  0  0  0  0  0  0
    9.3686    9.0515   -1.9165 N   0  0  0  0  0  0  0  0  0  0  0  0
    7.2317    7.8388   -1.4552 C   0  0  2  0  0  0  0  0  0  0  0  0
    6.6266    6.4748   -1.5501 C   0  0  2  0  0  0  0  0  0  0  0  0
    5.2435    6.6016   -1.2752 O   0  0  0  0  0  0  0  0  0  0  0  0
    7.3002    5.5475   -0.5563 C   0  0  1  0  0  0  0  0  0  0  0  0
    6.8234    4.2191   -0.6613 O   0  0  0  0  0  0  0  0  0  0  0  0
    4.3274    6.0503   -2.2152 C   0  0  1  0  0  0  0  0  0  0  0  0
    3.6987    4.8074   -1.5817 C   0  0  2  0  0  0  0  0  0  0  0  0
    3.4865    3.8288   -2.5817 O   0  0  0  0  0  0  0  0  0  0  0  0
    2.3903    5.3590   -0.9995 C   0  0  2  0  0  0  0  0  0  0  0  0
    1.4101    4.3438   -0.7820 O   0  0  0  0  0  0  0  0  0  0  0  0
    2.0282    6.3828   -2.0825 C   0  0  2  0  0  0  0  0  0  0  0  0
    3.2688    6.9709   -2.4477 O   0  0  0  0  0  0  0  0  0  0  0  0
    1.0721    7.4866   -1.6157 C   0  0  0  0  0  0  0  0  0  0  0  0
    1.7695    8.6586   -1.2506 O   0  0  0  0  0  0  0  0  0  0  0  0
    1.5591    3.6261    0.4414 C   0  0  2  0  0  0  0  0  0  0  0  0
    0.8648    2.2567    0.3879 C   0  0  2  0  0  0  0  0  0  0  0  0
    1.3463    1.4670   -0.7577 N   0  0  0  0  0  0  0  0  0  0  0  0
   -0.6634    2.4106    0.3622 C   0  0  1  0  0  0  0  0  0  0  0  0
   -1.2476    1.1230    0.4005 O   0  0  0  0  0  0  0  0  0  0  0  0
   -1.0910    3.2241    1.5956 C   0  0  2  0  0  0  0  0  0  0  0  0
   -2.4914    3.4325    1.5977 O   0  0  0  0  0  0  0  0  0  0  0  0
   -0.3453    4.5732    1.6536 C   0  0  1  0  0  0  0  0  0  0  0  0
    1.0682    4.3952    1.5372 O   0  0  0  0  0  0  0  0  0  0  0  0
   -0.8779    5.6069    0.6502 C   0  0  0  0  0  0  0  0  0  0  0  0
   -0.7635    6.9757    1.1790 N   0  0  0  0  0  0  0  0  0  0  0  0
  1  3  1  0  0  0  0
  1  2  1  1  0  0  0
  3  4  1  1  0  0  0
  5  6  1  6  0  0  0
  5  3  1  0  0  0  0
  7  9  1  0  0  0  0
  7  5  1  0  0  0  0
  7  8  1  1  0  0  0
  9 10  1  0  0  0  0
  9 11  1  6  0  0  0
 10  1  1  0  0  0  0
 11 12  1  0  0  0  0
 13 14  1  1  0  0  0
 13 21  1  0  0  0  0
 15 13  1  0  0  0  0
 16 15  1  0  0  0  0
 16 18  1  0  0  0  0
 16 17  1  1  0  0  0
 18  2  1  6  0  0  0
 18 19  1  0  0  0  0
 19 21  1  0  0  0  0
 19 20  1  1  0  0  0
 21 22  1  6  0  0  0
 23 20  1  1  0  0  0
 23 29  1  0  0  0  0
 23 24  1  0  0  0  0
 24 26  1  0  0  0  0
 24 25  1  6  0  0  0
 26 27  1  6  0  0  0
 28 26  1  0  0  0  0
 28 30  1  1  0  0  0
 29 28  1  0  0  0  0
 30 31  1  0  0  0  0
 32 27  1  6  0  0  0
 32 40  1  0  0  0  0
 32 33  1  0  0  0  0
 33 35  1  0  0  0  0
 33 34  1  6  0  0  0
 35 37  1  0  0  0  0
 35 36  1  1  0  0  0
 37 38  1  6  0  0  0
 39 37  1  0  0  0  0
 39 41  1  6  0  0  0
 40 39  1  0  0  0  0
 42 41  1  0  0  0  0
M  END
>  <CHROM.1>
40.69243499,-170.67943481,74.82404339,55.08796767,55.30638334,-61.54432745
69.14203629,-62.74922410,71.19629982,127.63226254,108.45886247,-161.38912864
170.53765828,82.73435548,-158.25165145,96.97318045,72.58223116,-167.43866834
-172.55674429,-172.91544135,147.36904646,-172.42741910,3.94651547,6.19976649
-1.73990109,0.70047186,-0.03529350,-0.73634564

>  <Name>
lig.pdb

>  <RI>
4.11275e+07

>  <Rbt.Current_Directory>
/home/itssahil/PROJECTS/Mol_Feturizer/New_Systems/rnas/2mxs

>  <Rbt.Executable>
rbdock ($Id: //depot/dev/client3/rdock/2013.1/src/exe/rbdock.cxx#4 $)

>  <Rbt.Library>
libRbt.so (2013.1, Build901 2013/11/27)

>  <Rbt.Parameter_File>
/export/apps/rDock/src/rDock_2013.1_src/data/scripts/dock_solv.prm

>  <Rbt.Receptor>
prm/pocket_docking_8.prm

>  <SCORE>
-33.844

>  <SCORE.INTER>
-41.8566

>  <SCORE.INTER.CONST>
1

>  <SCORE.INTER.POLAR>
-5.86799

>  <SCORE.INTER.ROT>
9

>  <SCORE.INTER.SOLV>
17.5326

>  <SCORE.INTER.VDW>
-23.7886

>  <SCORE.INTER.norm>
-0.996586

>  <SCORE.INTRA>
8.01261

>  <SCORE.INTRA.DIHEDRAL>
1.95916

>  <SCORE.INTRA.DIHEDRAL.0>
30.1357

>  <SCORE.INTRA.POLAR>
0.561431

>  <SCORE.INTRA.POLAR.0>
-0.631696

>  <SCORE.INTRA.REPUL>
0.0420079

>  <SCORE.INTRA.REPUL.0>
0

>  <SCORE.INTRA.SOLV>
1.12412

>  <SCORE.INTRA.SOLV.lig_0>
-55.904

>  <SCORE.INTRA.VDW>
4.35206

>  <SCORE.INTRA.VDW.0>
-8.21197

>  <SCORE.INTRA.norm>
0.190776

>  <SCORE.RESTR>
0

>  <SCORE.RESTR.CAVITY>
0

>  <SCORE.RESTR.norm>
0

>  <SCORE.SYSTEM>
0

>  <SCORE.SYSTEM.CONST>
0

>  <SCORE.SYSTEM.DIHEDRAL>
0

>  <SCORE.SYSTEM.SOLV>
0

>  <SCORE.SYSTEM.norm>
0

>  <SCORE.heavy>
42

>  <SCORE.norm>
-0.805809

>  <RMSD>
8.603

$$$$
lig.pdb
 OpenBabel11021811453D
libRbt.so/2013.1/901 2013/11/27
 42 45  0  0  0  0  0  0  0  0999 V2000
   -0.0774    2.0556    7.2277 C   0  0  2  0  0  0  0  0  0  0  0  0
    0.2074    3.1671    6.3763 O   0  0  0  0  0  0  0  0  0  0  0  0
    0.6637    0.7973    6.7511 C   0  0  2  0  0  0  0  0  0  0  0  0
    2.1119    1.0488    6.6336 N   0  0  0  0  0  0  0  0  0  0  0  0
    0.0839    0.2865    5.4258 C   0  0  1  0  0  0  0  0  0  0  0  0
    0.6840   -0.9517    5.0968 O   0  0  0  0  0  0  0  0  0  0  0  0
   -1.4360    0.0994    5.5468 C   0  0  2  0  0  0  0  0  0  0  0  0
   -1.9715   -0.2179    4.2764 O   0  0  0  0  0  0  0  0  0  0  0  0
   -2.1195    1.3663    6.1000 C   0  0  2  0  0  0  0  0  0  0  0  0
   -1.4812    1.8174    7.2941 O   0  0  0  0  0  0  0  0  0  0  0  0
   -3.5928    1.0258    6.3943 C   0  0  0  0  0  0  0  0  0  0  0  0
   -3.7367   -0.2616    7.0518 O   0  0  0  0  0  0  0  0  0  0  0  0
   -0.9847    6.4532    8.8885 C   0  0  2  0  0  0  0  0  0  0  0  0
   -1.1045    7.8926    9.1952 N   0  0  0  0  0  0  0  0  0  0  0  0
    0.4871    6.0639    8.7293 C   0  0  0  0  0  0  0  0  0  0  0  0
    0.6130    4.6146    8.2748 C   0  0  2  0  0  0  0  0  0  0  0  0
    2.0266    4.2215    8.2199 N   0  0  0  0  0  0  0  0  0  0  0  0
   -0.0826    4.4708    6.9011 C   0  0  2  0  0  0  0  0  0  0  0  0
   -1.5491    4.6944    7.0873 C   0  0  2  0  0  0  0  0  0  0  0  0
   -2.1711    4.5173    5.8278 O   0  0  0  0  0  0  0  0  0  0  0  0
   -1.7879    6.0928    7.6246 C   0  0  1  0  0  0  0  0  0  0  0  0
   -3.1558    6.3302    7.8996 O   0  0  0  0  0  0  0  0  0  0  0  0
   -1.8015    5.4023    4.7756 C   0  0  1  0  0  0  0  0  0  0  0  0
   -0.4471    4.9425    4.2321 C   0  0  2  0  0  0  0  0  0  0  0  0
    0.3173    6.0745    3.8616 O   0  0  0  0  0  0  0  0  0  0  0  0
   -0.8496    4.0755    3.0315 C   0  0  2  0  0  0  0  0  0  0  0  0
    0.2053    3.9217    2.0816 O   0  0  0  0  0  0  0  0  0  0  0  0
   -2.0614    4.8679    2.5259 C   0  0  2  0  0  0  0  0  0  0  0  0
   -2.7316    5.2881    3.7060 O   0  0  0  0  0  0  0  0  0  0  0  0
   -3.0341    4.0551    1.6635 C   0  0  0  0  0  0  0  0  0  0  0  0
   -3.6852    3.0542    2.4167 O   0  0  0  0  0  0  0  0  0  0  0  0
   -0.1768    3.2770    0.8682 C   0  0  2  0  0  0  0  0  0  0  0  0
    1.0283    2.6495    0.1513 C   0  0  2  0  0  0  0  0  0  0  0  0
    1.7491    1.7262    1.0436 N   0  0  0  0  0  0  0  0  0  0  0  0
    1.9625    3.7306   -0.4126 C   0  0  1  0  0  0  0  0  0  0  0  0
    3.0027    3.0977   -1.1325 O   0  0  0  0  0  0  0  0  0  0  0  0
    1.1464    4.6388   -1.3480 C   0  0  2  0  0  0  0  0  0  0  0  0
    1.9530    5.6821   -1.8632 O   0  0  0  0  0  0  0  0  0  0  0  0
   -0.0843    5.2183   -0.6204 C   0  0  1  0  0  0  0  0  0  0  0  0
   -0.8536    4.1898    0.0068 O   0  0  0  0  0  0  0  0  0  0  0  0
    0.2637    6.3511    0.3566 C   0  0  0  0  0  0  0  0  0  0  0  0
    0.2935    7.6558   -0.3239 N   0  0  0  0  0  0  0  0  0  0  0  0
  1  3  1  0  0  0  0
  1  2  1  6  0  0  0
  3  4  1  6  0  0  0
  5  6  1  1  0  0  0
  5  3  1  0  0  0  0
  7  9  1  0  0  0  0
  7  5  1  0  0  0  0
  7  8  1  6  0  0  0
  9 10  1  0  0  0  0
  9 11  1  1  0  0  0
 10  1  1  0  0  0  0
 11 12  1  0  0  0  0
 13 14  1  6  0  0  0
 13 21  1  0  0  0  0
 15 13  1  0  0  0  0
 16 15  1  0  0  0  0
 16 18  1  0  0  0  0
 16 17  1  6  0  0  0
 18  2  1  1  0  0  0
 18 19  1  0  0  0  0
 19 21  1  0  0  0  0
 19 20  1  6  0  0  0
 21 22  1  1  0  0  0
 23 20  1  1  0  0  0
 23 29  1  0  0  0  0
 23 24  1  0  0  0  0
 24 26  1  0  0  0  0
 24 25  1  6  0  0  0
 26 27  1  6  0  0  0
 28 26  1  0  0  0  0
 28 30  1  6  0  0  0
 29 28  1  0  0  0  0
 30 31  1  0  0  0  0
 32 27  1  1  0  0  0
 32 40  1  0  0  0  0
 32 33  1  0  0  0  0
 33 35  1  0  0  0  0
 33 34  1  1  0  0  0
 35 37  1  0  0  0  0
 35 36  1  6  0  0  0
 37 38  1  1  0  0  0
 39 37  1  0  0  0  0
 39 41  1  1  0  0  0
 40 39  1  0  0  0  0
 42 41  1  0  0  0  0
M  END
>  <CHROM.1>
52.96944668,-162.25322981,54.01001567,14.57908118,-54.65396906,60.17599789
43.45526946,62.40711388,-176.55256513,-62.16029837,77.83605904,72.48855168
63.23673329,-171.96071138,-157.40472908,67.07244810,54.07561582,59.62836411
64.00757927,-58.99106925,86.94032870,-171.10188158,-0.51197727,3.69728209
4.22175249,-2.92430729,1.33987556,-0.10063314

>  <Name>
lig.pdb

>  <RI>
0

>  <Rbt.Current_Directory>
/home/itssahil/PROJECTS/Mol_Feturizer/New_Systems/rnas/2mxs

>  <Rbt.Executable>
rbdock ($Id: //depot/dev/client3/rdock/2013.1/src/exe/rbdock.cxx#4 $)

>  <Rbt.Library>
libRbt.so (2013.1, Build901 2013/11/27)

>  <Rbt.Parameter_File>
/export/apps/rDock/src/rDock_2013.1_src/data/scripts/dock_solv.prm

>  <Rbt.Receptor>
prm/pocket_docking_4.prm

>  <SCORE>
-28.0493

>  <SCORE.INTER>
-30.7889

>  <SCORE.INTER.CONST>
1

>  <SCORE.INTER.POLAR>
-4.00228

>  <SCORE.INTER.ROT>
9

>  <SCORE.INTER.SOLV>
14.9065

>  <SCORE.INTER.VDW>
-21.7539

>  <SCORE.INTER.norm>
-0.73307

>  <SCORE.INTRA>
2.73513

>  <SCORE.INTRA.DIHEDRAL>
-12.7598

>  <SCORE.INTRA.DIHEDRAL.0>
30.1357

>  <SCORE.INTRA.POLAR>
0.567296

>  <SCORE.INTRA.POLAR.0>
-0.631696

>  <SCORE.INTRA.REPUL>
0

>  <SCORE.INTRA.REPUL.0>
0

>  <SCORE.INTRA.SOLV>
0.497969

>  <SCORE.INTRA.SOLV.lig_0>
-55.904

>  <SCORE.INTRA.VDW>
6.93726

>  <SCORE.INTRA.VDW.0>
-8.21197

>  <SCORE.INTRA.norm>
0.0651221

>  <SCORE.RESTR>
0.0045098

>  <SCORE.RESTR.CAVITY>
0.0045098

>  <SCORE.RESTR.norm>
0.000107376

>  <SCORE.SYSTEM>
0

>  <SCORE.SYSTEM.CONST>
0

>  <SCORE.SYSTEM.DIHEDRAL>
0

>  <SCORE.SYSTEM.SOLV>
0

>  <SCORE.SYSTEM.norm>
0

>  <SCORE.heavy>
42

>  <SCORE.norm>
-0.66784

>  <RMSD>
8.608

$$$$
lig.pdb
 OpenBabel11021811453D
libRbt.so/2013.1/901 2013/11/27
 42 45  0  0  0  0  0  0  0  0999 V2000
   -1.8517   -0.6942    5.8017 C   0  0  2  0  0  0  0  0  0  0  0  0
   -2.6346   -1.7986    6.2586 O   0  0  0  0  0  0  0  0  0  0  0  0
   -0.6975   -0.4028    6.7727 C   0  0  2  0  0  0  0  0  0  0  0  0
    0.1220   -1.6080    6.9972 N   0  0  0  0  0  0  0  0  0  0  0  0
   -1.2237    0.1605    8.0991 C   0  0  1  0  0  0  0  0  0  0  0  0
   -0.1321    0.5585    8.9063 O   0  0  0  0  0  0  0  0  0  0  0  0
   -2.1329    1.3712    7.8397 C   0  0  2  0  0  0  0  0  0  0  0  0
   -2.7316    1.7766    9.0557 O   0  0  0  0  0  0  0  0  0  0  0  0
   -3.2266    1.0452    6.8024 C   0  0  2  0  0  0  0  0  0  0  0  0
   -2.6654    0.4629    5.6264 O   0  0  0  0  0  0  0  0  0  0  0  0
   -3.9489    2.3567    6.4398 C   0  0  0  0  0  0  0  0  0  0  0  0
   -4.8026    2.8277    7.5167 O   0  0  0  0  0  0  0  0  0  0  0  0
   -5.2651   -4.2216    3.8627 C   0  0  2  0  0  0  0  0  0  0  0  0
   -6.4563   -4.4165    3.0122 N   0  0  0  0  0  0  0  0  0  0  0  0
   -5.6783   -3.7299    5.2522 C   0  0  0  0  0  0  0  0  0  0  0  0
   -4.4502   -3.3921    6.0892 C   0  0  2  0  0  0  0  0  0  0  0  0
   -4.8523   -3.0159    7.4503 N   0  0  0  0  0  0  0  0  0  0  0  0
   -3.6720   -2.2591    5.3805 C   0  0  2  0  0  0  0  0  0  0  0  0
   -3.1308   -2.7906    4.0921 C   0  0  2  0  0  0  0  0  0  0  0  0
   -2.3882   -1.7518    3.4804 O   0  0  0  0  0  0  0  0  0  0  0  0
   -4.2757   -3.2414    3.2049 C   0  0  1  0  0  0  0  0  0  0  0  0
   -3.8165   -3.8320    2.0036 O   0  0  0  0  0  0  0  0  0  0  0  0
   -2.6391   -1.4780    2.1061 C   0  0  1  0  0  0  0  0  0  0  0  0
   -2.4737    0.0280    1.8917 C   0  0  2  0  0  0  0  0  0  0  0  0
   -3.4170    0.4709    0.9342 O   0  0  0  0  0  0  0  0  0  0  0  0
   -1.0253    0.1342    1.3957 C   0  0  2  0  0  0  0  0  0  0  0  0
   -0.7732    1.3430    0.6787 O   0  0  0  0  0  0  0  0  0  0  0  0
   -0.9383   -1.1445    0.5535 C   0  0  2  0  0  0  0  0  0  0  0  0
   -1.6537   -2.1161    1.3037 O   0  0  0  0  0  0  0  0  0  0  0  0
    0.4894   -1.6505    0.3167 C   0  0  0  0  0  0  0  0  0  0  0  0
    1.2914   -1.5029    1.4691 O   0  0  0  0  0  0  0  0  0  0  0  0
   -0.5423    2.4849    1.5014 C   0  0  2  0  0  0  0  0  0  0  0  0
   -1.3337    3.7084    1.0146 C   0  0  2  0  0  0  0  0  0  0  0  0
   -2.7704    3.4010    0.9170 N   0  0  0  0  0  0  0  0  0  0  0  0
   -0.7791    4.2329   -0.3184 C   0  0  1  0  0  0  0  0  0  0  0  0
   -1.4873    5.4051   -0.6721 O   0  0  0  0  0  0  0  0  0  0  0  0
    0.7142    4.5511   -0.1322 C   0  0  2  0  0  0  0  0  0  0  0  0
    1.2865    4.9993   -1.3471 O   0  0  0  0  0  0  0  0  0  0  0  0
    1.4787    3.3227    0.4028 C   0  0  1  0  0  0  0  0  0  0  0  0
    0.8507    2.7821    1.5676 O   0  0  0  0  0  0  0  0  0  0  0  0
    1.7278    2.2480   -0.6657 C   0  0  0  0  0  0  0  0  0  0  0  0
    3.0499    1.6229   -0.4993 N   0  0  0  0  0  0  0  0  0  0  0  0
  1  3  1  0  0  0  0
  1  2  1  1  0  0  0
  3  4  1  1  0  0  0
  5  6  1  1  0  0  0
  5  3  1  0  0  0  0
  7  9  1  0  0  0  0
  7  5  1  0  0  0  0
  7  8  1  1  0  0  0
  9 10  1  0  0  0  0
  9 11  1  6  0  0  0
 10  1  1  0  0  0  0
 11 12  1  0  0  0  0
 13 14  1  6  0  0  0
 13 21  1  0  0  0  0
 15 13  1  0  0  0  0
 16 15  1  0  0  0  0
 16 18  1  0  0  0  0
 16 17  1  1  0  0  0
 18  2  1  1  0  0  0
 18 19  1  0  0  0  0
 19 21  1  0  0  0  0
 19 20  1  6  0  0  0
 21 22  1  6  0  0  0
 23 20  1  1  0  0  0
 23 29  1  0  0  0  0
 23 24  1  0  0  0  0
 24 26  1  0  0  0  0
 24 25  1  6  0  0  0
 26 27  1  6  0  0  0
 28 26  1  0  0  0  0
 28 30  1  1  0  0  0
 29 28  1  0  0  0  0
 30 31  1  0  0  0  0
 32 27  1  6  0  0  0
 32 40  1  0  0  0  0
 32 33  1  0  0  0  0
 33 35  1  0  0  0  0
 33 34  1  6  0  0  0
 35 37  1  0  0  0  0
 35 36  1  1  0  0  0
 37 38  1  6  0  0  0
 39 37  1  0  0  0  0
 39 41  1  6  0  0  0
 40 39  1  0  0  0  0
 42 41  1  0  0  0  0
M  END
>  <CHROM.1>
-176.60704388,-174.30299819,153.67665884,51.42476387,-74.30637431,175.04603859
-72.30277364,66.25614316,70.74718106,-131.52138337,145.81488897,-58.52733585
-54.26293095,80.40332439,-134.11817985,39.29275009,67.35835044,-13.79583642
-77.53918055,-33.59021313,142.47856660,-172.26283228,-1.87349827,0.16223017
3.38866971,-2.71457433,-1.05041560,-2.01146897

>  <Name>
lig.pdb

>  <RI>
4.11275e+07

>  <Rbt.Current_Directory>
/home/itssahil/PROJECTS/Mol_Feturizer/New_Systems/rnas/2mxs

>  <Rbt.Executable>
rbdock ($Id: //depot/dev/client3/rdock/2013.1/src/exe/rbdock.cxx#4 $)

>  <Rbt.Library>
libRbt.so (2013.1, Build901 2013/11/27)

>  <Rbt.Parameter_File>
/export/apps/rDock/src/rDock_2013.1_src/data/scripts/dock_solv.prm

>  <Rbt.Receptor>
prm/pocket_docking_8.prm

>  <SCORE>
-44.4963

>  <SCORE.INTER>
-54.4534

>  <SCORE.INTER.CONST>
1

>  <SCORE.INTER.POLAR>
-7.76531

>  <SCORE.INTER.ROT>
9

>  <SCORE.INTER.SOLV>
20.6739

>  <SCORE.INTER.VDW>
-26.9092

>  <SCORE.INTER.norm>
-1.29651

>  <SCORE.INTRA>
9.95712

>  <SCORE.INTRA.DIHEDRAL>
6.50534

>  <SCORE.INTRA.DIHEDRAL.0>
30.1357

>  <SCORE.INTRA.POLAR>
-0.359565

>  <SCORE.INTRA.POLAR.0>
-0.631696

>  <SCORE.INTRA.REPUL>
0

>  <SCORE.INTRA.REPUL.0>
0

>  <SCORE.INTRA.SOLV>
-0.138277

>  <SCORE.INTRA.SOLV.lig_0>
-55.904

>  <SCORE.INTRA.VDW>
7.99611

>  <SCORE.INTRA.VDW.0>
-8.21197

>  <SCORE.INTRA.norm>
0.237074

>  <SCORE.RESTR>
0

>  <SCORE.RESTR.CAVITY>
0

>  <SCORE.RESTR.norm>
0

>  <SCORE.SYSTEM>
0

>  <SCORE.SYSTEM.CONST>
0

>  <SCORE.SYSTEM.DIHEDRAL>
0

>  <SCORE.SYSTEM.SOLV>
0

>  <SCORE.SYSTEM.norm>
0

>  <SCORE.heavy>
42

>  <SCORE.norm>
-1.05944

>  <RMSD>
8.628

$$$$
lig.pdb
 OpenBabel11021811453D
libRbt.so/2013.1/901 2013/11/27
 42 45  0  0  0  0  0  0  0  0999 V2000
   -1.1337    4.5212    7.6007 C   0  0  2  0  0  0  0  0  0  0  0  0
   -0.0110    4.5708    6.7184 O   0  0  0  0  0  0  0  0  0  0  0  0
   -0.7635    3.8240    8.9186 C   0  0  2  0  0  0  0  0  0  0  0  0
    0.4066    4.4655    9.5460 N   0  0  0  0  0  0  0  0  0  0  0  0
   -0.5181    2.3258    8.6980 C   0  0  1  0  0  0  0  0  0  0  0  0
   -0.3314    1.6914    9.9487 O   0  0  0  0  0  0  0  0  0  0  0  0
   -1.7177    1.6902    7.9791 C   0  0  2  0  0  0  0  0  0  0  0  0
   -1.4077    0.3510    7.6447 O   0  0  0  0  0  0  0  0  0  0  0  0
   -2.0927    2.4732    6.7044 C   0  0  2  0  0  0  0  0  0  0  0  0
   -2.2363    3.8665    6.9782 O   0  0  0  0  0  0  0  0  0  0  0  0
   -3.4223    1.9084    6.1693 C   0  0  0  0  0  0  0  0  0  0  0  0
   -3.3780    1.6666    4.7375 O   0  0  0  0  0  0  0  0  0  0  0  0
   -1.1565    7.7324    4.0309 C   0  0  2  0  0  0  0  0  0  0  0  0
   -0.9735    8.5503    2.8152 N   0  0  0  0  0  0  0  0  0  0  0  0
    0.0581    7.8696    4.9522 C   0  0  0  0  0  0  0  0  0  0  0  0
   -0.0592    6.9218    6.1400 C   0  0  2  0  0  0  0  0  0  0  0  0
    1.0599    7.1304    7.0674 N   0  0  0  0  0  0  0  0  0  0  0  0
   -0.1064    5.4715    5.6054 C   0  0  2  0  0  0  0  0  0  0  0  0
   -1.3762    5.2914    4.8368 C   0  0  2  0  0  0  0  0  0  0  0  0
   -1.4192    3.9478    4.3925 O   0  0  0  0  0  0  0  0  0  0  0  0
   -1.4058    6.2567    3.6668 C   0  0  1  0  0  0  0  0  0  0  0  0
   -2.6253    6.1880    2.9519 O   0  0  0  0  0  0  0  0  0  0  0  0
   -0.3456    3.4831    3.5812 C   0  0  1  0  0  0  0  0  0  0  0  0
   -0.4988    1.9686    3.4256 C   0  0  2  0  0  0  0  0  0  0  0  0
    0.7827    1.3685    3.4018 O   0  0  0  0  0  0  0  0  0  0  0  0
   -1.2395    1.8470    2.0870 C   0  0  2  0  0  0  0  0  0  0  0  0
   -1.0844    0.5623    1.4835 O   0  0  0  0  0  0  0  0  0  0  0  0
   -0.5890    3.0032    1.3174 C   0  0  2  0  0  0  0  0  0  0  0  0
   -0.4547    4.0413    2.2779 O   0  0  0  0  0  0  0  0  0  0  0  0
   -1.4169    3.5220    0.1359 C   0  0  0  0  0  0  0  0  0  0  0  0
   -0.7010    4.4734   -0.6227 O   0  0  0  0  0  0  0  0  0  0  0  0
   -1.9690    0.3065    0.3945 C   0  0  2  0  0  0  0  0  0  0  0  0
   -3.3278   -0.2249    0.8756 C   0  0  2  0  0  0  0  0  0  0  0  0
   -3.9351    0.6926    1.8541 N   0  0  0  0  0  0  0  0  0  0  0  0
   -3.1976   -1.6464    1.4431 C   0  0  1  0  0  0  0  0  0  0  0  0
   -4.4870   -2.1144    1.7886 O   0  0  0  0  0  0  0  0  0  0  0  0
   -2.5786   -2.5473    0.3610 C   0  0  2  0  0  0  0  0  0  0  0  0
   -2.3964   -3.8638    0.8487 O   0  0  0  0  0  0  0  0  0  0  0  0
   -1.2397   -1.9683   -0.1407 C   0  0  1  0  0  0  0  0  0  0  0  0
   -1.3751   -0.6001   -0.5320 O   0  0  0  0  0  0  0  0  0  0  0  0
   -0.0808   -2.1706    0.8467 C   0  0  0  0  0  0  0  0  0  0  0  0
    1.1732   -1.6034    0.3251 N   0  0  0  0  0  0  0  0  0  0  0  0
  1  3  1  0  0  0  0
  1  2  1  6  0  0  0
  3  4  1  6  0  0  0
  5  6  1  1  0  0  0
  5  3  1  0  0  0  0
  7  9  1  0  0  0  0
  7  5  1  0  0  0  0
  7  8  1  6  0  0  0
  9 10  1  0  0  0  0
  9 11  1  1  0  0  0
 10  1  1  0  0  0  0
 11 12  1  0  0  0  0
 13 14  1  6  0  0  0
 13 21  1  0  0  0  0
 15 13  1  0  0  0  0
 16 15  1  0  0  0  0
 16 18  1  0  0  0  0
 16 17  1  1  0  0  0
 18  2  1  1  0  0  0
 18 19  1  0  0  0  0
 19 21  1  0  0  0  0
 19 20  1  6  0  0  0
 21 22  1  1  0  0  0
 23 20  1  1  0  0  0
 23 29  1  0  0  0  0
 23 24  1  0  0  0  0
 24 26  1  0  0  0  0
 24 25  1  6  0  0  0
 26 27  1  6  0  0  0
 28 26  1  0  0  0  0
 28 30  1  6  0  0  0
 29 28  1  0  0  0  0
 30 31  1  0  0  0  0
 32 27  1  1  0  0  0
 32 40  1  0  0  0  0
 32 33  1  0  0  0  0
 33 35  1  0  0  0  0
 33 34  1  1  0  0  0
 35 37  1  0  0  0  0
 35 36  1  6  0  0  0
 37 38  1  1  0  0  0
 39 37  1  0  0  0  0
 39 41  1  1  0  0  0
 40 39  1  0  0  0  0
 42 41  1  0  0  0  0
M  END
>  <CHROM.1>
69.28128259,-164.95651140,58.34262505,-174.86441076,106.25650474,-167.81721006
-133.45576353,178.39421287,55.72924070,-57.88705454,170.87368171,-58.58509633
-63.48669551,167.49941821,-85.10640895,-173.12091978,-178.14053286,174.69219294
55.66424686,68.31152492,179.97514801,-59.64148557,-1.27322313,2.53512245
3.88152384,0.51225015,1.39675469,1.79901563

>  <Name>
lig.pdb

>  <RI>
0

>  <Rbt.Current_Directory>
/home/itssahil/PROJECTS/Mol_Feturizer/New_Systems/rnas/2mxs

>  <Rbt.Executable>
rbdock ($Id: //depot/dev/client3/rdock/2013.1/src/exe/rbdock.cxx#4 $)

>  <Rbt.Library>
libRbt.so (2013.1, Build901 2013/11/27)

>  <Rbt.Parameter_File>
/export/apps/rDock/src/rDock_2013.1_src/data/scripts/dock_solv.prm

>  <Rbt.Receptor>
prm/pocket_docking_6.prm

>  <SCORE>
-38.2689

>  <SCORE.INTER>
-35.8853

>  <SCORE.INTER.CONST>
1

>  <SCORE.INTER.POLAR>
-5.10654

>  <SCORE.INTER.ROT>
9

>  <SCORE.INTER.SOLV>
16.1468

>  <SCORE.INTER.VDW>
-21.884

>  <SCORE.INTER.norm>
-0.854412

>  <SCORE.INTRA>
-2.38356

>  <SCORE.INTRA.DIHEDRAL>
-11.4214

>  <SCORE.INTRA.DIHEDRAL.0>
30.1357

>  <SCORE.INTRA.POLAR>
0.0873464

>  <SCORE.INTRA.POLAR.0>
-0.631696

>  <SCORE.INTRA.REPUL>
0

>  <SCORE.INTRA.REPUL.0>
0

>  <SCORE.INTRA.SOLV>
0.64082

>  <SCORE.INTRA.SOLV.lig_0>
-55.904

>  <SCORE.INTRA.VDW>
2.70973

>  <SCORE.INTRA.VDW.0>
-8.21197

>  <SCORE.INTRA.norm>
-0.0567515

>  <SCORE.RESTR>
0

>  <SCORE.RESTR.CAVITY>
0

>  <SCORE.RESTR.norm>
0

>  <SCORE.SYSTEM>
0

>  <SCORE.SYSTEM.CONST>
0

>  <SCORE.SYSTEM.DIHEDRAL>
0

>  <SCORE.SYSTEM.SOLV>
0

>  <SCORE.SYSTEM.norm>
0

>  <SCORE.heavy>
42

>  <SCORE.norm>
-0.911164

>  <RMSD>
8.631

$$$$
lig.pdb
 OpenBabel11021811453D
libRbt.so/2013.1/901 2013/11/27
 42 45  0  0  0  0  0  0  0  0999 V2000
    0.1793    4.5059    6.8132 C   0  0  2  0  0  0  0  0  0  0  0  0
   -0.6937    5.6118    6.5761 O   0  0  0  0  0  0  0  0  0  0  0  0
   -0.2479    3.7311    8.0690 C   0  0  2  0  0  0  0  0  0  0  0  0
   -1.6593    3.3138    7.9786 N   0  0  0  0  0  0  0  0  0  0  0  0
    0.0020    4.5580    9.3368 C   0  0  1  0  0  0  0  0  0  0  0  0
   -0.2577    3.7607   10.4763 O   0  0  0  0  0  0  0  0  0  0  0  0
    1.4587    5.0439    9.3768 C   0  0  2  0  0  0  0  0  0  0  0  0
    1.6268    5.9314   10.4656 O   0  0  0  0  0  0  0  0  0  0  0  0
    1.8564    5.7475    8.0634 C   0  0  2  0  0  0  0  0  0  0  0  0
    1.5304    4.9452    6.9289 O   0  0  0  0  0  0  0  0  0  0  0  0
    3.3748    6.0055    8.0991 C   0  0  0  0  0  0  0  0  0  0  0  0
    3.6907    7.4229    8.0590 O   0  0  0  0  0  0  0  0  0  0  0  0
   -1.5512    7.8869    3.0236 C   0  0  2  0  0  0  0  0  0  0  0  0
   -1.2203    8.3828    1.6727 N   0  0  0  0  0  0  0  0  0  0  0  0
   -0.4985    8.3510    4.0333 C   0  0  0  0  0  0  0  0  0  0  0  0
   -0.7546    7.7281    5.4006 C   0  0  2  0  0  0  0  0  0  0  0  0
    0.1997    8.2548    6.3843 N   0  0  0  0  0  0  0  0  0  0  0  0
   -0.6570    6.1909    5.2636 C   0  0  2  0  0  0  0  0  0  0  0  0
   -1.7857    5.7196    4.4036 C   0  0  2  0  0  0  0  0  0  0  0  0
   -1.7022    4.3084    4.3255 O   0  0  0  0  0  0  0  0  0  0  0  0
   -1.6780    6.3518    3.0288 C   0  0  1  0  0  0  0  0  0  0  0  0
   -2.7699    6.0057    2.1976 O   0  0  0  0  0  0  0  0  0  0  0  0
   -2.9164    3.5679    4.3901 C   0  0  1  0  0  0  0  0  0  0  0  0
   -3.1141    2.8755    3.0400 C   0  0  2  0  0  0  0  0  0  0  0  0
   -4.4936    2.8493    2.7250 O   0  0  0  0  0  0  0  0  0  0  0  0
   -2.5341    1.4781    3.2969 C   0  0  2  0  0  0  0  0  0  0  0  0
   -3.0187    0.5001    2.3764 O   0  0  0  0  0  0  0  0  0  0  0  0
   -2.9766    1.2698    4.7505 C   0  0  2  0  0  0  0  0  0  0  0  0
   -2.7974    2.5386    5.3641 O   0  0  0  0  0  0  0  0  0  0  0  0
   -2.1576    0.2255    5.5180 C   0  0  0  0  0  0  0  0  0  0  0  0
   -0.8308    0.6587    5.7305 O   0  0  0  0  0  0  0  0  0  0  0  0
   -2.3658   -0.7655    2.4553 C   0  0  2  0  0  0  0  0  0  0  0  0
   -1.3462   -0.9533    1.3216 C   0  0  2  0  0  0  0  0  0  0  0  0
   -0.3722    0.1508    1.3015 N   0  0  0  0  0  0  0  0  0  0  0  0
   -2.0486   -1.1083   -0.0356 C   0  0  1  0  0  0  0  0  0  0  0  0
   -1.0696   -1.3635   -1.0242 O   0  0  0  0  0  0  0  0  0  0  0  0
   -3.0298   -2.2894    0.0567 C   0  0  2  0  0  0  0  0  0  0  0  0
   -3.7374   -2.4494   -1.1591 O   0  0  0  0  0  0  0  0  0  0  0  0
   -4.0119   -2.1015    1.2313 C   0  0  1  0  0  0  0  0  0  0  0  0
   -3.3212   -1.8239    2.4516 O   0  0  0  0  0  0  0  0  0  0  0  0
   -5.1112   -1.0676    0.9463 C   0  0  0  0  0  0  0  0  0  0  0  0
   -5.6888   -0.5414    2.1936 N   0  0  0  0  0  0  0  0  0  0  0  0
  1  3  1  0  0  0  0
  1  2  1  1  0  0  0
  3  4  1  6  0  0  0
  5  6  1  1  0  0  0
  5  3  1  0  0  0  0
  7  9  1  0  0  0  0
  7  5  1  0  0  0  0
  7  8  1  1  0  0  0
  9 10  1  0  0  0  0
  9 11  1  1  0  0  0
 10  1  1  0  0  0  0
 11 12  1  0  0  0  0
 13 14  1  6  0  0  0
 13 21  1  0  0  0  0
 15 13  1  0  0  0  0
 16 15  1  0  0  0  0
 16 18  1  0  0  0  0
 16 17  1  1  0  0  0
 18  2  1  1  0  0  0
 18 19  1  0  0  0  0
 19 21  1  0  0  0  0
 19 20  1  6  0  0  0
 21 22  1  6  0  0  0
 23 20  1  6  0  0  0
 23 29  1  0  0  0  0
 23 24  1  0  0  0  0
 24 26  1  0  0  0  0
 24 25  1  1  0  0  0
 26 27  1  6  0  0  0
 28 26  1  0  0  0  0
 28 30  1  1  0  0  0
 29 28  1  0  0  0  0
 30 31  1  0  0  0  0
 32 27  1  6  0  0  0
 32 40  1  0  0  0  0
 32 33  1  0  0  0  0
 33 35  1  0  0  0  0
 33 34  1  6  0  0  0
 35 37  1  0  0  0  0
 35 36  1  6  0  0  0
 37 38  1  6  0  0  0
 39 37  1  0  0  0  0
 39 41  1  6  0  0  0
 40 39  1  0  0  0  0
 42 41  1  0  0  0  0
M  END
>  <CHROM.1>
-140.15114133,-162.97704195,50.74022815,59.89714040,-61.92500843,-60.49480302
-117.57638857,46.41118092,20.65766144,139.46188687,114.52293890,-56.41265215
66.33882071,171.49280272,-102.27942190,67.63427245,-65.32957314,58.44046102
-67.82632976,-58.54469541,-158.27919845,58.09712348,-1.39015113,3.13686535
4.44999706,-0.42483558,1.13941039,2.76786724

>  <Name>
lig.pdb

>  <RI>
3.99633e+07

>  <Rbt.Current_Directory>
/home/itssahil/PROJECTS/Mol_Feturizer/New_Systems/rnas/2mxs

>  <Rbt.Executable>
rbdock ($Id: //depot/dev/client3/rdock/2013.1/src/exe/rbdock.cxx#4 $)

>  <Rbt.Library>
libRbt.so (2013.1, Build901 2013/11/27)

>  <Rbt.Parameter_File>
/export/apps/rDock/src/rDock_2013.1_src/data/scripts/dock_solv.prm

>  <Rbt.Receptor>
prm/pocket_docking_5.prm

>  <SCORE>
-27.1373

>  <SCORE.INTER>
-28.0334

>  <SCORE.INTER.CONST>
1

>  <SCORE.INTER.POLAR>
-4.59336

>  <SCORE.INTER.ROT>
9

>  <SCORE.INTER.SOLV>
14.6488

>  <SCORE.INTER.VDW>
-17.8607

>  <SCORE.INTER.norm>
-0.667463

>  <SCORE.INTRA>
0.89619

>  <SCORE.INTRA.DIHEDRAL>
6.82263

>  <SCORE.INTRA.DIHEDRAL.0>
30.1357

>  <SCORE.INTRA.POLAR>
-1.06142

>  <SCORE.INTRA.POLAR.0>
-0.631696

>  <SCORE.INTRA.REPUL>
0

>  <SCORE.INTRA.REPUL.0>
0

>  <SCORE.INTRA.SOLV>
0.685263

>  <SCORE.INTRA.SOLV.lig_0>
-55.904

>  <SCORE.INTRA.VDW>
0.75107

>  <SCORE.INTRA.VDW.0>
-8.21197

>  <SCORE.INTRA.norm>
0.0213379

>  <SCORE.RESTR>
0

>  <SCORE.RESTR.CAVITY>
0

>  <SCORE.RESTR.norm>
0

>  <SCORE.SYSTEM>
0

>  <SCORE.SYSTEM.CONST>
0

>  <SCORE.SYSTEM.DIHEDRAL>
0

>  <SCORE.SYSTEM.SOLV>
0

>  <SCORE.SYSTEM.norm>
0

>  <SCORE.heavy>
42

>  <SCORE.norm>
-0.646125

>  <RMSD>
8.645

$$$$
lig.pdb
 OpenBabel11021811453D
libRbt.so/2013.1/901 2013/11/27
 42 45  0  0  0  0  0  0  0  0999 V2000
    0.7571    3.9262    6.2911 C   0  0  2  0  0  0  0  0  0  0  0  0
   -0.6029    3.7455    6.6905 O   0  0  0  0  0  0  0  0  0  0  0  0
    1.7093    3.1821    7.2394 C   0  0  2  0  0  0  0  0  0  0  0  0
    1.3465    1.7565    7.3422 N   0  0  0  0  0  0  0  0  0  0  0  0
    1.7365    3.8447    8.6228 C   0  0  1  0  0  0  0  0  0  0  0  0
    2.7322    3.2304    9.4183 O   0  0  0  0  0  0  0  0  0  0  0  0
    2.0451    5.3436    8.4890 C   0  0  2  0  0  0  0  0  0  0  0  0
    1.9098    5.9644    9.7530 O   0  0  0  0  0  0  0  0  0  0  0  0
    1.1093    6.0248    7.4698 C   0  0  2  0  0  0  0  0  0  0  0  0
    1.0862    5.3119    6.2336 O   0  0  0  0  0  0  0  0  0  0  0  0
    1.6206    7.4587    7.2341 C   0  0  0  0  0  0  0  0  0  0  0  0
    1.3333    8.3343    8.3571 O   0  0  0  0  0  0  0  0  0  0  0  0
   -4.2277    4.6436    4.5494 C   0  0  2  0  0  0  0  0  0  0  0  0
   -5.0775    5.5221    3.7208 N   0  0  0  0  0  0  0  0  0  0  0  0
   -3.8983    5.3237    5.8806 C   0  0  0  0  0  0  0  0  0  0  0  0
   -2.9086    4.4856    6.6812 C   0  0  2  0  0  0  0  0  0  0  0  0
   -2.6747    5.0959    7.9959 N   0  0  0  0  0  0  0  0  0  0  0  0
   -1.6034    4.3552    5.8620 C   0  0  2  0  0  0  0  0  0  0  0  0
   -1.8925    3.5502    4.6357 C   0  0  2  0  0  0  0  0  0  0  0  0
   -0.6777    3.4077    3.9226 O   0  0  0  0  0  0  0  0  0  0  0  0
   -2.9407    4.2568    3.7969 C   0  0  1  0  0  0  0  0  0  0  0  0
   -3.3148    3.4969    2.6631 O   0  0  0  0  0  0  0  0  0  0  0  0
   -0.0511    2.1294    3.9291 C   0  0  1  0  0  0  0  0  0  0  0  0
   -1.1203    1.0830    3.6077 C   0  0  2  0  0  0  0  0  0  0  0  0
   -0.8598   -0.0950    4.3475 O   0  0  0  0  0  0  0  0  0  0  0  0
   -0.9481    0.8881    2.0953 C   0  0  2  0  0  0  0  0  0  0  0  0
   -1.4786   -0.3546    1.6336 O   0  0  0  0  0  0  0  0  0  0  0  0
    0.5756    1.0200    1.9821 C   0  0  2  0  0  0  0  0  0  0  0  0
    0.9123    2.0637    2.8852 O   0  0  0  0  0  0  0  0  0  0  0  0
    1.0765    1.3923    0.5818 C   0  0  0  0  0  0  0  0  0  0  0  0
    0.9349    0.3186   -0.3238 O   0  0  0  0  0  0  0  0  0  0  0  0
   -1.5267   -0.4898    0.2146 C   0  0  2  0  0  0  0  0  0  0  0  0
   -2.5953    0.4206   -0.4095 C   0  0  2  0  0  0  0  0  0  0  0  0
   -2.3887    1.8233   -0.0125 N   0  0  0  0  0  0  0  0  0  0  0  0
   -4.0101   -0.0616   -0.0551 C   0  0  1  0  0  0  0  0  0  0  0  0
   -4.9477    0.7591   -0.7245 O   0  0  0  0  0  0  0  0  0  0  0  0
   -4.1566   -1.5211   -0.5181 C   0  0  2  0  0  0  0  0  0  0  0  0
   -5.4327   -2.0299   -0.1757 O   0  0  0  0  0  0  0  0  0  0  0  0
   -3.0448   -2.4058    0.0826 C   0  0  1  0  0  0  0  0  0  0  0  0
   -1.7492   -1.8495   -0.1524 O   0  0  0  0  0  0  0  0  0  0  0  0
   -3.2659   -2.7383    1.5656 C   0  0  0  0  0  0  0  0  0  0  0  0
   -2.5565   -3.9691    1.9507 N   0  0  0  0  0  0  0  0  0  0  0  0
  1  3  1  0  0  0  0
  1  2  1  1  0  0  0
  3  4  1  1  0  0  0
  5  6  1  1  0  0  0
  5  3  1  0  0  0  0
  7  9  1  0  0  0  0
  7  5  1  0  0  0  0
  7  8  1  1  0  0  0
  9 10  1  0  0  0  0
  9 11  1  6  0  0  0
 10  1  1  0  0  0  0
 11 12  1  0  0  0  0
 13 14  1  6  0  0  0
 13 21  1  0  0  0  0
 15 13  1  0  0  0  0
 16 15  1  0  0  0  0
 16 18  1  0  0  0  0
 16 17  1  1  0  0  0
 18  2  1  1  0  0  0
 18 19  1  0  0  0  0
 19 21  1  0  0  0  0
 19 20  1  6  0  0  0
 21 22  1  6  0  0  0
 23 20  1  6  0  0  0
 23 29  1  0  0  0  0
 23 24  1  0  0  0  0
 24 26  1  0  0  0  0
 24 25  1  1  0  0  0
 26 27  1  1  0  0  0
 28 26  1  0  0  0  0
 28 30  1  6  0  0  0
 29 28  1  0  0  0  0
 30 31  1  0  0  0  0
 32 27  1  1  0  0  0
 32 40  1  0  0  0  0
 32 33  1  0  0  0  0
 33 35  1  0  0  0  0
 33 34  1  1  0  0  0
 35 37  1  0  0  0  0
 35 36  1  6  0  0  0
 37 38  1  1  0  0  0
 39 37  1  0  0  0  0
 39 41  1  1  0  0  0
 40 39  1  0  0  0  0
 42 41  1  0  0  0  0
M  END
>  <CHROM.1>
-160.33951089,-178.06932609,60.66674257,-75.82898558,63.94597860,-178.89731643
-74.05266140,-46.67461627,-170.36225535,107.53515640,47.68783902,173.65624531
174.47819235,170.83336136,-70.57043442,-71.41765587,-61.19336585,156.36754145
-64.02518335,176.92917030,156.56023684,157.08724920,-1.16908544,2.33874512
3.94711941,-1.17306138,0.47020778,-2.45360374

>  <Name>
lig.pdb

>  <RI>
0

>  <Rbt.Current_Directory>
/home/itssahil/PROJECTS/Mol_Feturizer/New_Systems/rnas/2mxs

>  <Rbt.Executable>
rbdock ($Id: //depot/dev/client3/rdock/2013.1/src/exe/rbdock.cxx#4 $)

>  <Rbt.Library>
libRbt.so (2013.1, Build901 2013/11/27)

>  <Rbt.Parameter_File>
/export/apps/rDock/src/rDock_2013.1_src/data/scripts/dock_solv.prm

>  <Rbt.Receptor>
prm/pocket_docking_6.prm

>  <SCORE>
-23.3273

>  <SCORE.INTER>
-22.9379

>  <SCORE.INTER.CONST>
1

>  <SCORE.INTER.POLAR>
-3.27605

>  <SCORE.INTER.ROT>
9

>  <SCORE.INTER.SOLV>
15.4735

>  <SCORE.INTER.VDW>
-19.1296

>  <SCORE.INTER.norm>
-0.546141

>  <SCORE.INTRA>
-0.396773

>  <SCORE.INTRA.DIHEDRAL>
-11.8448

>  <SCORE.INTRA.DIHEDRAL.0>
30.1357

>  <SCORE.INTRA.POLAR>
0.320676

>  <SCORE.INTRA.POLAR.0>
-0.631696

>  <SCORE.INTRA.REPUL>
0

>  <SCORE.INTRA.REPUL.0>
0

>  <SCORE.INTRA.SOLV>
0.202156

>  <SCORE.INTRA.SOLV.lig_0>
-55.904

>  <SCORE.INTRA.VDW>
4.33423

>  <SCORE.INTRA.VDW.0>
-8.21197

>  <SCORE.INTRA.norm>
-0.00944698

>  <SCORE.RESTR>
0.00737281

>  <SCORE.RESTR.CAVITY>
0.00737281

>  <SCORE.RESTR.norm>
0.000175543

>  <SCORE.SYSTEM>
0

>  <SCORE.SYSTEM.CONST>
0

>  <SCORE.SYSTEM.DIHEDRAL>
0

>  <SCORE.SYSTEM.SOLV>
0

>  <SCORE.SYSTEM.norm>
0

>  <SCORE.heavy>
42

>  <SCORE.norm>
-0.555412

>  <RMSD>
8.657

$$$$
lig.pdb
 OpenBabel11021811453D
libRbt.so/2013.1/901 2013/11/27
 42 45  0  0  0  0  0  0  0  0999 V2000
   -1.6373    5.8887    6.7817 C   0  0  2  0  0  0  0  0  0  0  0  0
   -0.3147    5.3888    6.5759 O   0  0  0  0  0  0  0  0  0  0  0  0
   -1.7813    7.3069    6.2093 C   0  0  2  0  0  0  0  0  0  0  0  0
   -1.3886    7.3465    4.7886 N   0  0  0  0  0  0  0  0  0  0  0  0
   -0.9720    8.3171    7.0328 C   0  0  1  0  0  0  0  0  0  0  0  0
   -1.2483    9.6263    6.5732 O   0  0  0  0  0  0  0  0  0  0  0  0
   -1.3434    8.2107    8.5196 C   0  0  2  0  0  0  0  0  0  0  0  0
   -0.4783    9.0335    9.2786 O   0  0  0  0  0  0  0  0  0  0  0  0
   -1.2539    6.7554    9.0221 C   0  0  2  0  0  0  0  0  0  0  0  0
   -1.9744    5.8689    8.1665 O   0  0  0  0  0  0  0  0  0  0  0  0
   -1.8457    6.7023   10.4435 C   0  0  0  0  0  0  0  0  0  0  0  0
   -1.0478    7.4531   11.3974 O   0  0  0  0  0  0  0  0  0  0  0  0
    1.4257    1.5891    7.6075 C   0  0  2  0  0  0  0  0  0  0  0  0
    1.6088    0.4316    8.5059 N   0  0  0  0  0  0  0  0  0  0  0  0
    1.8554    2.8800    8.3089 C   0  0  0  0  0  0  0  0  0  0  0  0
    1.5386    4.0930    7.4422 C   0  0  2  0  0  0  0  0  0  0  0  0
    2.0425    5.3164    8.0786 N   0  0  0  0  0  0  0  0  0  0  0  0
    0.0099    4.1453    7.2145 C   0  0  2  0  0  0  0  0  0  0  0  0
   -0.3866    2.9631    6.3894 C   0  0  2  0  0  0  0  0  0  0  0  0
   -1.7805    3.0526    6.1579 O   0  0  0  0  0  0  0  0  0  0  0  0
   -0.0345    1.6850    7.1269 C   0  0  1  0  0  0  0  0  0  0  0  0
   -0.3118    0.5320    6.3545 O   0  0  0  0  0  0  0  0  0  0  0  0
   -2.2156    3.3318    4.8314 C   0  0  1  0  0  0  0  0  0  0  0  0
   -1.4510    2.4052    3.8837 C   0  0  2  0  0  0  0  0  0  0  0  0
   -1.1780    3.0919    2.6768 O   0  0  0  0  0  0  0  0  0  0  0  0
   -2.4317    1.2394    3.6983 C   0  0  2  0  0  0  0  0  0  0  0  0
   -2.1782    0.4864    2.5120 O   0  0  0  0  0  0  0  0  0  0  0  0
   -3.7599    2.0062    3.7033 C   0  0  2  0  0  0  0  0  0  0  0  0
   -3.5932    3.0037    4.7011 O   0  0  0  0  0  0  0  0  0  0  0  0
   -4.9831    1.1510    4.0538 C   0  0  0  0  0  0  0  0  0  0  0  0
   -6.1802    1.8938    3.9633 O   0  0  0  0  0  0  0  0  0  0  0  0
   -2.5407   -0.8906    2.5931 C   0  0  2  0  0  0  0  0  0  0  0  0
   -1.5977   -1.7785    1.7671 C   0  0  2  0  0  0  0  0  0  0  0  0
   -0.1954   -1.5701    2.1650 N   0  0  0  0  0  0  0  0  0  0  0  0
   -1.7953   -1.5469    0.2614 C   0  0  1  0  0  0  0  0  0  0  0  0
   -0.9670   -2.4486   -0.4467 O   0  0  0  0  0  0  0  0  0  0  0  0
   -3.2729   -1.8036   -0.0802 C   0  0  2  0  0  0  0  0  0  0  0  0
   -3.5193   -1.5614   -1.4532 O   0  0  0  0  0  0  0  0  0  0  0  0
   -4.2013   -0.9367    0.7950 C   0  0  1  0  0  0  0  0  0  0  0  0
   -3.8935   -1.0781    2.1838 O   0  0  0  0  0  0  0  0  0  0  0  0
   -4.2433    0.5368    0.3639 C   0  0  0  0  0  0  0  0  0  0  0  0
   -5.1038    0.7262   -0.8150 N   0  0  0  0  0  0  0  0  0  0  0  0
  1  3  1  0  0  0  0
  1  2  1  1  0  0  0
  3  4  1  6  0  0  0
  5  6  1  6  0  0  0
  5  3  1  0  0  0  0
  7  9  1  0  0  0  0
  7  5  1  0  0  0  0
  7  8  1  1  0  0  0
  9 10  1  0  0  0  0
  9 11  1  1  0  0  0
 10  1  1  0  0  0  0
 11 12  1  0  0  0  0
 13 14  1  1  0  0  0
 13 21  1  0  0  0  0
 15 13  1  0  0  0  0
 16 15  1  0  0  0  0
 16 18  1  0  0  0  0
 16 17  1  1  0  0  0
 18  2  1  6  0  0  0
 18 19  1  0  0  0  0
 19 21  1  0  0  0  0
 19 20  1  1  0  0  0
 21 22  1  6  0  0  0
 23 20  1  1  0  0  0
 23 29  1  0  0  0  0
 23 24  1  0  0  0  0
 24 26  1  0  0  0  0
 24 25  1  6  0  0  0
 26 27  1  6  0  0  0
 28 26  1  0  0  0  0
 28 30  1  1  0  0  0
 29 28  1  0  0  0  0
 30 31  1  0  0  0  0
 32 27  1  6  0  0  0
 32 40  1  0  0  0  0
 32 33  1  0  0  0  0
 33 35  1  0  0  0  0
 33 34  1  1  0  0  0
 35 37  1  0  0  0  0
 35 36  1  6  0  0  0
 37 38  1  6  0  0  0
 39 37  1  0  0  0  0
 39 41  1  6  0  0  0
 40 39  1  0  0  0  0
 42 41  1  0  0  0  0
M  END
>  <CHROM.1>
-154.20309558,172.10705850,-141.97829167,-160.58702509,-59.93824290,49.77424257
-65.92432427,-155.89494137,177.94038442,110.80983229,47.31512517,61.06976279
-175.28284808,150.23696566,-146.74474760,-176.46795483,-63.19271369,-91.64269483
-66.91201776,-48.08688920,78.20946035,-94.21128623,-1.62791894,2.89324311
4.96727112,1.26471366,-0.74588093,0.56948098

>  <Name>
lig.pdb

>  <RI>
4.11275e+07

>  <Rbt.Current_Directory>
/home/itssahil/PROJECTS/Mol_Feturizer/New_Systems/rnas/2mxs

>  <Rbt.Executable>
rbdock ($Id: //depot/dev/client3/rdock/2013.1/src/exe/rbdock.cxx#4 $)

>  <Rbt.Library>
libRbt.so (2013.1, Build901 2013/11/27)

>  <Rbt.Parameter_File>
/export/apps/rDock/src/rDock_2013.1_src/data/scripts/dock_solv.prm

>  <Rbt.Receptor>
prm/pocket_docking_8.prm

>  <SCORE>
-22.4779

>  <SCORE.INTER>
-26.5566

>  <SCORE.INTER.CONST>
1

>  <SCORE.INTER.POLAR>
-4.31669

>  <SCORE.INTER.ROT>
9

>  <SCORE.INTER.SOLV>
16.2385

>  <SCORE.INTER.VDW>
-18.3282

>  <SCORE.INTER.norm>
-0.632299

>  <SCORE.INTRA>
4.07863

>  <SCORE.INTRA.DIHEDRAL>
1.32256

>  <SCORE.INTRA.DIHEDRAL.0>
30.1357

>  <SCORE.INTRA.POLAR>
0.219024

>  <SCORE.INTRA.POLAR.0>
-0.631696

>  <SCORE.INTRA.REPUL>
0

>  <SCORE.INTRA.REPUL.0>
0

>  <SCORE.INTRA.SOLV>
-0.906657

>  <SCORE.INTRA.SOLV.lig_0>
-55.904

>  <SCORE.INTRA.VDW>
3.126

>  <SCORE.INTRA.VDW.0>
-8.21197

>  <SCORE.INTRA.norm>
0.0971102

>  <SCORE.RESTR>
0

>  <SCORE.RESTR.CAVITY>
0

>  <SCORE.RESTR.norm>
0

>  <SCORE.SYSTEM>
0

>  <SCORE.SYSTEM.CONST>
0

>  <SCORE.SYSTEM.DIHEDRAL>
0

>  <SCORE.SYSTEM.SOLV>
0

>  <SCORE.SYSTEM.norm>
0

>  <SCORE.heavy>
42

>  <SCORE.norm>
-0.535189

>  <RMSD>
8.664

$$$$
lig.pdb
 OpenBabel11021811453D
libRbt.so/2013.1/901 2013/11/27
 42 45  0  0  0  0  0  0  0  0999 V2000
   -4.0438    3.9746    3.9941 C   0  0  2  0  0  0  0  0  0  0  0  0
   -3.4801    5.2825    3.8798 O   0  0  0  0  0  0  0  0  0  0  0  0
   -5.2461    3.9786    4.9501 C   0  0  2  0  0  0  0  0  0  0  0  0
   -6.2472    4.9794    4.5371 N   0  0  0  0  0  0  0  0  0  0  0  0
   -4.7967    4.2140    6.3979 C   0  0  1  0  0  0  0  0  0  0  0  0
   -5.9043    4.0595    7.2645 O   0  0  0  0  0  0  0  0  0  0  0  0
   -3.7028    3.2076    6.7858 C   0  0  2  0  0  0  0  0  0  0  0  0
   -3.1920    3.5399    8.0626 O   0  0  0  0  0  0  0  0  0  0  0  0
   -2.5574    3.1915    5.7533 C   0  0  2  0  0  0  0  0  0  0  0  0
   -3.0607    3.0374    4.4267 O   0  0  0  0  0  0  0  0  0  0  0  0
   -1.6216    2.0162    6.0945 C   0  0  0  0  0  0  0  0  0  0  0  0
   -2.2390    0.7288    5.8267 O   0  0  0  0  0  0  0  0  0  0  0  0
   -0.5476    6.5852    1.0103 C   0  0  2  0  0  0  0  0  0  0  0  0
    0.7860    6.5250    0.3791 N   0  0  0  0  0  0  0  0  0  0  0  0
   -0.4178    6.9299    2.4961 C   0  0  0  0  0  0  0  0  0  0  0  0
   -1.7752    6.8557    3.1850 C   0  0  2  0  0  0  0  0  0  0  0  0
   -1.6573    7.2826    4.5849 N   0  0  0  0  0  0  0  0  0  0  0  0
   -2.3070    5.4087    3.0630 C   0  0  2  0  0  0  0  0  0  0  0  0
   -2.5862    5.1269    1.6214 C   0  0  2  0  0  0  0  0  0  0  0  0
   -3.1104    3.8145    1.5370 O   0  0  0  0  0  0  0  0  0  0  0  0
   -1.3058    5.2583    0.8186 C   0  0  1  0  0  0  0  0  0  0  0  0
   -1.5278    5.0840   -0.5683 O   0  0  0  0  0  0  0  0  0  0  0  0
   -2.2307    2.7300    1.8141 C   0  0  1  0  0  0  0  0  0  0  0  0
   -3.0724    1.4549    1.8983 C   0  0  2  0  0  0  0  0  0  0  0  0
   -2.5330    0.6026    2.8910 O   0  0  0  0  0  0  0  0  0  0  0  0
   -2.9421    0.8786    0.4820 C   0  0  2  0  0  0  0  0  0  0  0  0
   -3.2240   -0.5201    0.4257 O   0  0  0  0  0  0  0  0  0  0  0  0
   -1.4876    1.2556    0.1745 C   0  0  2  0  0  0  0  0  0  0  0  0
   -1.3304    2.5548    0.7273 O   0  0  0  0  0  0  0  0  0  0  0  0
   -1.1493    1.3061   -1.3200 C   0  0  0  0  0  0  0  0  0  0  0  0
   -1.2036    0.0243   -1.9092 O   0  0  0  0  0  0  0  0  0  0  0  0
   -4.2986   -0.8753   -0.4421 C   0  0  2  0  0  0  0  0  0  0  0  0
   -5.6461   -0.8920    0.2956 C   0  0  2  0  0  0  0  0  0  0  0  0
   -5.8986    0.3977    0.9596 N   0  0  0  0  0  0  0  0  0  0  0  0
   -5.7191   -2.0603    1.2903 C   0  0  1  0  0  0  0  0  0  0  0  0
   -7.0075   -2.0767    1.8738 O   0  0  0  0  0  0  0  0  0  0  0  0
   -5.4679   -3.3692    0.5224 C   0  0  2  0  0  0  0  0  0  0  0  0
   -5.4817   -4.4776    1.4030 O   0  0  0  0  0  0  0  0  0  0  0  0
   -4.1332   -3.3101   -0.2488 C   0  0  1  0  0  0  0  0  0  0  0  0
   -4.0489   -2.1360   -1.0597 O   0  0  0  0  0  0  0  0  0  0  0  0
   -2.9011   -3.4739    0.6534 C   0  0  0  0  0  0  0  0  0  0  0  0
   -3.0557   -2.7280    1.9127 N   0  0  0  0  0  0  0  0  0  0  0  0
  1  3  1  0  0  0  0
  1  2  1  1  0  0  0
  3  4  1  6  0  0  0
  5  6  1  1  0  0  0
  5  3  1  0  0  0  0
  7  9  1  0  0  0  0
  7  5  1  0  0  0  0
  7  8  1  1  0  0  0
  9 10  1  0  0  0  0
  9 11  1  1  0  0  0
 10  1  1  0  0  0  0
 11 12  1  0  0  0  0
 13 14  1  1  0  0  0
 13 21  1  0  0  0  0
 15 13  1  0  0  0  0
 16 15  1  0  0  0  0
 16 18  1  0  0  0  0
 16 17  1  1  0  0  0
 18  2  1  1  0  0  0
 18 19  1  0  0  0  0
 19 21  1  0  0  0  0
 19 20  1  1  0  0  0
 21 22  1  6  0  0  0
 23 20  1  6  0  0  0
 23 29  1  0  0  0  0
 23 24  1  0  0  0  0
 24 26  1  0  0  0  0
 24 25  1  1  0  0  0
 26 27  1  1  0  0  0
 28 26  1  0  0  0  0
 28 30  1  6  0  0  0
 29 28  1  0  0  0  0
 30 31  1  0  0  0  0
 32 27  1  1  0  0  0
 32 40  1  0  0  0  0
 32 33  1  0  0  0  0
 33 35  1  0  0  0  0
 33 34  1  1  0  0  0
 35 37  1  0  0  0  0
 35 36  1  6  0  0  0
 37 38  1  1  0  0  0
 39 37  1  0  0  0  0
 39 41  1  1  0  0  0
 40 39  1  0  0  0  0
 42 41  1  0  0  0  0
M  END
>  <CHROM.1>
-174.30262703,177.16010380,-63.03140194,-174.53017457,-61.60154997,-65.55078456
70.06434372,82.49669588,47.86046575,-69.18495842,170.30174654,-49.41851271
61.76280516,120.83672094,-90.68348338,-67.20404579,64.83087548,168.61694736
53.38989801,-174.41133831,-41.16434707,-176.79481103,-3.18885877,2.04018875
2.36879388,1.17517729,0.96442353,0.76985503

>  <Name>
lig.pdb

>  <RI>
0

>  <Rbt.Current_Directory>
/home/itssahil/PROJECTS/Mol_Feturizer/New_Systems/rnas/2mxs

>  <Rbt.Executable>
rbdock ($Id: //depot/dev/client3/rdock/2013.1/src/exe/rbdock.cxx#4 $)

>  <Rbt.Library>
libRbt.so (2013.1, Build901 2013/11/27)

>  <Rbt.Parameter_File>
/export/apps/rDock/src/rDock_2013.1_src/data/scripts/dock_solv.prm

>  <Rbt.Receptor>
prm/pocket_docking_6.prm

>  <SCORE>
-32.7346

>  <SCORE.INTER>
-25.9974

>  <SCORE.INTER.CONST>
1

>  <SCORE.INTER.POLAR>
-3.67383

>  <SCORE.INTER.ROT>
9

>  <SCORE.INTER.SOLV>
15.1861

>  <SCORE.INTER.VDW>
-19.7476

>  <SCORE.INTER.norm>
-0.618987

>  <SCORE.INTRA>
-6.73715

>  <SCORE.INTRA.DIHEDRAL>
-12.7957

>  <SCORE.INTRA.DIHEDRAL.0>
30.1357

>  <SCORE.INTRA.POLAR>
-1.82768

>  <SCORE.INTRA.POLAR.0>
-0.631696

>  <SCORE.INTRA.REPUL>
0

>  <SCORE.INTRA.REPUL.0>
0

>  <SCORE.INTRA.SOLV>
2.82474

>  <SCORE.INTRA.SOLV.lig_0>
-55.904

>  <SCORE.INTRA.VDW>
4.46244

>  <SCORE.INTRA.VDW.0>
-8.21197

>  <SCORE.INTRA.norm>
-0.160408

>  <SCORE.RESTR>
0

>  <SCORE.RESTR.CAVITY>
0

>  <SCORE.RESTR.norm>
0

>  <SCORE.SYSTEM>
0

>  <SCORE.SYSTEM.CONST>
0

>  <SCORE.SYSTEM.DIHEDRAL>
0

>  <SCORE.SYSTEM.SOLV>
0

>  <SCORE.SYSTEM.norm>
0

>  <SCORE.heavy>
42

>  <SCORE.norm>
-0.779395

>  <RMSD>
8.676

$$$$
lig.pdb
 OpenBabel11021811453D
libRbt.so/2013.1/901 2013/11/27
 42 45  0  0  0  0  0  0  0  0999 V2000
   -1.8263    3.3077    6.0515 C   0  0  2  0  0  0  0  0  0  0  0  0
   -1.6990    4.6077    5.4725 O   0  0  0  0  0  0  0  0  0  0  0  0
   -2.3487    3.3995    7.4932 C   0  0  2  0  0  0  0  0  0  0  0  0
   -3.6118    4.1581    7.5509 N   0  0  0  0  0  0  0  0  0  0  0  0
   -1.2939    4.0144    8.4221 C   0  0  1  0  0  0  0  0  0  0  0  0
   -1.7477    3.9430    9.7602 O   0  0  0  0  0  0  0  0  0  0  0  0
    0.0353    3.2551    8.2942 C   0  0  2  0  0  0  0  0  0  0  0  0
    1.0338    3.9306    9.0346 O   0  0  0  0  0  0  0  0  0  0  0  0
    0.4742    3.1273    6.8213 C   0  0  2  0  0  0  0  0  0  0  0  0
   -0.5822    2.6132    6.0109 O   0  0  0  0  0  0  0  0  0  0  0  0
    1.6847    2.1762    6.7631 C   0  0  0  0  0  0  0  0  0  0  0  0
    1.3633    0.8494    7.2596 O   0  0  0  0  0  0  0  0  0  0  0  0
   -1.7354    5.7598    1.3249 C   0  0  2  0  0  0  0  0  0  0  0  0
   -1.3108    5.6093   -0.0812 N   0  0  0  0  0  0  0  0  0  0  0  0
   -0.5246    6.0376    2.2194 C   0  0  0  0  0  0  0  0  0  0  0  0
   -0.9341    6.0542    3.6874 C   0  0  2  0  0  0  0  0  0  0  0  0
    0.2124    6.4180    4.5294 N   0  0  0  0  0  0  0  0  0  0  0  0
   -1.5031    4.6632    4.0520 C   0  0  2  0  0  0  0  0  0  0  0  0
   -2.7762    4.4592    3.2950 C   0  0  2  0  0  0  0  0  0  0  0  0
   -3.3011    3.2002    3.6744 O   0  0  0  0  0  0  0  0  0  0  0  0
   -2.4975    4.5102    1.8047 C   0  0  1  0  0  0  0  0  0  0  0  0
   -3.6829    4.4064    1.0385 O   0  0  0  0  0  0  0  0  0  0  0  0
   -4.5026    2.7662    3.0460 C   0  0  1  0  0  0  0  0  0  0  0  0
   -4.1207    1.7935    1.9282 C   0  0  2  0  0  0  0  0  0  0  0  0
   -5.0048    1.9647    0.8365 O   0  0  0  0  0  0  0  0  0  0  0  0
   -4.2738    0.4280    2.6116 C   0  0  2  0  0  0  0  0  0  0  0  0
   -4.4436   -0.6409    1.6802 O   0  0  0  0  0  0  0  0  0  0  0  0
   -5.4929    0.7097    3.4983 C   0  0  2  0  0  0  0  0  0  0  0  0
   -5.2901    2.0324    3.9754 O   0  0  0  0  0  0  0  0  0  0  0  0
   -5.6357   -0.2355    4.6970 C   0  0  0  0  0  0  0  0  0  0  0  0
   -6.8342    0.0000    5.4051 O   0  0  0  0  0  0  0  0  0  0  0  0
   -3.3171   -0.8811    0.8391 C   0  0  2  0  0  0  0  0  0  0  0  0
   -3.7262   -1.0295   -0.6342 C   0  0  2  0  0  0  0  0  0  0  0  0
   -4.4925    0.1430   -1.0882 N   0  0  0  0  0  0  0  0  0  0  0  0
   -4.5045   -2.3336   -0.8648 C   0  0  1  0  0  0  0  0  0  0  0  0
   -4.7781   -2.4577   -2.2470 O   0  0  0  0  0  0  0  0  0  0  0  0
   -3.6349   -3.5095   -0.3884 C   0  0  2  0  0  0  0  0  0  0  0  0
   -4.3249   -4.7366   -0.5394 O   0  0  0  0  0  0  0  0  0  0  0  0
   -3.1966   -3.3145    1.0777 C   0  0  1  0  0  0  0  0  0  0  0  0
   -2.5990   -2.0317    1.2789 O   0  0  0  0  0  0  0  0  0  0  0  0
   -4.3182   -3.5900    2.0902 C   0  0  0  0  0  0  0  0  0  0  0  0
   -5.5924   -2.9969    1.6534 N   0  0  0  0  0  0  0  0  0  0  0  0
  1  3  1  0  0  0  0
  1  2  1  1  0  0  0
  3  4  1  6  0  0  0
  5  6  1  1  0  0  0
  5  3  1  0  0  0  0
  7  9  1  0  0  0  0
  7  5  1  0  0  0  0
  7  8  1  1  0  0  0
  9 10  1  0  0  0  0
  9 11  1  1  0  0  0
 10  1  1  0  0  0  0
 11 12  1  0  0  0  0
 13 14  1  6  0  0  0
 13 21  1  0  0  0  0
 15 13  1  0  0  0  0
 16 15  1  0  0  0  0
 16 18  1  0  0  0  0
 16 17  1  1  0  0  0
 18  2  1  1  0  0  0
 18 19  1  0  0  0  0
 19 21  1  0  0  0  0
 19 20  1  6  0  0  0
 21 22  1  6  0  0  0
 23 20  1  1  0  0  0
 23 29  1  0  0  0  0
 23 24  1  0  0  0  0
 24 26  1  0  0  0  0
 24 25  1  6  0  0  0
 26 27  1  6  0  0  0
 28 26  1  0  0  0  0
 28 30  1  1  0  0  0
 29 28  1  0  0  0  0
 30 31  1  0  0  0  0
 32 27  1  1  0  0  0
 32 40  1  0  0  0  0
 32 33  1  0  0  0  0
 33 35  1  0  0  0  0
 33 34  1  1  0  0  0
 35 37  1  0  0  0  0
 35 36  1  6  0  0  0
 37 38  1  1  0  0  0
 39 37  1  0  0  0  0
 39 41  1  1  0  0  0
 40 39  1  0  0  0  0
 42 41  1  0  0  0  0
M  END
>  <CHROM.1>
-161.58973507,-166.88289460,51.51090567,-63.56707524,67.88523624,56.67908045
60.69542310,44.97310834,-165.68494182,-178.11331602,99.19995580,67.04803956
54.82364335,65.08544796,-132.92199676,-174.88999673,-60.06804009,135.69213700
-76.67063585,49.13797640,-43.37527917,-173.62027664,-2.80298965,1.71992498
3.41195052,0.12087721,1.16783691,2.24148563

>  <Name>
lig.pdb

>  <RI>
0

>  <Rbt.Current_Directory>
/home/itssahil/PROJECTS/Mol_Feturizer/New_Systems/rnas/2mxs

>  <Rbt.Executable>
rbdock ($Id: //depot/dev/client3/rdock/2013.1/src/exe/rbdock.cxx#4 $)

>  <Rbt.Library>
libRbt.so (2013.1, Build901 2013/11/27)

>  <Rbt.Parameter_File>
/export/apps/rDock/src/rDock_2013.1_src/data/scripts/dock_solv.prm

>  <Rbt.Receptor>
prm/pocket_docking_7.prm

>  <SCORE>
-37.9422

>  <SCORE.INTER>
-33.3541

>  <SCORE.INTER.CONST>
1

>  <SCORE.INTER.POLAR>
-5.41382

>  <SCORE.INTER.ROT>
9

>  <SCORE.INTER.SOLV>
15.8838

>  <SCORE.INTER.VDW>
-19.0846

>  <SCORE.INTER.norm>
-0.794146

>  <SCORE.INTRA>
-4.89195

>  <SCORE.INTRA.DIHEDRAL>
-7.41045

>  <SCORE.INTRA.DIHEDRAL.0>
30.1357

>  <SCORE.INTRA.POLAR>
-2.00018

>  <SCORE.INTRA.POLAR.0>
-0.631696

>  <SCORE.INTRA.REPUL>
0

>  <SCORE.INTRA.REPUL.0>
0

>  <SCORE.INTRA.SOLV>
1.60138

>  <SCORE.INTRA.SOLV.lig_0>
-55.904

>  <SCORE.INTRA.VDW>
4.81318

>  <SCORE.INTRA.VDW.0>
-8.21197

>  <SCORE.INTRA.norm>
-0.116475

>  <SCORE.RESTR>
0.30384

>  <SCORE.RESTR.CAVITY>
0.30384

>  <SCORE.RESTR.norm>
0.0072343

>  <SCORE.SYSTEM>
0

>  <SCORE.SYSTEM.CONST>
0

>  <SCORE.SYSTEM.DIHEDRAL>
0

>  <SCORE.SYSTEM.SOLV>
0

>  <SCORE.SYSTEM.norm>
0

>  <SCORE.heavy>
42

>  <SCORE.norm>
-0.903387

>  <RMSD>
8.680

$$$$
lig.pdb
 OpenBabel11021811453D
libRbt.so/2013.1/901 2013/11/27
 42 45  0  0  0  0  0  0  0  0999 V2000
   -0.1994    6.3162    7.8192 C   0  0  2  0  0  0  0  0  0  0  0  0
   -1.0104    5.7605    6.7824 O   0  0  0  0  0  0  0  0  0  0  0  0
    1.1225    6.8541    7.2510 C   0  0  2  0  0  0  0  0  0  0  0  0
    0.8771    7.8180    6.1624 N   0  0  0  0  0  0  0  0  0  0  0  0
    2.0249    5.7072    6.7781 C   0  0  1  0  0  0  0  0  0  0  0  0
    3.2872    6.2259    6.4053 O   0  0  0  0  0  0  0  0  0  0  0  0
    2.2100    4.6773    7.9029 C   0  0  2  0  0  0  0  0  0  0  0  0
    2.9103    3.5555    7.4003 O   0  0  0  0  0  0  0  0  0  0  0  0
    0.8552    4.2284    8.4871 C   0  0  2  0  0  0  0  0  0  0  0  0
    0.0474    5.3512    8.8388 O   0  0  0  0  0  0  0  0  0  0  0  0
    1.1329    3.3745    9.7389 C   0  0  0  0  0  0  0  0  0  0  0  0
    2.0735    4.0155   10.6415 O   0  0  0  0  0  0  0  0  0  0  0  0
   -4.8704    5.7245    8.6877 C   0  0  2  0  0  0  0  0  0  0  0  0
   -6.3370    5.5533    8.6752 N   0  0  0  0  0  0  0  0  0  0  0  0
   -4.4586    6.8547    7.7411 C   0  0  0  0  0  0  0  0  0  0  0  0
   -2.9405    6.9447    7.6407 C   0  0  2  0  0  0  0  0  0  0  0  0
   -2.5545    8.0918    6.8095 N   0  0  0  0  0  0  0  0  0  0  0  0
   -2.4083    5.6097    7.0696 C   0  0  2  0  0  0  0  0  0  0  0  0
   -2.6689    4.5295    8.0699 C   0  0  2  0  0  0  0  0  0  0  0  0
   -2.1376    3.3260    7.5465 O   0  0  0  0  0  0  0  0  0  0  0  0
   -4.1613    4.4092    8.3138 C   0  0  1  0  0  0  0  0  0  0  0  0
   -4.4609    3.4566    9.3167 O   0  0  0  0  0  0  0  0  0  0  0  0
   -2.4373    2.1152    8.2327 C   0  0  1  0  0  0  0  0  0  0  0  0
   -3.4740    1.3528    7.4048 C   0  0  2  0  0  0  0  0  0  0  0  0
   -4.3682    0.6847    8.2747 O   0  0  0  0  0  0  0  0  0  0  0  0
   -2.6019    0.3883    6.5898 C   0  0  2  0  0  0  0  0  0  0  0  0
   -3.3294   -0.7409    6.1058 O   0  0  0  0  0  0  0  0  0  0  0  0
   -1.5230    0.0621    7.6299 C   0  0  2  0  0  0  0  0  0  0  0  0
   -1.2757    1.2967    8.2878 O   0  0  0  0  0  0  0  0  0  0  0  0
   -0.2085   -0.4580    7.0366 C   0  0  0  0  0  0  0  0  0  0  0  0
    0.6307   -1.0048    8.0314 O   0  0  0  0  0  0  0  0  0  0  0  0
   -4.3078   -0.4368    5.1136 C   0  0  2  0  0  0  0  0  0  0  0  0
   -5.4596   -1.4534    5.1176 C   0  0  2  0  0  0  0  0  0  0  0  0
   -6.0674   -1.5547    6.4548 N   0  0  0  0  0  0  0  0  0  0  0  0
   -4.9908   -2.8244    4.6076 C   0  0  1  0  0  0  0  0  0  0  0  0
   -6.1071   -3.6913    4.5518 O   0  0  0  0  0  0  0  0  0  0  0  0
   -4.3903   -2.6416    3.2034 C   0  0  2  0  0  0  0  0  0  0  0  0
   -3.9018   -3.8726    2.7029 O   0  0  0  0  0  0  0  0  0  0  0  0
   -3.2694   -1.5819    3.2152 C   0  0  1  0  0  0  0  0  0  0  0  0
   -3.7071   -0.3641    3.8225 O   0  0  0  0  0  0  0  0  0  0  0  0
   -1.9572   -2.0904    3.8304 C   0  0  0  0  0  0  0  0  0  0  0  0
   -1.2452   -2.9890    2.9074 N   0  0  0  0  0  0  0  0  0  0  0  0
  1  3  1  0  0  0  0
  1  2  1  6  0  0  0
  3  4  1  6  0  0  0
  5  6  1  1  0  0  0
  5  3  1  0  0  0  0
  7  9  1  0  0  0  0
  7  5  1  0  0  0  0
  7  8  1  6  0  0  0
  9 10  1  0  0  0  0
  9 11  1  1  0  0  0
 10  1  1  0  0  0  0
 11 12  1  0  0  0  0
 13 14  1  6  0  0  0
 13 21  1  0  0  0  0
 15 13  1  0  0  0  0
 16 15  1  0  0  0  0
 16 18  1  0  0  0  0
 16 17  1  6  0  0  0
 18  2  1  1  0  0  0
 18 19  1  0  0  0  0
 19 21  1  0  0  0  0
 19 20  1  6  0  0  0
 21 22  1  1  0  0  0
 23 20  1  6  0  0  0
 23 29  1  0  0  0  0
 23 24  1  0  0  0  0
 24 26  1  0  0  0  0
 24 25  1  1  0  0  0
 26 27  1  1  0  0  0
 28 26  1  0  0  0  0
 28 30  1  6  0  0  0
 29 28  1  0  0  0  0
 30 31  1  0  0  0  0
 32 27  1  1  0  0  0
 32 40  1  0  0  0  0
 32 33  1  0  0  0  0
 33 35  1  0  0  0  0
 33 34  1  1  0  0  0
 35 37  1  0  0  0  0
 35 36  1  6  0  0  0
 37 38  1  1  0  0  0
 39 37  1  0  0  0  0
 39 41  1  1  0  0  0
 40 39  1  0  0  0  0
 42 41  1  0  0  0  0
M  END
>  <CHROM.1>
49.41062825,-160.93293569,179.75330947,-153.73880777,66.13274138,174.50975204
48.86044780,58.29097972,-64.87873328,-170.96448193,105.62686187,-61.61630597
59.86421202,67.85643484,-152.65301550,-167.40393342,84.94465174,-172.37120181
65.12923102,64.20059414,75.28957122,-65.62193782,-2.02506507,2.31955836,6.83722967
1.14716676,0.01468962,0.39000098

>  <Name>
lig.pdb

>  <RI>
0

>  <Rbt.Current_Directory>
/home/itssahil/PROJECTS/Mol_Feturizer/New_Systems/rnas/2mxs

>  <Rbt.Executable>
rbdock ($Id: //depot/dev/client3/rdock/2013.1/src/exe/rbdock.cxx#4 $)

>  <Rbt.Library>
libRbt.so (2013.1, Build901 2013/11/27)

>  <Rbt.Parameter_File>
/export/apps/rDock/src/rDock_2013.1_src/data/scripts/dock_solv.prm

>  <Rbt.Receptor>
prm/pocket_docking_7.prm

>  <SCORE>
-30.0688

>  <SCORE.INTER>
-27.8642

>  <SCORE.INTER.CONST>
1

>  <SCORE.INTER.POLAR>
-5.29333

>  <SCORE.INTER.ROT>
9

>  <SCORE.INTER.SOLV>
19.8222

>  <SCORE.INTER.VDW>
-17.1391

>  <SCORE.INTER.norm>
-0.663433

>  <SCORE.INTRA>
-2.22711

>  <SCORE.INTRA.DIHEDRAL>
-9.08047

>  <SCORE.INTRA.DIHEDRAL.0>
30.1357

>  <SCORE.INTRA.POLAR>
-0.468769

>  <SCORE.INTRA.POLAR.0>
-0.631696

>  <SCORE.INTRA.REPUL>
0

>  <SCORE.INTRA.REPUL.0>
0

>  <SCORE.INTRA.SOLV>
0.918772

>  <SCORE.INTRA.SOLV.lig_0>
-55.904

>  <SCORE.INTRA.VDW>
3.44755

>  <SCORE.INTRA.VDW.0>
-8.21197

>  <SCORE.INTRA.norm>
-0.0530264

>  <SCORE.RESTR>
0.0224947

>  <SCORE.RESTR.CAVITY>
0.0224947

>  <SCORE.RESTR.norm>
0.000535589

>  <SCORE.SYSTEM>
0

>  <SCORE.SYSTEM.CONST>
0

>  <SCORE.SYSTEM.DIHEDRAL>
0

>  <SCORE.SYSTEM.SOLV>
0

>  <SCORE.SYSTEM.norm>
0

>  <SCORE.heavy>
42

>  <SCORE.norm>
-0.715924

>  <RMSD>
8.739

$$$$
lig.pdb
 OpenBabel11021811453D
libRbt.so/2013.1/901 2013/11/27
 42 45  0  0  0  0  0  0  0  0999 V2000
   -2.1959    0.6148    4.5838 C   0  0  2  0  0  0  0  0  0  0  0  0
   -3.4175    0.9887    5.2236 O   0  0  0  0  0  0  0  0  0  0  0  0
   -1.8545   -0.8548    4.8725 C   0  0  2  0  0  0  0  0  0  0  0  0
   -2.9712   -1.7412    4.4962 N   0  0  0  0  0  0  0  0  0  0  0  0
   -1.4676   -1.0506    6.3441 C   0  0  1  0  0  0  0  0  0  0  0  0
   -1.0144   -2.3767    6.5381 O   0  0  0  0  0  0  0  0  0  0  0  0
   -0.3528   -0.0692    6.7363 C   0  0  2  0  0  0  0  0  0  0  0  0
   -0.1216   -0.1553    8.1294 O   0  0  0  0  0  0  0  0  0  0  0  0
   -0.7160    1.3806    6.3561 C   0  0  2  0  0  0  0  0  0  0  0  0
   -1.1301    1.4682    4.9930 O   0  0  0  0  0  0  0  0  0  0  0  0
    0.5286    2.2604    6.5794 C   0  0  0  0  0  0  0  0  0  0  0  0
    0.9441    2.2784    7.9713 O   0  0  0  0  0  0  0  0  0  0  0  0
   -4.9054    4.9237    6.1360 C   0  0  2  0  0  0  0  0  0  0  0  0
   -4.7577    6.2863    6.6854 N   0  0  0  0  0  0  0  0  0  0  0  0
   -4.6833    3.8805    7.2339 C   0  0  0  0  0  0  0  0  0  0  0  0
   -4.6944    2.4736    6.6479 C   0  0  2  0  0  0  0  0  0  0  0  0
   -4.5792    1.4770    7.7200 N   0  0  0  0  0  0  0  0  0  0  0  0
   -3.5400    2.3609    5.6251 C   0  0  2  0  0  0  0  0  0  0  0  0
   -3.8388    3.2651    4.4725 C   0  0  2  0  0  0  0  0  0  0  0  0
   -2.7924    3.1156    3.5305 O   0  0  0  0  0  0  0  0  0  0  0  0
   -3.9364    4.6983    4.9601 C   0  0  1  0  0  0  0  0  0  0  0  0
   -4.3014    5.5890    3.9226 O   0  0  0  0  0  0  0  0  0  0  0  0
   -3.0812    3.4062    2.1670 C   0  0  1  0  0  0  0  0  0  0  0  0
   -1.8521    4.0899    1.5642 C   0  0  2  0  0  0  0  0  0  0  0  0
   -2.2711    5.0710    0.6344 O   0  0  0  0  0  0  0  0  0  0  0  0
   -1.1130    2.9185    0.9034 C   0  0  2  0  0  0  0  0  0  0  0  0
   -0.2082    3.3404   -0.1174 O   0  0  0  0  0  0  0  0  0  0  0  0
   -2.3085    2.0970    0.4054 C   0  0  2  0  0  0  0  0  0  0  0  0
   -3.2680    2.1932    1.4487 O   0  0  0  0  0  0  0  0  0  0  0  0
   -1.9975    0.6176    0.1499 C   0  0  0  0  0  0  0  0  0  0  0  0
   -1.2994    0.4350   -1.0636 O   0  0  0  0  0  0  0  0  0  0  0  0
    0.7495    4.3108    0.3011 C   0  0  2  0  0  0  0  0  0  0  0  0
    1.1134    5.2800   -0.8340 C   0  0  2  0  0  0  0  0  0  0  0  0
   -0.0920    5.9211   -1.3852 N   0  0  0  0  0  0  0  0  0  0  0  0
    1.9243    4.5713   -1.9294 C   0  0  1  0  0  0  0  0  0  0  0  0
    2.3031    5.5273   -2.9006 O   0  0  0  0  0  0  0  0  0  0  0  0
    3.1732    3.9477   -1.2834 C   0  0  2  0  0  0  0  0  0  0  0  0
    3.9363    3.2431   -2.2454 O   0  0  0  0  0  0  0  0  0  0  0  0
    2.7853    3.0169   -0.1160 C   0  0  1  0  0  0  0  0  0  0  0  0
    1.9187    3.6740    0.8115 O   0  0  0  0  0  0  0  0  0  0  0  0
    2.2149    1.6675   -0.5771 C   0  0  0  0  0  0  0  0  0  0  0  0
    1.1511    1.8490   -1.5780 N   0  0  0  0  0  0  0  0  0  0  0  0
  1  3  1  0  0  0  0
  1  2  1  1  0  0  0
  3  4  1  1  0  0  0
  5  6  1  6  0  0  0
  5  3  1  0  0  0  0
  7  9  1  0  0  0  0
  7  5  1  0  0  0  0
  7  8  1  1  0  0  0
  9 10  1  0  0  0  0
  9 11  1  6  0  0  0
 10  1  1  0  0  0  0
 11 12  1  0  0  0  0
 13 14  1  1  0  0  0
 13 21  1  0  0  0  0
 15 13  1  0  0  0  0
 16 15  1  0  0  0  0
 16 18  1  0  0  0  0
 16 17  1  1  0  0  0
 18  2  1  6  0  0  0
 18 19  1  0  0  0  0
 19 21  1  0  0  0  0
 19 20  1  6  0  0  0
 21 22  1  6  0  0  0
 23 20  1  1  0  0  0
 23 29  1  0  0  0  0
 23 24  1  0  0  0  0
 24 26  1  0  0  0  0
 24 25  1  6  0  0  0
 26 27  1  6  0  0  0
 28 26  1  0  0  0  0
 28 30  1  1  0  0  0
 29 28  1  0  0  0  0
 30 31  1  0  0  0  0
 32 27  1  6  0  0  0
 32 40  1  0  0  0  0
 32 33  1  0  0  0  0
 33 35  1  0  0  0  0
 33 34  1  6  0  0  0
 35 37  1  0  0  0  0
 35 36  1  6  0  0  0
 37 38  1  6  0  0  0
 39 37  1  0  0  0  0
 39 41  1  6  0  0  0
 40 39  1  0  0  0  0
 42 41  1  0  0  0  0
M  END
>  <CHROM.1>
-163.09870517,149.75217286,-178.12627892,-68.54539964,-173.35399284,176.32544016
-62.30018607,53.96558625,-174.38239871,154.55821230,142.24806875,169.87595337
-61.23065677,54.73379455,-147.26601332,-77.09034053,-177.97696708,147.02377053
-57.33231442,-55.88994797,-49.81648666,84.36210769,-1.22864836,2.56362325
2.93589406,-2.23265330,0.72679399,-0.82404629

>  <Name>
lig.pdb

>  <RI>
0

>  <Rbt.Current_Directory>
/home/itssahil/PROJECTS/Mol_Feturizer/New_Systems/rnas/2mxs

>  <Rbt.Executable>
rbdock ($Id: //depot/dev/client3/rdock/2013.1/src/exe/rbdock.cxx#4 $)

>  <Rbt.Library>
libRbt.so (2013.1, Build901 2013/11/27)

>  <Rbt.Parameter_File>
/export/apps/rDock/src/rDock_2013.1_src/data/scripts/dock_solv.prm

>  <Rbt.Receptor>
prm/pocket_docking_6.prm

>  <SCORE>
-29.3932

>  <SCORE.INTER>
-22.9695

>  <SCORE.INTER.CONST>
1

>  <SCORE.INTER.POLAR>
-2.7815

>  <SCORE.INTER.ROT>
9

>  <SCORE.INTER.SOLV>
18.9906

>  <SCORE.INTER.VDW>
-21.9716

>  <SCORE.INTER.norm>
-0.546893

>  <SCORE.INTRA>
-6.42371

>  <SCORE.INTRA.DIHEDRAL>
-6.344

>  <SCORE.INTRA.DIHEDRAL.0>
30.1357

>  <SCORE.INTRA.POLAR>
-2.81774

>  <SCORE.INTRA.POLAR.0>
-0.631696

>  <SCORE.INTRA.REPUL>
0

>  <SCORE.INTRA.REPUL.0>
0

>  <SCORE.INTRA.SOLV>
1.95873

>  <SCORE.INTRA.SOLV.lig_0>
-55.904

>  <SCORE.INTRA.VDW>
5.34925

>  <SCORE.INTRA.VDW.0>
-8.21197

>  <SCORE.INTRA.norm>
-0.152945

>  <SCORE.RESTR>
0

>  <SCORE.RESTR.CAVITY>
0

>  <SCORE.RESTR.norm>
0

>  <SCORE.SYSTEM>
0

>  <SCORE.SYSTEM.CONST>
0

>  <SCORE.SYSTEM.DIHEDRAL>
0

>  <SCORE.SYSTEM.SOLV>
0

>  <SCORE.SYSTEM.norm>
0

>  <SCORE.heavy>
42

>  <SCORE.norm>
-0.699838

>  <RMSD>
8.751

$$$$
lig.pdb
 OpenBabel11021811453D
libRbt.so/2013.1/901 2013/11/27
 42 45  0  0  0  0  0  0  0  0999 V2000
   -0.2245    5.1791    7.4769 C   0  0  2  0  0  0  0  0  0  0  0  0
   -0.9529    6.3268    7.0366 O   0  0  0  0  0  0  0  0  0  0  0  0
   -1.0995    4.2843    8.3675 C   0  0  2  0  0  0  0  0  0  0  0  0
   -2.3513    3.9163    7.6806 N   0  0  0  0  0  0  0  0  0  0  0  0
   -1.3882    4.9620    9.7132 C   0  0  1  0  0  0  0  0  0  0  0  0
   -2.0629    4.0529   10.5617 O   0  0  0  0  0  0  0  0  0  0  0  0
   -0.0761    5.4022   10.3797 C   0  0  2  0  0  0  0  0  0  0  0  0
   -0.3700    6.1618   11.5365 O   0  0  0  0  0  0  0  0  0  0  0  0
    0.7961    6.2335    9.4170 C   0  0  2  0  0  0  0  0  0  0  0  0
    0.9615    5.5677    8.1654 O   0  0  0  0  0  0  0  0  0  0  0  0
    2.1708    6.4462   10.0789 C   0  0  0  0  0  0  0  0  0  0  0  0
    2.2389    7.6999   10.8096 O   0  0  0  0  0  0  0  0  0  0  0  0
   -1.6270    7.8573    3.0700 C   0  0  2  0  0  0  0  0  0  0  0  0
   -1.1983    8.1518    1.6881 N   0  0  0  0  0  0  0  0  0  0  0  0
   -0.7403    8.6010    4.0720 C   0  0  0  0  0  0  0  0  0  0  0  0
   -1.0848    8.1934    5.4996 C   0  0  2  0  0  0  0  0  0  0  0  0
   -0.2986    8.9829    6.4559 N   0  0  0  0  0  0  0  0  0  0  0  0
   -0.8274    6.6760    5.6505 C   0  0  2  0  0  0  0  0  0  0  0  0
   -1.8049    5.9421    4.7895 C   0  0  2  0  0  0  0  0  0  0  0  0
   -1.5799    4.5566    4.9741 O   0  0  0  0  0  0  0  0  0  0  0  0
   -1.6074    6.3409    3.3392 C   0  0  1  0  0  0  0  0  0  0  0  0
   -2.5637    5.7384    2.4873 O   0  0  0  0  0  0  0  0  0  0  0  0
   -2.3966    3.6488    4.2420 C   0  0  1  0  0  0  0  0  0  0  0  0
   -1.6270    3.2368    2.9853 C   0  0  2  0  0  0  0  0  0  0  0  0
   -2.5353    3.0755    1.9120 O   0  0  0  0  0  0  0  0  0  0  0  0
   -0.9721    1.9175    3.4162 C   0  0  2  0  0  0  0  0  0  0  0  0
   -0.6010    1.0963    2.3087 O   0  0  0  0  0  0  0  0  0  0  0  0
   -2.0871    1.3433    4.2990 C   0  0  2  0  0  0  0  0  0  0  0  0
   -2.5984    2.4655    5.0043 O   0  0  0  0  0  0  0  0  0  0  0  0
   -1.6156    0.2921    5.3104 C   0  0  0  0  0  0  0  0  0  0  0  0
   -2.6849   -0.1901    6.0961 O   0  0  0  0  0  0  0  0  0  0  0  0
    0.2429   -0.0043    2.6413 C   0  0  2  0  0  0  0  0  0  0  0  0
    1.3175   -0.2436    1.5698 C   0  0  2  0  0  0  0  0  0  0  0  0
    2.1024    0.9788    1.3295 N   0  0  0  0  0  0  0  0  0  0  0  0
    0.6957   -0.7772    0.2705 C   0  0  1  0  0  0  0  0  0  0  0  0
    1.7361   -1.0594   -0.6453 O   0  0  0  0  0  0  0  0  0  0  0  0
   -0.0864   -2.0608    0.5970 C   0  0  2  0  0  0  0  0  0  0  0  0
   -0.7174   -2.5720   -0.5627 O   0  0  0  0  0  0  0  0  0  0  0  0
   -1.1255   -1.8073    1.7086 C   0  0  1  0  0  0  0  0  0  0  0  0
   -0.5302   -1.1842    2.8491 O   0  0  0  0  0  0  0  0  0  0  0  0
   -2.3657   -1.0443    1.2201 C   0  0  0  0  0  0  0  0  0  0  0  0
   -3.4230   -1.0283    2.2438 N   0  0  0  0  0  0  0  0  0  0  0  0
  1  3  1  0  0  0  0
  1  2  1  1  0  0  0
  3  4  1  6  0  0  0
  5  6  1  1  0  0  0
  5  3  1  0  0  0  0
  7  9  1  0  0  0  0
  7  5  1  0  0  0  0
  7  8  1  1  0  0  0
  9 10  1  0  0  0  0
  9 11  1  1  0  0  0
 10  1  1  0  0  0  0
 11 12  1  0  0  0  0
 13 14  1  6  0  0  0
 13 21  1  0  0  0  0
 15 13  1  0  0  0  0
 16 15  1  0  0  0  0
 16 18  1  0  0  0  0
 16 17  1  1  0  0  0
 18  2  1  1  0  0  0
 18 19  1  0  0  0  0
 19 21  1  0  0  0  0
 19 20  1  6  0  0  0
 21 22  1  6  0  0  0
 23 20  1  1  0  0  0
 23 29  1  0  0  0  0
 23 24  1  0  0  0  0
 24 26  1  0  0  0  0
 24 25  1  6  0  0  0
 26 27  1  6  0  0  0
 28 26  1  0  0  0  0
 28 30  1  1  0  0  0
 29 28  1  0  0  0  0
 30 31  1  0  0  0  0
 32 27  1  6  0  0  0
 32 40  1  0  0  0  0
 32 33  1  0  0  0  0
 33 35  1  0  0  0  0
 33 34  1  6  0  0  0
 35 37  1  0  0  0  0
 35 36  1  6  0  0  0
 37 38  1  6  0  0  0
 39 37  1  0  0  0  0
 39 41  1  6  0  0  0
 40 39  1  0  0  0  0
 42 41  1  0  0  0  0
M  END
>  <CHROM.1>
-153.80338934,-135.13581259,47.36707146,178.94130808,170.15348004,55.52829312
-93.93967866,59.32114333,83.18380731,-179.64768139,96.40778302,-52.51559898
68.03835407,168.06958871,-141.18429160,179.63383017,-63.84832818,-54.47261945
177.88158838,-178.54271194,170.19244137,62.64769849,-0.84538094,3.40841499
4.81651645,-1.00092028,1.50294050,-2.92670824

>  <Name>
lig.pdb

>  <RI>
0

>  <Rbt.Current_Directory>
/home/itssahil/PROJECTS/Mol_Feturizer/New_Systems/rnas/2mxs

>  <Rbt.Executable>
rbdock ($Id: //depot/dev/client3/rdock/2013.1/src/exe/rbdock.cxx#4 $)

>  <Rbt.Library>
libRbt.so (2013.1, Build901 2013/11/27)

>  <Rbt.Parameter_File>
/export/apps/rDock/src/rDock_2013.1_src/data/scripts/dock_solv.prm

>  <Rbt.Receptor>
prm/pocket_docking_4.prm

>  <SCORE>
-36.6863

>  <SCORE.INTER>
-31.8382

>  <SCORE.INTER.CONST>
1

>  <SCORE.INTER.POLAR>
-4.64075

>  <SCORE.INTER.ROT>
9

>  <SCORE.INTER.SOLV>
15.9077

>  <SCORE.INTER.VDW>
-20.6589

>  <SCORE.INTER.norm>
-0.758053

>  <SCORE.INTRA>
-4.98419

>  <SCORE.INTRA.DIHEDRAL>
-3.39908

>  <SCORE.INTRA.DIHEDRAL.0>
30.1357

>  <SCORE.INTRA.POLAR>
-1.7623

>  <SCORE.INTRA.POLAR.0>
-0.631696

>  <SCORE.INTRA.REPUL>
0

>  <SCORE.INTRA.REPUL.0>
0

>  <SCORE.INTRA.SOLV>
0.41005

>  <SCORE.INTRA.SOLV.lig_0>
-55.904

>  <SCORE.INTRA.VDW>
2.50215

>  <SCORE.INTRA.VDW.0>
-8.21197

>  <SCORE.INTRA.norm>
-0.118671

>  <SCORE.RESTR>
0.136111

>  <SCORE.RESTR.CAVITY>
0.136111

>  <SCORE.RESTR.norm>
0.00324074

>  <SCORE.SYSTEM>
0

>  <SCORE.SYSTEM.CONST>
0

>  <SCORE.SYSTEM.DIHEDRAL>
0

>  <SCORE.SYSTEM.SOLV>
0

>  <SCORE.SYSTEM.norm>
0

>  <SCORE.heavy>
42

>  <SCORE.norm>
-0.873484

>  <RMSD>
8.765

$$$$
lig.pdb
 OpenBabel11021811453D
libRbt.so/2013.1/901 2013/11/27
 42 45  0  0  0  0  0  0  0  0999 V2000
    1.4916    4.9508    6.7088 C   0  0  2  0  0  0  0  0  0  0  0  0
    0.3551    5.8000    6.5395 O   0  0  0  0  0  0  0  0  0  0  0  0
    1.2983    4.0106    7.9081 C   0  0  2  0  0  0  0  0  0  0  0  0
    0.0460    3.2423    7.7816 N   0  0  0  0  0  0  0  0  0  0  0  0
    1.3355    4.7897    9.2291 C   0  0  1  0  0  0  0  0  0  0  0  0
    1.3084    3.8796   10.3120 O   0  0  0  0  0  0  0  0  0  0  0  0
    2.6128    5.6391    9.3101 C   0  0  2  0  0  0  0  0  0  0  0  0
    2.5532    6.4667   10.4560 O   0  0  0  0  0  0  0  0  0  0  0  0
    2.7959    6.5068    8.0485 C   0  0  2  0  0  0  0  0  0  0  0  0
    2.6802    5.7226    6.8616 O   0  0  0  0  0  0  0  0  0  0  0  0
    4.1927    7.1536    8.1106 C   0  0  0  0  0  0  0  0  0  0  0  0
    4.3340    8.0437    9.2499 O   0  0  0  0  0  0  0  0  0  0  0  0
   -1.2707    7.6227    2.9947 C   0  0  2  0  0  0  0  0  0  0  0  0
   -1.1368    8.2859    1.6823 N   0  0  0  0  0  0  0  0  0  0  0  0
   -0.5973    8.4599    4.0850 C   0  0  0  0  0  0  0  0  0  0  0  0
   -0.6077    7.7169    5.4157 C   0  0  2  0  0  0  0  0  0  0  0  0
   -0.0490    8.5664    6.4750 N   0  0  0  0  0  0  0  0  0  0  0  0
    0.1879    6.4015    5.2474 C   0  0  2  0  0  0  0  0  0  0  0  0
   -0.5571    5.5155    4.3010 C   0  0  2  0  0  0  0  0  0  0  0  0
    0.1654    4.3026    4.1937 O   0  0  0  0  0  0  0  0  0  0  0  0
   -0.6825    6.1998    2.9530 C   0  0  1  0  0  0  0  0  0  0  0  0
   -1.4534    5.4401    2.0410 O   0  0  0  0  0  0  0  0  0  0  0  0
   -0.5289    3.0907    4.4693 C   0  0  1  0  0  0  0  0  0  0  0  0
   -1.5751    2.8910    3.3707 C   0  0  2  0  0  0  0  0  0  0  0  0
   -2.7336    2.3005    3.9294 O   0  0  0  0  0  0  0  0  0  0  0  0
   -0.8485    1.9645    2.3865 C   0  0  2  0  0  0  0  0  0  0  0  0
   -1.7446    1.2502    1.5347 O   0  0  0  0  0  0  0  0  0  0  0  0
   -0.0639    1.0913    3.3734 C   0  0  2  0  0  0  0  0  0  0  0  0
    0.3712    1.9933    4.3812 O   0  0  0  0  0  0  0  0  0  0  0  0
    1.1596    0.3940    2.7673 C   0  0  0  0  0  0  0  0  0  0  0  0
    1.8732   -0.3414    3.7384 O   0  0  0  0  0  0  0  0  0  0  0  0
   -2.1612    1.9678    0.3748 C   0  0  2  0  0  0  0  0  0  0  0  0
   -3.6917    2.0103    0.2492 C   0  0  2  0  0  0  0  0  0  0  0  0
   -4.3047    2.5624    1.4687 N   0  0  0  0  0  0  0  0  0  0  0  0
   -4.2591    0.6229   -0.0868 C   0  0  1  0  0  0  0  0  0  0  0  0
   -5.6562    0.7398   -0.2748 O   0  0  0  0  0  0  0  0  0  0  0  0
   -3.5899    0.1236   -1.3786 C   0  0  2  0  0  0  0  0  0  0  0  0
   -4.0474   -1.1744   -1.7108 O   0  0  0  0  0  0  0  0  0  0  0  0
   -2.0532    0.1357   -1.2454 C   0  0  1  0  0  0  0  0  0  0  0  0
   -1.5767    1.4073   -0.7988 O   0  0  0  0  0  0  0  0  0  0  0  0
   -1.5074   -1.0151   -0.3871 C   0  0  0  0  0  0  0  0  0  0  0  0
   -0.0401   -0.9595   -0.2861 N   0  0  0  0  0  0  0  0  0  0  0  0
  1  3  1  0  0  0  0
  1  2  1  1  0  0  0
  3  4  1  6  0  0  0
  5  6  1  1  0  0  0
  5  3  1  0  0  0  0
  7  9  1  0  0  0  0
  7  5  1  0  0  0  0
  7  8  1  1  0  0  0
  9 10  1  0  0  0  0
  9 11  1  1  0  0  0
 10  1  1  0  0  0  0
 11 12  1  0  0  0  0
 13 14  1  6  0  0  0
 13 21  1  0  0  0  0
 15 13  1  0  0  0  0
 16 15  1  0  0  0  0
 16 18  1  0  0  0  0
 16 17  1  1  0  0  0
 18  2  1  1  0  0  0
 18 19  1  0  0  0  0
 19 21  1  0  0  0  0
 19 20  1  6  0  0  0
 21 22  1  6  0  0  0
 23 20  1  6  0  0  0
 23 29  1  0  0  0  0
 23 24  1  0  0  0  0
 24 26  1  0  0  0  0
 24 25  1  1  0  0  0
 26 27  1  1  0  0  0
 28 26  1  0  0  0  0
 28 30  1  6  0  0  0
 29 28  1  0  0  0  0
 30 31  1  0  0  0  0
 32 27  1  1  0  0  0
 32 40  1  0  0  0  0
 32 33  1  0  0  0  0
 33 35  1  0  0  0  0
 33 34  1  1  0  0  0
 35 37  1  0  0  0  0
 35 36  1  6  0  0  0
 37 38  1  1  0  0  0
 39 37  1  0  0  0  0
 39 41  1  1  0  0  0
 40 39  1  0  0  0  0
 42 41  1  0  0  0  0
M  END
>  <CHROM.1>
-153.62378083,-160.06109093,68.61718017,179.95792232,-175.46251307,169.98175901
-62.78729988,69.44014322,-41.63879626,125.04921586,67.30916657,61.92406630
63.82827525,84.38351592,-126.78149601,177.20315613,67.69542461,63.66401530
176.79947623,64.14230425,-179.83848310,-73.09517932,-0.43094525,3.69620161
3.96533252,-0.75578997,0.94334621,-2.89912929

>  <Name>
lig.pdb

>  <RI>
0

>  <Rbt.Current_Directory>
/home/itssahil/PROJECTS/Mol_Feturizer/New_Systems/rnas/2mxs

>  <Rbt.Executable>
rbdock ($Id: //depot/dev/client3/rdock/2013.1/src/exe/rbdock.cxx#4 $)

>  <Rbt.Library>
libRbt.so (2013.1, Build901 2013/11/27)

>  <Rbt.Parameter_File>
/export/apps/rDock/src/rDock_2013.1_src/data/scripts/dock_solv.prm

>  <Rbt.Receptor>
prm/pocket_docking_6.prm

>  <SCORE>
-55.3065

>  <SCORE.INTER>
-50.9891

>  <SCORE.INTER.CONST>
1

>  <SCORE.INTER.POLAR>
-6.3231

>  <SCORE.INTER.ROT>
9

>  <SCORE.INTER.SOLV>
19.4616

>  <SCORE.INTER.VDW>
-29.0029

>  <SCORE.INTER.norm>
-1.21403

>  <SCORE.INTRA>
-4.31735

>  <SCORE.INTRA.DIHEDRAL>
-5.12258

>  <SCORE.INTRA.DIHEDRAL.0>
30.1357

>  <SCORE.INTRA.POLAR>
-0.965915

>  <SCORE.INTRA.POLAR.0>
-0.631696

>  <SCORE.INTRA.REPUL>
0

>  <SCORE.INTRA.REPUL.0>
0

>  <SCORE.INTRA.SOLV>
0.579248

>  <SCORE.INTRA.SOLV.lig_0>
-55.904

>  <SCORE.INTRA.VDW>
1.23842

>  <SCORE.INTRA.VDW.0>
-8.21197

>  <SCORE.INTRA.norm>
-0.102794

>  <SCORE.RESTR>
0

>  <SCORE.RESTR.CAVITY>
0

>  <SCORE.RESTR.norm>
0

>  <SCORE.SYSTEM>
0

>  <SCORE.SYSTEM.CONST>
0

>  <SCORE.SYSTEM.DIHEDRAL>
0

>  <SCORE.SYSTEM.SOLV>
0

>  <SCORE.SYSTEM.norm>
0

>  <SCORE.heavy>
42

>  <SCORE.norm>
-1.31682

>  <RMSD>
8.765

$$$$
lig.pdb
 OpenBabel11021811453D
libRbt.so/2013.1/901 2013/11/27
 42 45  0  0  0  0  0  0  0  0999 V2000
   -6.5690    2.9254    6.9810 C   0  0  2  0  0  0  0  0  0  0  0  0
   -5.4520    2.2159    7.5197 O   0  0  0  0  0  0  0  0  0  0  0  0
   -6.2292    3.5174    5.6049 C   0  0  2  0  0  0  0  0  0  0  0  0
   -5.7402    2.4732    4.6858 N   0  0  0  0  0  0  0  0  0  0  0  0
   -5.2120    4.6586    5.7332 C   0  0  1  0  0  0  0  0  0  0  0  0
   -5.0393    5.2778    4.4729 O   0  0  0  0  0  0  0  0  0  0  0  0
   -5.7061    5.7002    6.7486 C   0  0  2  0  0  0  0  0  0  0  0  0
   -4.6886    6.6578    6.9701 O   0  0  0  0  0  0  0  0  0  0  0  0
   -6.1040    5.0423    8.0854 C   0  0  2  0  0  0  0  0  0  0  0  0
   -6.9967    3.9484    7.8767 O   0  0  0  0  0  0  0  0  0  0  0  0
   -6.7861    6.1109    8.9607 C   0  0  0  0  0  0  0  0  0  0  0  0
   -8.0050    6.6185    8.3551 O   0  0  0  0  0  0  0  0  0  0  0  0
   -4.4826   -1.9658    7.1964 C   0  0  2  0  0  0  0  0  0  0  0  0
   -4.4596   -3.2543    6.4756 N   0  0  0  0  0  0  0  0  0  0  0  0
   -5.9250   -1.4947    7.3979 C   0  0  0  0  0  0  0  0  0  0  0  0
   -5.9534   -0.1011    8.0143 C   0  0  2  0  0  0  0  0  0  0  0  0
   -7.3374    0.3013    8.2941 N   0  0  0  0  0  0  0  0  0  0  0  0
   -5.2500    0.8769    7.0446 C   0  0  2  0  0  0  0  0  0  0  0  0
   -3.8017    0.5126    6.9727 C   0  0  2  0  0  0  0  0  0  0  0  0
   -3.1696    1.4440    6.1141 O   0  0  0  0  0  0  0  0  0  0  0  0
   -3.6572   -0.9031    6.4469 C   0  0  1  0  0  0  0  0  0  0  0  0
   -2.3083   -1.3313    6.4371 O   0  0  0  0  0  0  0  0  0  0  0  0
   -1.7507    1.3922    6.0092 C   0  0  1  0  0  0  0  0  0  0  0  0
   -1.4044    0.6883    4.6954 C   0  0  2  0  0  0  0  0  0  0  0  0
   -0.2398   -0.0950    4.8770 O   0  0  0  0  0  0  0  0  0  0  0  0
   -1.1876    1.8664    3.7362 C   0  0  2  0  0  0  0  0  0  0  0  0
   -0.4014    1.5151    2.5973 O   0  0  0  0  0  0  0  0  0  0  0  0
   -0.5268    2.8683    4.6910 C   0  0  2  0  0  0  0  0  0  0  0  0
   -1.2296    2.7120    5.9158 O   0  0  0  0  0  0  0  0  0  0  0  0
   -0.6273    4.3309    4.2425 C   0  0  0  0  0  0  0  0  0  0  0  0
   -0.0190    4.5320    2.9844 O   0  0  0  0  0  0  0  0  0  0  0  0
   -1.0009    0.5492    1.7362 C   0  0  2  0  0  0  0  0  0  0  0  0
    0.0398   -0.4173    1.1505 C   0  0  2  0  0  0  0  0  0  0  0  0
    0.8180   -1.0640    2.2202 N   0  0  0  0  0  0  0  0  0  0  0  0
    0.9537    0.2962    0.1429 C   0  0  1  0  0  0  0  0  0  0  0  0
    1.8308   -0.6572   -0.4249 O   0  0  0  0  0  0  0  0  0  0  0  0
    0.0741    0.9255   -0.9507 C   0  0  2  0  0  0  0  0  0  0  0  0
    0.8667    1.6346   -1.8852 O   0  0  0  0  0  0  0  0  0  0  0  0
   -0.9935    1.8535   -0.3355 C   0  0  1  0  0  0  0  0  0  0  0  0
   -1.7319    1.1914    0.6939 O   0  0  0  0  0  0  0  0  0  0  0  0
   -0.4286    3.2004    0.1395 C   0  0  0  0  0  0  0  0  0  0  0  0
    0.4417    3.8066   -0.8810 N   0  0  0  0  0  0  0  0  0  0  0  0
  1  3  1  0  0  0  0
  1  2  1  1  0  0  0
  3  4  1  6  0  0  0
  5  6  1  6  0  0  0
  5  3  1  0  0  0  0
  7  9  1  0  0  0  0
  7  5  1  0  0  0  0
  7  8  1  1  0  0  0
  9 10  1  0  0  0  0
  9 11  1  1  0  0  0
 10  1  1  0  0  0  0
 11 12  1  0  0  0  0
 13 14  1  6  0  0  0
 13 21  1  0  0  0  0
 15 13  1  0  0  0  0
 16 15  1  0  0  0  0
 16 18  1  0  0  0  0
 16 17  1  6  0  0  0
 18  2  1  1  0  0  0
 18 19  1  0  0  0  0
 19 21  1  0  0  0  0
 19 20  1  6  0  0  0
 21 22  1  1  0  0  0
 23 20  1  6  0  0  0
 23 29  1  0  0  0  0
 23 24  1  0  0  0  0
 24 26  1  0  0  0  0
 24 25  1  1  0  0  0
 26 27  1  6  0  0  0
 28 26  1  0  0  0  0
 28 30  1  6  0  0  0
 29 28  1  0  0  0  0
 30 31  1  0  0  0  0
 32 27  1  6  0  0  0
 32 40  1  0  0  0  0
 32 33  1  0  0  0  0
 33 35  1  0  0  0  0
 33 34  1  1  0  0  0
 35 37  1  0  0  0  0
 35 36  1  6  0  0  0
 37 38  1  6  0  0  0
 39 37  1  0  0  0  0
 39 41  1  1  0  0  0
 40 39  1  0  0  0  0
 42 41  1  0  0  0  0
M  END
>  <CHROM.1>
-93.52024894,-81.19422894,43.21128303,-57.93143852,173.99090199,-171.58084977
62.15212948,-57.11611678,175.92277523,172.96970324,102.10967993,-60.64490600
-53.43050290,64.29423293,-143.34241055,-59.62509401,40.73674703,-4.59545098
61.60891183,67.05873327,47.07048000,-167.89549050,-2.96065487,1.92458214
4.58236272,-3.11984598,-0.84386005,2.87299999

>  <Name>
lig.pdb

>  <RI>
0

>  <Rbt.Current_Directory>
/home/itssahil/PROJECTS/Mol_Feturizer/New_Systems/rnas/2mxs

>  <Rbt.Executable>
rbdock ($Id: //depot/dev/client3/rdock/2013.1/src/exe/rbdock.cxx#4 $)

>  <Rbt.Library>
libRbt.so (2013.1, Build901 2013/11/27)

>  <Rbt.Parameter_File>
/export/apps/rDock/src/rDock_2013.1_src/data/scripts/dock_solv.prm

>  <Rbt.Receptor>
prm/pocket_docking_7.prm

>  <SCORE>
-30.993

>  <SCORE.INTER>
-27.3125

>  <SCORE.INTER.CONST>
1

>  <SCORE.INTER.POLAR>
-4.96888

>  <SCORE.INTER.ROT>
9

>  <SCORE.INTER.SOLV>
16.7135

>  <SCORE.INTER.VDW>
-16.8166

>  <SCORE.INTER.norm>
-0.650297

>  <SCORE.INTRA>
-3.68051

>  <SCORE.INTRA.DIHEDRAL>
-4.43168

>  <SCORE.INTRA.DIHEDRAL.0>
30.1357

>  <SCORE.INTRA.POLAR>
-2.387

>  <SCORE.INTRA.POLAR.0>
-0.631696

>  <SCORE.INTRA.REPUL>
0

>  <SCORE.INTRA.REPUL.0>
0

>  <SCORE.INTRA.SOLV>
1.73284

>  <SCORE.INTRA.SOLV.lig_0>
-55.904

>  <SCORE.INTRA.VDW>
5.7847

>  <SCORE.INTRA.VDW.0>
-8.21197

>  <SCORE.INTRA.norm>
-0.0876312

>  <SCORE.RESTR>
0

>  <SCORE.RESTR.CAVITY>
0

>  <SCORE.RESTR.norm>
0

>  <SCORE.SYSTEM>
0

>  <SCORE.SYSTEM.CONST>
0

>  <SCORE.SYSTEM.DIHEDRAL>
0

>  <SCORE.SYSTEM.SOLV>
0

>  <SCORE.SYSTEM.norm>
0

>  <SCORE.heavy>
42

>  <SCORE.norm>
-0.737928

>  <RMSD>
8.768

$$$$
lig.pdb
 OpenBabel11021811453D
libRbt.so/2013.1/901 2013/11/27
 42 45  0  0  0  0  0  0  0  0999 V2000
   -1.3686   -0.5922    5.2492 C   0  0  2  0  0  0  0  0  0  0  0  0
   -1.7083    0.5850    4.5142 O   0  0  0  0  0  0  0  0  0  0  0  0
   -0.6348   -1.6029    4.3549 C   0  0  2  0  0  0  0  0  0  0  0  0
    0.5442   -0.9875    3.7179 N   0  0  0  0  0  0  0  0  0  0  0  0
   -1.5819   -2.1962    3.3039 C   0  0  1  0  0  0  0  0  0  0  0  0
   -0.9166   -3.2287    2.6017 O   0  0  0  0  0  0  0  0  0  0  0  0
   -2.8368   -2.7678    3.9807 C   0  0  2  0  0  0  0  0  0  0  0  0
   -3.7643   -3.1649    2.9889 O   0  0  0  0  0  0  0  0  0  0  0  0
   -3.4901   -1.7370    4.9235 C   0  0  2  0  0  0  0  0  0  0  0  0
   -2.5321   -1.1816    5.8241 O   0  0  0  0  0  0  0  0  0  0  0  0
   -4.5992   -2.4511    5.7192 C   0  0  0  0  0  0  0  0  0  0  0  0
   -4.0759   -3.1559    6.8767 O   0  0  0  0  0  0  0  0  0  0  0  0
   -4.1214    2.6899    7.3913 C   0  0  2  0  0  0  0  0  0  0  0  0
   -4.8152    3.8942    7.8897 N   0  0  0  0  0  0  0  0  0  0  0  0
   -2.6195    2.9563    7.2625 C   0  0  0  0  0  0  0  0  0  0  0  0
   -1.9169    1.7678    6.6170 C   0  0  2  0  0  0  0  0  0  0  0  0
   -0.4660    1.9915    6.5875 N   0  0  0  0  0  0  0  0  0  0  0  0
   -2.5012    1.5653    5.1996 C   0  0  2  0  0  0  0  0  0  0  0  0
   -3.9306    1.1474    5.3320 C   0  0  2  0  0  0  0  0  0  0  0  0
   -4.4335    0.9272    4.0270 O   0  0  0  0  0  0  0  0  0  0  0  0
   -4.7152    2.2319    6.0459 C   0  0  1  0  0  0  0  0  0  0  0  0
   -6.0596    1.8528    6.2737 O   0  0  0  0  0  0  0  0  0  0  0  0
   -4.6839    2.0672    3.2118 C   0  0  1  0  0  0  0  0  0  0  0  0
   -3.3368    2.5794    2.6977 C   0  0  2  0  0  0  0  0  0  0  0  0
   -3.3682    3.9926    2.6303 O   0  0  0  0  0  0  0  0  0  0  0  0
   -3.2370    1.9182    1.3165 C   0  0  2  0  0  0  0  0  0  0  0  0
   -2.3300    2.5930    0.4442 O   0  0  0  0  0  0  0  0  0  0  0  0
   -4.7080    1.9768    0.8868 C   0  0  2  0  0  0  0  0  0  0  0  0
   -5.4380    1.6819    2.0694 O   0  0  0  0  0  0  0  0  0  0  0  0
   -5.0909    0.9654   -0.1999 C   0  0  0  0  0  0  0  0  0  0  0  0
   -5.2260   -0.3375    0.3267 O   0  0  0  0  0  0  0  0  0  0  0  0
   -1.0004    2.7127    0.9463 C   0  0  2  0  0  0  0  0  0  0  0  0
   -0.3440    4.0328    0.5145 C   0  0  2  0  0  0  0  0  0  0  0  0
   -1.1708    5.1855    0.9093 N   0  0  0  0  0  0  0  0  0  0  0  0
   -0.0530    4.0398   -0.9938 C   0  0  1  0  0  0  0  0  0  0  0  0
    0.6261    5.2378   -1.3170 O   0  0  0  0  0  0  0  0  0  0  0  0
    0.8292    2.8240   -1.3245 C   0  0  2  0  0  0  0  0  0  0  0  0
    1.0924    2.7588   -2.7141 O   0  0  0  0  0  0  0  0  0  0  0  0
    0.1721    1.5157   -0.8385 C   0  0  1  0  0  0  0  0  0  0  0  0
   -0.2076    1.6005    0.5370 O   0  0  0  0  0  0  0  0  0  0  0  0
   -0.9915    1.0521   -1.7273 C   0  0  0  0  0  0  0  0  0  0  0  0
   -0.6611   -0.1948   -2.4360 N   0  0  0  0  0  0  0  0  0  0  0  0
  1  3  1  0  0  0  0
  1  2  1  6  0  0  0
  3  4  1  6  0  0  0
  5  6  1  1  0  0  0
  5  3  1  0  0  0  0
  7  9  1  0  0  0  0
  7  5  1  0  0  0  0
  7  8  1  6  0  0  0
  9 10  1  0  0  0  0
  9 11  1  1  0  0  0
 10  1  1  0  0  0  0
 11 12  1  0  0  0  0
 13 14  1  6  0  0  0
 13 21  1  0  0  0  0
 15 13  1  0  0  0  0
 16 15  1  0  0  0  0
 16 18  1  0  0  0  0
 16 17  1  6  0  0  0
 18  2  1  1  0  0  0
 18 19  1  0  0  0  0
 19 21  1  0  0  0  0
 19 20  1  6  0  0  0
 21 22  1  1  0  0  0
 23 20  1  1  0  0  0
 23 29  1  0  0  0  0
 23 24  1  0  0  0  0
 24 26  1  0  0  0  0
 24 25  1  6  0  0  0
 26 27  1  6  0  0  0
 28 26  1  0  0  0  0
 28 30  1  6  0  0  0
 29 28  1  0  0  0  0
 30 31  1  0  0  0  0
 32 27  1  6  0  0  0
 32 40  1  0  0  0  0
 32 33  1  0  0  0  0
 33 35  1  0  0  0  0
 33 34  1  6  0  0  0
 35 37  1  0  0  0  0
 35 36  1  1  0  0  0
 37 38  1  6  0  0  0
 39 37  1  0  0  0  0
 39 41  1  6  0  0  0
 40 39  1  0  0  0  0
 42 41  1  0  0  0  0
M  END
>  <CHROM.1>
45.26811019,174.75529601,171.09686088,41.98345782,-59.54893873,52.75560722
83.02021066,-59.44294541,72.30049239,-72.99832951,76.45366660,-58.98198810
81.00002909,57.20371373,-145.36781904,76.33546645,168.23759628,-90.16552823
-167.16493034,-56.30434105,112.47078322,22.82697460,-2.41479132,1.10571559
2.87367607,-2.70045985,1.12662401,-0.12178325

>  <Name>
lig.pdb

>  <RI>
0

>  <Rbt.Current_Directory>
/home/itssahil/PROJECTS/Mol_Feturizer/New_Systems/rnas/2mxs

>  <Rbt.Executable>
rbdock ($Id: //depot/dev/client3/rdock/2013.1/src/exe/rbdock.cxx#4 $)

>  <Rbt.Library>
libRbt.so (2013.1, Build901 2013/11/27)

>  <Rbt.Parameter_File>
/export/apps/rDock/src/rDock_2013.1_src/data/scripts/dock_solv.prm

>  <Rbt.Receptor>
prm/pocket_docking_7.prm

>  <SCORE>
-28.2849

>  <SCORE.INTER>
-31.626

>  <SCORE.INTER.CONST>
1

>  <SCORE.INTER.POLAR>
-4.69684

>  <SCORE.INTER.ROT>
9

>  <SCORE.INTER.SOLV>
17.2327

>  <SCORE.INTER.VDW>
-20.7721

>  <SCORE.INTER.norm>
-0.753

>  <SCORE.INTRA>
3.3411

>  <SCORE.INTRA.DIHEDRAL>
-4.25563

>  <SCORE.INTRA.DIHEDRAL.0>
30.1357

>  <SCORE.INTRA.POLAR>
-0.3318

>  <SCORE.INTRA.POLAR.0>
-0.631696

>  <SCORE.INTRA.REPUL>
0.0660853

>  <SCORE.INTRA.REPUL.0>
0

>  <SCORE.INTRA.SOLV>
0.187964

>  <SCORE.INTRA.SOLV.lig_0>
-55.904

>  <SCORE.INTRA.VDW>
6.17263

>  <SCORE.INTRA.VDW.0>
-8.21197

>  <SCORE.INTRA.norm>
0.0795501

>  <SCORE.RESTR>
0

>  <SCORE.RESTR.CAVITY>
0

>  <SCORE.RESTR.norm>
0

>  <SCORE.SYSTEM>
0

>  <SCORE.SYSTEM.CONST>
0

>  <SCORE.SYSTEM.DIHEDRAL>
0

>  <SCORE.SYSTEM.SOLV>
0

>  <SCORE.SYSTEM.norm>
0

>  <SCORE.heavy>
42

>  <SCORE.norm>
-0.67345

>  <RMSD>
8.780

$$$$
lig.pdb
 OpenBabel11021811453D
libRbt.so/2013.1/901 2013/11/27
 42 45  0  0  0  0  0  0  0  0999 V2000
   -0.1793    4.5036    8.0329 C   0  0  2  0  0  0  0  0  0  0  0  0
   -0.7316    5.8076    7.8433 O   0  0  0  0  0  0  0  0  0  0  0  0
   -0.2616    4.0837    9.5082 C   0  0  2  0  0  0  0  0  0  0  0  0
   -1.6455    4.1776   10.0086 N   0  0  0  0  0  0  0  0  0  0  0  0
    0.6940    4.9175   10.3714 C   0  0  1  0  0  0  0  0  0  0  0  0
    0.7051    4.4042   11.6897 O   0  0  0  0  0  0  0  0  0  0  0  0
    2.1162    4.8653    9.7931 C   0  0  2  0  0  0  0  0  0  0  0  0
    2.9453    5.7624   10.5066 O   0  0  0  0  0  0  0  0  0  0  0  0
    2.1301    5.2224    8.2929 C   0  0  2  0  0  0  0  0  0  0  0  0
    1.1682    4.4542    7.5706 O   0  0  0  0  0  0  0  0  0  0  0  0
    3.5414    4.9365    7.7455 C   0  0  0  0  0  0  0  0  0  0  0  0
    4.5276    5.8718    8.2583 O   0  0  0  0  0  0  0  0  0  0  0  0
   -1.3993    8.0401    4.2238 C   0  0  2  0  0  0  0  0  0  0  0  0
   -1.0046    8.5066    2.8796 N   0  0  0  0  0  0  0  0  0  0  0  0
   -0.3780    8.4995    5.2674 C   0  0  0  0  0  0  0  0  0  0  0  0
   -0.7013    7.9048    6.6330 C   0  0  2  0  0  0  0  0  0  0  0  0
    0.2240    8.4282    7.6457 N   0  0  0  0  0  0  0  0  0  0  0  0
   -0.6307    6.3638    6.5243 C   0  0  2  0  0  0  0  0  0  0  0  0
   -1.7339    5.9014    5.6273 C   0  0  2  0  0  0  0  0  0  0  0  0
   -1.6771    4.4877    5.5751 O   0  0  0  0  0  0  0  0  0  0  0  0
   -1.5584    6.5083    4.2481 C   0  0  1  0  0  0  0  0  0  0  0  0
   -2.6235    6.1706    3.3795 O   0  0  0  0  0  0  0  0  0  0  0  0
   -2.6393    3.8148    4.7699 C   0  0  1  0  0  0  0  0  0  0  0  0
   -2.0181    3.5887    3.3899 C   0  0  2  0  0  0  0  0  0  0  0  0
   -3.0198    3.7192    2.3987 O   0  0  0  0  0  0  0  0  0  0  0  0
   -1.4733    2.1585    3.5029 C   0  0  2  0  0  0  0  0  0  0  0  0
   -1.2783    1.5386    2.2314 O   0  0  0  0  0  0  0  0  0  0  0  0
   -2.5695    1.5240    4.3676 C   0  0  2  0  0  0  0  0  0  0  0  0
   -2.9035    2.5283    5.3153 O   0  0  0  0  0  0  0  0  0  0  0  0
   -2.1327    0.2590    5.1157 C   0  0  0  0  0  0  0  0  0  0  0  0
   -1.0913    0.5289    6.0299 O   0  0  0  0  0  0  0  0  0  0  0  0
   -0.0982    1.9501    1.5443 C   0  0  2  0  0  0  0  0  0  0  0  0
   -0.4148    2.4988    0.1448 C   0  0  2  0  0  0  0  0  0  0  0  0
   -1.3994    3.5911    0.2181 N   0  0  0  0  0  0  0  0  0  0  0  0
   -0.8856    1.3796   -0.7961 C   0  0  1  0  0  0  0  0  0  0  0  0
   -1.0783    1.9258   -2.0866 O   0  0  0  0  0  0  0  0  0  0  0  0
    0.1998    0.2905   -0.8377 C   0  0  2  0  0  0  0  0  0  0  0  0
   -0.2041   -0.7887   -1.6602 O   0  0  0  0  0  0  0  0  0  0  0  0
    0.5351   -0.2102    0.5824 C   0  0  1  0  0  0  0  0  0  0  0  0
    0.8352    0.8753    1.4627 O   0  0  0  0  0  0  0  0  0  0  0  0
   -0.5350   -1.1439    1.1671 C   0  0  0  0  0  0  0  0  0  0  0  0
   -0.2391   -1.4883    2.5671 N   0  0  0  0  0  0  0  0  0  0  0  0
  1  3  1  0  0  0  0
  1  2  1  1  0  0  0
  3  4  1  1  0  0  0
  5  6  1  1  0  0  0
  5  3  1  0  0  0  0
  7  9  1  0  0  0  0
  7  5  1  0  0  0  0
  7  8  1  1  0  0  0
  9 10  1  0  0  0  0
  9 11  1  6  0  0  0
 10  1  1  0  0  0  0
 11 12  1  0  0  0  0
 13 14  1  6  0  0  0
 13 21  1  0  0  0  0
 15 13  1  0  0  0  0
 16 15  1  0  0  0  0
 16 18  1  0  0  0  0
 16 17  1  1  0  0  0
 18  2  1  1  0  0  0
 18 19  1  0  0  0  0
 19 21  1  0  0  0  0
 19 20  1  6  0  0  0
 21 22  1  6  0  0  0
 23 20  1  1  0  0  0
 23 29  1  0  0  0  0
 23 24  1  0  0  0  0
 24 26  1  0  0  0  0
 24 25  1  6  0  0  0
 26 27  1  6  0  0  0
 28 26  1  0  0  0  0
 28 30  1  1  0  0  0
 29 28  1  0  0  0  0
 30 31  1  0  0  0  0
 32 27  1  6  0  0  0
 32 40  1  0  0  0  0
 32 33  1  0  0  0  0
 33 35  1  0  0  0  0
 33 34  1  1  0  0  0
 35 37  1  0  0  0  0
 35 36  1  6  0  0  0
 37 38  1  6  0  0  0
 39 37  1  0  0  0  0
 39 41  1  1  0  0  0
 40 39  1  0  0  0  0
 42 41  1  0  0  0  0
M  END
>  <CHROM.1>
-156.15917497,175.62375636,-177.33976505,-69.23389982,-177.99237509,-66.90312535
-69.69968267,60.09958242,-55.43487870,-179.84515603,93.73271908,-52.15174956
-55.05936084,78.15209618,-124.10158284,62.31941388,-62.98921974,-42.42560143
-178.30675109,176.09484347,-174.38402268,-71.18046824,-0.44389282,3.76603430
4.79108951,-1.06431414,1.21747186,-2.57714483

>  <Name>
lig.pdb

>  <RI>
0

>  <Rbt.Current_Directory>
/home/itssahil/PROJECTS/Mol_Feturizer/New_Systems/rnas/2mxs

>  <Rbt.Executable>
rbdock ($Id: //depot/dev/client3/rdock/2013.1/src/exe/rbdock.cxx#4 $)

>  <Rbt.Library>
libRbt.so (2013.1, Build901 2013/11/27)

>  <Rbt.Parameter_File>
/export/apps/rDock/src/rDock_2013.1_src/data/scripts/dock_solv.prm

>  <Rbt.Receptor>
prm/pocket_docking_6.prm

>  <SCORE>
-38.5203

>  <SCORE.INTER>
-34.184

>  <SCORE.INTER.CONST>
1

>  <SCORE.INTER.POLAR>
-5.56041

>  <SCORE.INTER.ROT>
9

>  <SCORE.INTER.SOLV>
15.2846

>  <SCORE.INTER.VDW>
-18.9495

>  <SCORE.INTER.norm>
-0.813904

>  <SCORE.INTRA>
-4.33633

>  <SCORE.INTRA.DIHEDRAL>
-11.2683

>  <SCORE.INTRA.DIHEDRAL.0>
30.1357

>  <SCORE.INTRA.POLAR>
-0.853123

>  <SCORE.INTRA.POLAR.0>
-0.631696

>  <SCORE.INTRA.REPUL>
0

>  <SCORE.INTRA.REPUL.0>
0

>  <SCORE.INTRA.SOLV>
1.12464

>  <SCORE.INTRA.SOLV.lig_0>
-55.904

>  <SCORE.INTRA.VDW>
3.6361

>  <SCORE.INTRA.VDW.0>
-8.21197

>  <SCORE.INTRA.norm>
-0.103246

>  <SCORE.RESTR>
0

>  <SCORE.RESTR.CAVITY>
0

>  <SCORE.RESTR.norm>
0

>  <SCORE.SYSTEM>
0

>  <SCORE.SYSTEM.CONST>
0

>  <SCORE.SYSTEM.DIHEDRAL>
0

>  <SCORE.SYSTEM.SOLV>
0

>  <SCORE.SYSTEM.norm>
0

>  <SCORE.heavy>
42

>  <SCORE.norm>
-0.91715

>  <RMSD>
8.781

$$$$
lig.pdb
 OpenBabel11021811453D
libRbt.so/2013.1/901 2013/11/27
 42 45  0  0  0  0  0  0  0  0999 V2000
    0.7160    3.9552    7.5291 C   0  0  2  0  0  0  0  0  0  0  0  0
   -0.0340    5.1709    7.5632 O   0  0  0  0  0  0  0  0  0  0  0  0
   -0.0203    2.8367    8.2819 C   0  0  2  0  0  0  0  0  0  0  0  0
   -1.3879    2.6591    7.7600 N   0  0  0  0  0  0  0  0  0  0  0  0
   -0.0378    3.1091    9.7915 C   0  0  1  0  0  0  0  0  0  0  0  0
   -0.5852    1.9913   10.4641 O   0  0  0  0  0  0  0  0  0  0  0  0
    1.3883    3.3626   10.3031 C   0  0  2  0  0  0  0  0  0  0  0  0
    1.3351    3.7661   11.6580 O   0  0  0  0  0  0  0  0  0  0  0  0
    2.1065    4.4400    9.4653 C   0  0  2  0  0  0  0  0  0  0  0  0
    2.0200    4.1514    8.0702 O   0  0  0  0  0  0  0  0  0  0  0  0
    3.5844    4.4770    9.8984 C   0  0  0  0  0  0  0  0  0  0  0  0
    4.4451    5.0220    8.8628 O   0  0  0  0  0  0  0  0  0  0  0  0
   -1.1796    7.9001    4.4376 C   0  0  2  0  0  0  0  0  0  0  0  0
   -0.9770    8.5553    3.1299 N   0  0  0  0  0  0  0  0  0  0  0  0
   -0.0068    8.2053    5.3728 C   0  0  0  0  0  0  0  0  0  0  0  0
   -0.1383    7.4203    6.6726 C   0  0  2  0  0  0  0  0  0  0  0  0
    0.9364    7.7932    7.6009 N   0  0  0  0  0  0  0  0  0  0  0  0
   -0.1163    5.9110    6.3366 C   0  0  2  0  0  0  0  0  0  0  0  0
   -1.3487    5.5817    5.5566 C   0  0  2  0  0  0  0  0  0  0  0  0
   -1.3295    4.1902    5.2959 O   0  0  0  0  0  0  0  0  0  0  0  0
   -1.3651    6.3806    4.2671 C   0  0  1  0  0  0  0  0  0  0  0  0
   -2.5530    6.1707    3.5269 O   0  0  0  0  0  0  0  0  0  0  0  0
   -0.2733    3.6815    4.4881 C   0  0  1  0  0  0  0  0  0  0  0  0
   -0.4736    2.1704    4.3537 C   0  0  2  0  0  0  0  0  0  0  0  0
    0.7886    1.5308    4.3347 O   0  0  0  0  0  0  0  0  0  0  0  0
   -1.2220    2.0535    3.0190 C   0  0  2  0  0  0  0  0  0  0  0  0
   -1.1085    0.7565    2.4328 O   0  0  0  0  0  0  0  0  0  0  0  0
   -0.5386    3.1784    2.2318 C   0  0  2  0  0  0  0  0  0  0  0  0
   -0.3693    4.2249    3.1775 O   0  0  0  0  0  0  0  0  0  0  0  0
   -1.3538    3.7064    1.0455 C   0  0  0  0  0  0  0  0  0  0  0  0
   -1.2167    2.8780   -0.0895 O   0  0  0  0  0  0  0  0  0  0  0  0
   -2.3398    0.2016    1.9746 C   0  0  2  0  0  0  0  0  0  0  0  0
   -2.4748   -1.2805    2.3559 C   0  0  2  0  0  0  0  0  0  0  0  0
   -2.3111   -1.4674    3.8072 N   0  0  0  0  0  0  0  0  0  0  0  0
   -1.4877   -2.1493    1.5621 C   0  0  1  0  0  0  0  0  0  0  0  0
   -1.7160   -3.5063    1.8897 O   0  0  0  0  0  0  0  0  0  0  0  0
   -1.7333   -1.9172    0.0615 C   0  0  2  0  0  0  0  0  0  0  0  0
   -0.8177   -2.6646   -0.7178 O   0  0  0  0  0  0  0  0  0  0  0  0
   -1.6404   -0.4177   -0.2883 C   0  0  1  0  0  0  0  0  0  0  0  0
   -2.4727    0.3712    0.5651 O   0  0  0  0  0  0  0  0  0  0  0  0
   -0.1985    0.1095   -0.3303 C   0  0  0  0  0  0  0  0  0  0  0  0
    0.4763   -0.2737   -1.5809 N   0  0  0  0  0  0  0  0  0  0  0  0
  1  3  1  0  0  0  0
  1  2  1  1  0  0  0
  3  4  1  6  0  0  0
  5  6  1  1  0  0  0
  5  3  1  0  0  0  0
  7  9  1  0  0  0  0
  7  5  1  0  0  0  0
  7  8  1  1  0  0  0
  9 10  1  0  0  0  0
  9 11  1  1  0  0  0
 10  1  1  0  0  0  0
 11 12  1  0  0  0  0
 13 14  1  6  0  0  0
 13 21  1  0  0  0  0
 15 13  1  0  0  0  0
 16 15  1  0  0  0  0
 16 18  1  0  0  0  0
 16 17  1  1  0  0  0
 18  2  1  1  0  0  0
 18 19  1  0  0  0  0
 19 21  1  0  0  0  0
 19 20  1  6  0  0  0
 21 22  1  1  0  0  0
 23 20  1  1  0  0  0
 23 29  1  0  0  0  0
 23 24  1  0  0  0  0
 24 26  1  0  0  0  0
 24 25  1  6  0  0  0
 26 27  1  6  0  0  0
 28 26  1  0  0  0  0
 28 30  1  6  0  0  0
 29 28  1  0  0  0  0
 30 31  1  0  0  0  0
 32 27  1  6  0  0  0
 32 40  1  0  0  0  0
 32 33  1  0  0  0  0
 33 35  1  0  0  0  0
 33 34  1  1  0  0  0
 35 37  1  0  0  0  0
 35 36  1  6  0  0  0
 37 38  1  6  0  0  0
 39 37  1  0  0  0  0
 39 41  1  1  0  0  0
 40 39  1  0  0  0  0
 42 41  1  0  0  0  0
M  END
>  <CHROM.1>
-145.73560144,-136.63663053,139.63559698,60.55177654,63.53126232,-71.63045094
156.62583717,65.01994697,-160.57406576,-63.45159253,-179.95370016,-52.76946410
61.05236311,132.72840565,-136.53996725,-81.40649754,-177.23146022,-171.50683259
60.20067030,66.78119823,78.03981838,-65.26021232,-0.39444821,2.92933108,4.65975021
-0.61758170,1.28209652,3.13738694

>  <Name>
lig.pdb

>  <RI>
0

>  <Rbt.Current_Directory>
/home/itssahil/PROJECTS/Mol_Feturizer/New_Systems/rnas/2mxs

>  <Rbt.Executable>
rbdock ($Id: //depot/dev/client3/rdock/2013.1/src/exe/rbdock.cxx#4 $)

>  <Rbt.Library>
libRbt.so (2013.1, Build901 2013/11/27)

>  <Rbt.Parameter_File>
/export/apps/rDock/src/rDock_2013.1_src/data/scripts/dock_solv.prm

>  <Rbt.Receptor>
prm/pocket_docking_4.prm

>  <SCORE>
-37.7043

>  <SCORE.INTER>
-38.7262

>  <SCORE.INTER.CONST>
1

>  <SCORE.INTER.POLAR>
-6.21318

>  <SCORE.INTER.ROT>
9

>  <SCORE.INTER.SOLV>
17.9821

>  <SCORE.INTER.VDW>
-20.7009

>  <SCORE.INTER.norm>
-0.922051

>  <SCORE.INTRA>
1.02184

>  <SCORE.INTRA.DIHEDRAL>
2.42503

>  <SCORE.INTRA.DIHEDRAL.0>
30.1357

>  <SCORE.INTRA.POLAR>
-0.909697

>  <SCORE.INTRA.POLAR.0>
-0.631696

>  <SCORE.INTRA.REPUL>
0

>  <SCORE.INTRA.REPUL.0>
0

>  <SCORE.INTRA.SOLV>
0.924041

>  <SCORE.INTRA.SOLV.lig_0>
-55.904

>  <SCORE.INTRA.VDW>
2.44028

>  <SCORE.INTRA.VDW.0>
-8.21197

>  <SCORE.INTRA.norm>
0.0243296

>  <SCORE.RESTR>
0

>  <SCORE.RESTR.CAVITY>
0

>  <SCORE.RESTR.norm>
0

>  <SCORE.SYSTEM>
0

>  <SCORE.SYSTEM.CONST>
0

>  <SCORE.SYSTEM.DIHEDRAL>
0

>  <SCORE.SYSTEM.SOLV>
0

>  <SCORE.SYSTEM.norm>
0

>  <SCORE.heavy>
42

>  <SCORE.norm>
-0.897722

>  <RMSD>
8.784

$$$$
lig.pdb
 OpenBabel11021811453D
libRbt.so/2013.1/901 2013/11/27
 42 45  0  0  0  0  0  0  0  0999 V2000
   -2.8407    3.0594    3.9297 C   0  0  2  0  0  0  0  0  0  0  0  0
   -1.4519    3.3121    4.1505 O   0  0  0  0  0  0  0  0  0  0  0  0
   -3.0451    2.1656    2.6972 C   0  0  2  0  0  0  0  0  0  0  0  0
   -2.2664    0.9188    2.8129 N   0  0  0  0  0  0  0  0  0  0  0  0
   -2.6920    2.9179    1.4077 C   0  0  1  0  0  0  0  0  0  0  0  0
   -3.0357    2.1214    0.2902 O   0  0  0  0  0  0  0  0  0  0  0  0
   -3.4588    4.2473    1.3403 C   0  0  2  0  0  0  0  0  0  0  0  0
   -3.0030    4.9952    0.2292 O   0  0  0  0  0  0  0  0  0  0  0  0
   -3.2792    5.0699    2.6324 C   0  0  2  0  0  0  0  0  0  0  0  0
   -3.5599    4.2820    3.7889 O   0  0  0  0  0  0  0  0  0  0  0  0
   -4.2433    6.2701    2.5739 C   0  0  0  0  0  0  0  0  0  0  0  0
   -5.5461    5.9539    3.1333 O   0  0  0  0  0  0  0  0  0  0  0  0
   -1.4162    7.6123    4.3457 C   0  0  2  0  0  0  0  0  0  0  0  0
   -0.7691    8.9058    4.6431 N   0  0  0  0  0  0  0  0  0  0  0  0
   -1.5024    6.7570    5.6122 C   0  0  0  0  0  0  0  0  0  0  0  0
   -2.0395    5.3683    5.2867 C   0  0  2  0  0  0  0  0  0  0  0  0
   -2.2112    4.5894    6.5195 N   0  0  0  0  0  0  0  0  0  0  0  0
   -1.0634    4.6853    4.3007 C   0  0  2  0  0  0  0  0  0  0  0  0
   -1.1008    5.4307    3.0051 C   0  0  2  0  0  0  0  0  0  0  0  0
   -0.2335    4.7656    2.1050 O   0  0  0  0  0  0  0  0  0  0  0  0
   -0.6625    6.8656    3.2291 C   0  0  1  0  0  0  0  0  0  0  0  0
   -0.7591    7.6412    2.0492 O   0  0  0  0  0  0  0  0  0  0  0  0
    0.0126    5.3804    0.8448 C   0  0  1  0  0  0  0  0  0  0  0  0
    1.5280    5.5051    0.6734 C   0  0  2  0  0  0  0  0  0  0  0  0
    1.8243    6.7085   -0.0099 O   0  0  0  0  0  0  0  0  0  0  0  0
    1.8722    4.2537   -0.1454 C   0  0  2  0  0  0  0  0  0  0  0  0
    3.1142    4.3712   -0.8399 O   0  0  0  0  0  0  0  0  0  0  0  0
    0.6343    4.1776   -1.0476 C   0  0  2  0  0  0  0  0  0  0  0  0
   -0.4487    4.5323   -0.1993 O   0  0  0  0  0  0  0  0  0  0  0  0
    0.3679    2.7893   -1.6410 C   0  0  0  0  0  0  0  0  0  0  0  0
   -0.1189    1.8917   -0.6661 O   0  0  0  0  0  0  0  0  0  0  0  0
    3.0940    3.8848   -2.1805 C   0  0  2  0  0  0  0  0  0  0  0  0
    4.3273    3.0241   -2.4939 C   0  0  2  0  0  0  0  0  0  0  0  0
    4.4593    1.9218   -1.5268 N   0  0  0  0  0  0  0  0  0  0  0  0
    5.6016    3.8803   -2.5481 C   0  0  1  0  0  0  0  0  0  0  0  0
    6.6857    3.0530   -2.9238 O   0  0  0  0  0  0  0  0  0  0  0  0
    5.3964    4.9921   -3.5909 C   0  0  2  0  0  0  0  0  0  0  0  0
    6.5294    5.8391   -3.6501 O   0  0  0  0  0  0  0  0  0  0  0  0
    4.1264    5.8116   -3.2827 C   0  0  1  0  0  0  0  0  0  0  0  0
    2.9881    4.9655   -3.1046 O   0  0  0  0  0  0  0  0  0  0  0  0
    4.3025    6.7901   -2.1120 C   0  0  0  0  0  0  0  0  0  0  0  0
    5.5496    6.5268   -1.3761 N   0  0  0  0  0  0  0  0  0  0  0  0
  1  3  1  0  0  0  0
  1  2  1  6  0  0  0
  3  4  1  1  0  0  0
  5  6  1  6  0  0  0
  5  3  1  0  0  0  0
  7  9  1  0  0  0  0
  7  5  1  0  0  0  0
  7  8  1  6  0  0  0
  9 10  1  0  0  0  0
  9 11  1  6  0  0  0
 10  1  1  0  0  0  0
 11 12  1  0  0  0  0
 13 14  1  1  0  0  0
 13 21  1  0  0  0  0
 15 13  1  0  0  0  0
 16 15  1  0  0  0  0
 16 18  1  0  0  0  0
 16 17  1  1  0  0  0
 18  2  1  6  0  0  0
 18 19  1  0  0  0  0
 19 21  1  0  0  0  0
 19 20  1  6  0  0  0
 21 22  1  6  0  0  0
 23 20  1  1  0  0  0
 23 29  1  0  0  0  0
 23 24  1  0  0  0  0
 24 26  1  0  0  0  0
 24 25  1  6  0  0  0
 26 27  1  6  0  0  0
 28 26  1  0  0  0  0
 28 30  1  1  0  0  0
 29 28  1  0  0  0  0
 30 31  1  0  0  0  0
 32 27  1  1  0  0  0
 32 40  1  0  0  0  0
 32 33  1  0  0  0  0
 33 35  1  0  0  0  0
 33 34  1  1  0  0  0
 35 37  1  0  0  0  0
 35 36  1  6  0  0  0
 37 38  1  1  0  0  0
 39 37  1  0  0  0  0
 39 41  1  1  0  0  0
 40 39  1  0  0  0  0
 42 41  1  0  0  0  0
M  END
>  <CHROM.1>
46.82112811,128.25006417,171.48265683,72.76677357,-33.90638566,-49.53100032
89.01952208,-170.36126676,60.89536517,-173.10233382,126.16655935,-70.57422279
68.46684438,-137.20937593,-134.98623206,72.94191138,68.04682288,88.02467333
175.85289563,71.45435496,-11.73821588,47.86478241,0.29354796,4.71170397,0.90265198
2.74786411,0.58330832,0.58351828

>  <Name>
lig.pdb

>  <RI>
3.31443e+07

>  <Rbt.Current_Directory>
/home/itssahil/PROJECTS/Mol_Feturizer/New_Systems/rnas/2mxs

>  <Rbt.Executable>
rbdock ($Id: //depot/dev/client3/rdock/2013.1/src/exe/rbdock.cxx#4 $)

>  <Rbt.Library>
libRbt.so (2013.1, Build901 2013/11/27)

>  <Rbt.Parameter_File>
/export/apps/rDock/src/rDock_2013.1_src/data/scripts/dock_solv.prm

>  <Rbt.Receptor>
prm/blind_docking_40.prm

>  <SCORE>
27.0394

>  <SCORE.INTER>
-32.697

>  <SCORE.INTER.CONST>
1

>  <SCORE.INTER.POLAR>
-4.86745

>  <SCORE.INTER.ROT>
9

>  <SCORE.INTER.SOLV>
26.4991

>  <SCORE.INTER.VDW>
-24.0062

>  <SCORE.INTER.norm>
-0.778499

>  <SCORE.INTRA>
28.7847

>  <SCORE.INTRA.DIHEDRAL>
13.1957

>  <SCORE.INTRA.DIHEDRAL.0>
30.1357

>  <SCORE.INTRA.POLAR>
-2.16349

>  <SCORE.INTRA.POLAR.0>
-0.631696

>  <SCORE.INTRA.REPUL>
0

>  <SCORE.INTRA.REPUL.0>
0

>  <SCORE.INTRA.SOLV>
5.50842

>  <SCORE.INTRA.SOLV.lig_0>
-55.904

>  <SCORE.INTRA.VDW>
26.7886

>  <SCORE.INTRA.VDW.0>
-8.21197

>  <SCORE.INTRA.norm>
0.685351

>  <SCORE.RESTR>
30.9516

>  <SCORE.RESTR.CAVITY>
30.9516

>  <SCORE.RESTR.norm>
0.736943

>  <SCORE.SYSTEM>
0

>  <SCORE.SYSTEM.CONST>
0

>  <SCORE.SYSTEM.DIHEDRAL>
0

>  <SCORE.SYSTEM.SOLV>
0

>  <SCORE.SYSTEM.norm>
0

>  <SCORE.heavy>
42

>  <SCORE.norm>
0.643794

>  <RMSD>
8.801

$$$$
lig.pdb
 OpenBabel11021811453D
libRbt.so/2013.1/901 2013/11/27
 42 45  0  0  0  0  0  0  0  0999 V2000
   -3.0917    3.5483    5.9749 C   0  0  2  0  0  0  0  0  0  0  0  0
   -3.1476    4.7252    6.7832 O   0  0  0  0  0  0  0  0  0  0  0  0
   -4.2258    2.5789    6.3407 C   0  0  2  0  0  0  0  0  0  0  0  0
   -5.5386    3.2455    6.2593 N   0  0  0  0  0  0  0  0  0  0  0  0
   -4.0021    1.9707    7.7313 C   0  0  1  0  0  0  0  0  0  0  0  0
   -4.9772    0.9739    7.9703 O   0  0  0  0  0  0  0  0  0  0  0  0
   -2.6021    1.3445    7.8193 C   0  0  2  0  0  0  0  0  0  0  0  0
   -2.3562    0.9321    9.1500 O   0  0  0  0  0  0  0  0  0  0  0  0
   -1.5098    2.3361    7.3697 C   0  0  2  0  0  0  0  0  0  0  0  0
   -1.8238    2.9092    6.1009 O   0  0  0  0  0  0  0  0  0  0  0  0
   -0.1760    1.5706    7.2791 C   0  0  0  0  0  0  0  0  0  0  0  0
    0.3039    1.1500    8.5841 O   0  0  0  0  0  0  0  0  0  0  0  0
   -0.5789    8.1771    6.6544 C   0  0  2  0  0  0  0  0  0  0  0  0
    0.7477    8.8254    6.6697 N   0  0  0  0  0  0  0  0  0  0  0  0
   -0.8063    7.4001    7.9535 C   0  0  0  0  0  0  0  0  0  0  0  0
   -2.1105    6.6143    7.8877 C   0  0  2  0  0  0  0  0  0  0  0  0
   -2.3685    5.9519    9.1724 N   0  0  0  0  0  0  0  0  0  0  0  0
   -2.0132    5.6020    6.7227 C   0  0  2  0  0  0  0  0  0  0  0  0
   -1.9525    6.3637    5.4376 C   0  0  2  0  0  0  0  0  0  0  0  0
   -1.9061    5.4193    4.3837 O   0  0  0  0  0  0  0  0  0  0  0  0
   -0.7245    7.2543    5.4298 C   0  0  1  0  0  0  0  0  0  0  0  0
   -0.6614    8.0625    4.2697 O   0  0  0  0  0  0  0  0  0  0  0  0
   -0.6689    4.7588    4.1393 C   0  0  1  0  0  0  0  0  0  0  0  0
   -0.9778    3.4258    3.4543 C   0  0  2  0  0  0  0  0  0  0  0  0
   -0.0597    2.4460    3.9013 O   0  0  0  0  0  0  0  0  0  0  0  0
   -0.8069    3.7701    1.9686 C   0  0  2  0  0  0  0  0  0  0  0  0
   -0.5686    2.6192    1.1578 O   0  0  0  0  0  0  0  0  0  0  0  0
    0.3690    4.7508    2.0567 C   0  0  2  0  0  0  0  0  0  0  0  0
    0.1066    5.5200    3.2220 O   0  0  0  0  0  0  0  0  0  0  0  0
    0.4972    5.6948    0.8554 C   0  0  0  0  0  0  0  0  0  0  0  0
   -0.6487    6.5060    0.7069 O   0  0  0  0  0  0  0  0  0  0  0  0
    0.7518    2.5296    0.6263 C   0  0  2  0  0  0  0  0  0  0  0  0
    0.7693    1.8365   -0.7447 C   0  0  2  0  0  0  0  0  0  0  0  0
   -0.1418    2.5089   -1.6859 N   0  0  0  0  0  0  0  0  0  0  0  0
    0.4403    0.3417   -0.6144 C   0  0  1  0  0  0  0  0  0  0  0  0
    0.5556   -0.2587   -1.8899 O   0  0  0  0  0  0  0  0  0  0  0  0
    1.4432   -0.2935    0.3636 C   0  0  2  0  0  0  0  0  0  0  0  0
    1.1571   -1.6670    0.5533 O   0  0  0  0  0  0  0  0  0  0  0  0
    1.4425    0.4490    1.7158 C   0  0  1  0  0  0  0  0  0  0  0  0
    1.6156    1.8569    1.5397 O   0  0  0  0  0  0  0  0  0  0  0  0
    0.2197    0.1259    2.5871 C   0  0  0  0  0  0  0  0  0  0  0  0
    0.5085   -0.9640    3.5332 N   0  0  0  0  0  0  0  0  0  0  0  0
  1  3  1  0  0  0  0
  1  2  1  1  0  0  0
  3  4  1  1  0  0  0
  5  6  1  6  0  0  0
  5  3  1  0  0  0  0
  7  9  1  0  0  0  0
  7  5  1  0  0  0  0
  7  8  1  1  0  0  0
  9 10  1  0  0  0  0
  9 11  1  6  0  0  0
 10  1  1  0  0  0  0
 11 12  1  0  0  0  0
 13 14  1  1  0  0  0
 13 21  1  0  0  0  0
 15 13  1  0  0  0  0
 16 15  1  0  0  0  0
 16 18  1  0  0  0  0
 16 17  1  1  0  0  0
 18  2  1  6  0  0  0
 18 19  1  0  0  0  0
 19 21  1  0  0  0  0
 19 20  1  6  0  0  0
 21 22  1  6  0  0  0
 23 20  1  6  0  0  0
 23 29  1  0  0  0  0
 23 24  1  0  0  0  0
 24 26  1  0  0  0  0
 24 25  1  1  0  0  0
 26 27  1  6  0  0  0
 28 26  1  0  0  0  0
 28 30  1  6  0  0  0
 29 28  1  0  0  0  0
 30 31  1  0  0  0  0
 32 27  1  1  0  0  0
 32 40  1  0  0  0  0
 32 33  1  0  0  0  0
 33 35  1  0  0  0  0
 33 34  1  6  0  0  0
 35 37  1  0  0  0  0
 35 36  1  6  0  0  0
 37 38  1  1  0  0  0
 39 37  1  0  0  0  0
 39 41  1  6  0  0  0
 40 39  1  0  0  0  0
 42 41  1  0  0  0  0
M  END
>  <CHROM.1>
-166.83989620,168.87604189,62.95879594,62.06448967,82.28812608,-59.68019778
-67.89482737,-81.07258996,-58.11737545,-76.71710735,155.26556262,167.41148596
-71.77790668,-110.12596475,-148.22287666,60.80886916,12.37485128,-171.51996495
169.50630996,-54.42852247,94.19628520,-55.38531987,-0.94564307,3.37182140
4.27460614,2.53801248,1.15602400,0.17036209

>  <Name>
lig.pdb

>  <RI>
4.11275e+07

>  <Rbt.Current_Directory>
/home/itssahil/PROJECTS/Mol_Feturizer/New_Systems/rnas/2mxs

>  <Rbt.Executable>
rbdock ($Id: //depot/dev/client3/rdock/2013.1/src/exe/rbdock.cxx#4 $)

>  <Rbt.Library>
libRbt.so (2013.1, Build901 2013/11/27)

>  <Rbt.Parameter_File>
/export/apps/rDock/src/rDock_2013.1_src/data/scripts/dock_solv.prm

>  <Rbt.Receptor>
prm/pocket_docking_8.prm

>  <SCORE>
-18.7371

>  <SCORE.INTER>
-25.8767

>  <SCORE.INTER.CONST>
1

>  <SCORE.INTER.POLAR>
-3.65218

>  <SCORE.INTER.ROT>
9

>  <SCORE.INTER.SOLV>
18.3447

>  <SCORE.INTER.VDW>
-20.7921

>  <SCORE.INTER.norm>
-0.616112

>  <SCORE.INTRA>
7.03931

>  <SCORE.INTRA.DIHEDRAL>
1.59585

>  <SCORE.INTRA.DIHEDRAL.0>
30.1357

>  <SCORE.INTRA.POLAR>
-0.397454

>  <SCORE.INTRA.POLAR.0>
-0.631696

>  <SCORE.INTRA.REPUL>
0.0184586

>  <SCORE.INTRA.REPUL.0>
0

>  <SCORE.INTRA.SOLV>
1.98184

>  <SCORE.INTRA.SOLV.lig_0>
-55.904

>  <SCORE.INTRA.VDW>
6.50951

>  <SCORE.INTRA.VDW.0>
-8.21197

>  <SCORE.INTRA.norm>
0.167603

>  <SCORE.RESTR>
0.100265

>  <SCORE.RESTR.CAVITY>
0.100265

>  <SCORE.RESTR.norm>
0.00238726

>  <SCORE.SYSTEM>
0

>  <SCORE.SYSTEM.CONST>
0

>  <SCORE.SYSTEM.DIHEDRAL>
0

>  <SCORE.SYSTEM.SOLV>
0

>  <SCORE.SYSTEM.norm>
0

>  <SCORE.heavy>
42

>  <SCORE.norm>
-0.446122

>  <RMSD>
8.805

$$$$
lig.pdb
 OpenBabel11021811453D
libRbt.so/2013.1/901 2013/11/27
 42 45  0  0  0  0  0  0  0  0999 V2000
    0.9277    2.7030    5.9895 C   0  0  2  0  0  0  0  0  0  0  0  0
   -0.3080    3.4175    5.9259 O   0  0  0  0  0  0  0  0  0  0  0  0
    0.7868    1.3092    5.3594 C   0  0  2  0  0  0  0  0  0  0  0  0
    0.2700    1.4012    3.9815 N   0  0  0  0  0  0  0  0  0  0  0  0
   -0.1016    0.4032    6.2217 C   0  0  1  0  0  0  0  0  0  0  0  0
   -0.0848   -0.9098    5.6950 O   0  0  0  0  0  0  0  0  0  0  0  0
    0.4110    0.3774    7.6695 C   0  0  2  0  0  0  0  0  0  0  0  0
   -0.5072   -0.3318    8.4790 O   0  0  0  0  0  0  0  0  0  0  0  0
    0.6055    1.8024    8.2261 C   0  0  2  0  0  0  0  0  0  0  0  0
    1.3837    2.6022    7.3362 O   0  0  0  0  0  0  0  0  0  0  0  0
    1.3203    1.6919    9.5863 C   0  0  0  0  0  0  0  0  0  0  0  0
    0.4973    1.0327   10.5856 O   0  0  0  0  0  0  0  0  0  0  0  0
   -1.1406    7.2956    4.2531 C   0  0  2  0  0  0  0  0  0  0  0  0
   -0.9053    8.3821    3.2814 N   0  0  0  0  0  0  0  0  0  0  0  0
    0.1224    7.0374    5.0786 C   0  0  0  0  0  0  0  0  0  0  0  0
   -0.0666    5.8264    5.9845 C   0  0  2  0  0  0  0  0  0  0  0  0
    1.1115    5.6460    6.8419 N   0  0  0  0  0  0  0  0  0  0  0  0
   -0.3325    4.5884    5.0967 C   0  0  2  0  0  0  0  0  0  0  0  0
   -1.6488    4.7711    4.4115 C   0  0  2  0  0  0  0  0  0  0  0  0
   -1.8920    3.6105    3.6380 O   0  0  0  0  0  0  0  0  0  0  0  0
   -1.6021    6.0113    3.5390 C   0  0  1  0  0  0  0  0  0  0  0  0
   -2.8511    6.2803    2.9303 O   0  0  0  0  0  0  0  0  0  0  0  0
   -3.2076    3.4160    3.1298 C   0  0  1  0  0  0  0  0  0  0  0  0
   -3.1057    2.5042    1.9052 C   0  0  2  0  0  0  0  0  0  0  0  0
   -4.0658    2.9018    0.9445 O   0  0  0  0  0  0  0  0  0  0  0  0
   -3.3943    1.1190    2.4993 C   0  0  2  0  0  0  0  0  0  0  0  0
   -3.8288    0.1761    1.5191 O   0  0  0  0  0  0  0  0  0  0  0  0
   -4.4509    1.4936    3.5459 C   0  0  2  0  0  0  0  0  0  0  0  0
   -3.9940    2.7233    4.0911 O   0  0  0  0  0  0  0  0  0  0  0  0
   -4.6080    0.4739    4.6799 C   0  0  0  0  0  0  0  0  0  0  0  0
   -5.4018    0.9828    5.7306 O   0  0  0  0  0  0  0  0  0  0  0  0
   -2.8639   -0.1215    0.5119 C   0  0  2  0  0  0  0  0  0  0  0  0
   -3.5221   -0.6600   -0.7675 C   0  0  2  0  0  0  0  0  0  0  0  0
   -4.5453    0.2740   -1.2662 N   0  0  0  0  0  0  0  0  0  0  0  0
   -4.1037   -2.0639   -0.5430 C   0  0  1  0  0  0  0  0  0  0  0  0
   -4.6172   -2.5417   -1.7714 O   0  0  0  0  0  0  0  0  0  0  0  0
   -2.9757   -2.9839   -0.0459 C   0  0  2  0  0  0  0  0  0  0  0  0
   -3.4692   -4.2842    0.2186 O   0  0  0  0  0  0  0  0  0  0  0  0
   -2.2985   -2.3986    1.2105 C   0  0  1  0  0  0  0  0  0  0  0  0
   -1.8936   -1.0434    1.0034 O   0  0  0  0  0  0  0  0  0  0  0  0
   -3.1398   -2.5575    2.4855 C   0  0  0  0  0  0  0  0  0  0  0  0
   -2.3568   -2.2323    3.6886 N   0  0  0  0  0  0  0  0  0  0  0  0
  1  3  1  0  0  0  0
  1  2  1  1  0  0  0
  3  4  1  6  0  0  0
  5  6  1  6  0  0  0
  5  3  1  0  0  0  0
  7  9  1  0  0  0  0
  7  5  1  0  0  0  0
  7  8  1  1  0  0  0
  9 10  1  0  0  0  0
  9 11  1  1  0  0  0
 10  1  1  0  0  0  0
 11 12  1  0  0  0  0
 13 14  1  6  0  0  0
 13 21  1  0  0  0  0
 15 13  1  0  0  0  0
 16 15  1  0  0  0  0
 16 18  1  0  0  0  0
 16 17  1  6  0  0  0
 18  2  1  1  0  0  0
 18 19  1  0  0  0  0
 19 21  1  0  0  0  0
 19 20  1  6  0  0  0
 21 22  1  1  0  0  0
 23 20  1  1  0  0  0
 23 29  1  0  0  0  0
 23 24  1  0  0  0  0
 24 26  1  0  0  0  0
 24 25  1  6  0  0  0
 26 27  1  6  0  0  0
 28 26  1  0  0  0  0
 28 30  1  1  0  0  0
 29 28  1  0  0  0  0
 30 31  1  0  0  0  0
 32 27  1  1  0  0  0
 32 40  1  0  0  0  0
 32 33  1  0  0  0  0
 33 35  1  0  0  0  0
 33 34  1  1  0  0  0
 35 37  1  0  0  0  0
 35 36  1  6  0  0  0
 37 38  1  1  0  0  0
 39 37  1  0  0  0  0
 39 41  1  1  0  0  0
 40 39  1  0  0  0  0
 42 41  1  0  0  0  0
M  END
>  <CHROM.1>
-95.63706398,-114.17643256,68.21072733,65.27616825,65.02545590,177.40233958
-65.88246644,-60.67449117,-167.66622352,166.37819722,156.36908950,65.62960627
175.84677540,63.50692354,-157.33356091,169.01119983,-175.11029297,-155.61303453
-76.01953644,-53.89844655,168.80319806,174.25620065,-1.82440826,1.64418877
3.88228271,-0.56121952,1.05707122,3.04055648

>  <Name>
lig.pdb

>  <RI>
0

>  <Rbt.Current_Directory>
/home/itssahil/PROJECTS/Mol_Feturizer/New_Systems/rnas/2mxs

>  <Rbt.Executable>
rbdock ($Id: //depot/dev/client3/rdock/2013.1/src/exe/rbdock.cxx#4 $)

>  <Rbt.Library>
libRbt.so (2013.1, Build901 2013/11/27)

>  <Rbt.Parameter_File>
/export/apps/rDock/src/rDock_2013.1_src/data/scripts/dock_solv.prm

>  <Rbt.Receptor>
prm/pocket_docking_6.prm

>  <SCORE>
-46.5036

>  <SCORE.INTER>
-40.8691

>  <SCORE.INTER.CONST>
1

>  <SCORE.INTER.POLAR>
-5.39018

>  <SCORE.INTER.ROT>
9

>  <SCORE.INTER.SOLV>
19.7737

>  <SCORE.INTER.VDW>
-25.47

>  <SCORE.INTER.norm>
-0.973073

>  <SCORE.INTRA>
-5.63456

>  <SCORE.INTRA.DIHEDRAL>
-7.21535

>  <SCORE.INTRA.DIHEDRAL.0>
30.1357

>  <SCORE.INTRA.POLAR>
-1.12698

>  <SCORE.INTRA.POLAR.0>
-0.631696

>  <SCORE.INTRA.REPUL>
0.00380038

>  <SCORE.INTRA.REPUL.0>
0

>  <SCORE.INTRA.SOLV>
0.0556709

>  <SCORE.INTRA.SOLV.lig_0>
-55.904

>  <SCORE.INTRA.VDW>
1.758

>  <SCORE.INTRA.VDW.0>
-8.21197

>  <SCORE.INTRA.norm>
-0.134156

>  <SCORE.RESTR>
0

>  <SCORE.RESTR.CAVITY>
0

>  <SCORE.RESTR.norm>
0

>  <SCORE.SYSTEM>
0

>  <SCORE.SYSTEM.CONST>
0

>  <SCORE.SYSTEM.DIHEDRAL>
0

>  <SCORE.SYSTEM.SOLV>
0

>  <SCORE.SYSTEM.norm>
0

>  <SCORE.heavy>
42

>  <SCORE.norm>
-1.10723

>  <RMSD>
8.827

$$$$
lig.pdb
 OpenBabel11021811453D
libRbt.so/2013.1/901 2013/11/27
 42 45  0  0  0  0  0  0  0  0999 V2000
   -0.7478    4.2921    7.7917 C   0  0  2  0  0  0  0  0  0  0  0  0
    0.1902    4.2394    6.7152 O   0  0  0  0  0  0  0  0  0  0  0  0
   -0.3040    3.3848    8.9490 C   0  0  2  0  0  0  0  0  0  0  0  0
    1.0635    3.7184    9.3885 N   0  0  0  0  0  0  0  0  0  0  0  0
   -0.4118    1.9047    8.5599 C   0  0  1  0  0  0  0  0  0  0  0  0
   -0.1435    1.1006    9.6926 O   0  0  0  0  0  0  0  0  0  0  0  0
   -1.8223    1.5933    8.0372 C   0  0  2  0  0  0  0  0  0  0  0  0
   -1.8552    0.2701    7.5376 O   0  0  0  0  0  0  0  0  0  0  0  0
   -2.2458    2.5800    6.9302 C   0  0  2  0  0  0  0  0  0  0  0  0
   -2.0520    3.9325    7.3427 O   0  0  0  0  0  0  0  0  0  0  0  0
   -3.7351    2.3394    6.6183 C   0  0  0  0  0  0  0  0  0  0  0  0
   -4.5740    2.5026    7.7930 O   0  0  0  0  0  0  0  0  0  0  0  0
   -1.0610    7.6143    4.3540 C   0  0  2  0  0  0  0  0  0  0  0  0
   -0.9515    8.5086    3.1841 N   0  0  0  0  0  0  0  0  0  0  0  0
    0.2316    7.6492    5.1731 C   0  0  0  0  0  0  0  0  0  0  0  0
    0.1804    6.6253    6.3008 C   0  0  2  0  0  0  0  0  0  0  0  0
    1.3810    6.7339    7.1391 N   0  0  0  0  0  0  0  0  0  0  0  0
    0.0342    5.2178    5.6771 C   0  0  2  0  0  0  0  0  0  0  0  0
   -1.3020    5.1313    5.0118 C   0  0  2  0  0  0  0  0  0  0  0  0
   -1.4323    3.8238    4.4845 O   0  0  0  0  0  0  0  0  0  0  0  0
   -1.3948    6.1759    3.9157 C   0  0  1  0  0  0  0  0  0  0  0  0
   -2.6722    6.1952    3.3067 O   0  0  0  0  0  0  0  0  0  0  0  0
   -0.3106    3.2673    3.8070 C   0  0  1  0  0  0  0  0  0  0  0  0
   -0.6323    1.8046    3.4935 C   0  0  2  0  0  0  0  0  0  0  0  0
    0.5467    1.0306    3.6103 O   0  0  0  0  0  0  0  0  0  0  0  0
   -1.1546    1.8824    2.0525 C   0  0  2  0  0  0  0  0  0  0  0  0
   -1.0719    0.6333    1.3658 O   0  0  0  0  0  0  0  0  0  0  0  0
   -0.2425    2.9839    1.4984 C   0  0  2  0  0  0  0  0  0  0  0  0
   -0.1324    3.9237    2.5581 O   0  0  0  0  0  0  0  0  0  0  0  0
   -0.7922    3.6957    0.2568 C   0  0  0  0  0  0  0  0  0  0  0  0
   -0.8884    2.8188   -0.8455 O   0  0  0  0  0  0  0  0  0  0  0  0
   -1.8384   -0.4180    1.9499 C   0  0  2  0  0  0  0  0  0  0  0  0
   -1.5214   -1.7785    1.3107 C   0  0  2  0  0  0  0  0  0  0  0  0
   -0.0792   -2.0677    1.3766 N   0  0  0  0  0  0  0  0  0  0  0  0
   -2.0435   -1.8481   -0.1323 C   0  0  1  0  0  0  0  0  0  0  0  0
   -1.8011   -3.1467   -0.6380 O   0  0  0  0  0  0  0  0  0  0  0  0
   -3.5539   -1.5579   -0.1176 C   0  0  2  0  0  0  0  0  0  0  0  0
   -4.0791   -1.5673   -1.4323 O   0  0  0  0  0  0  0  0  0  0  0  0
   -3.8511   -0.2104    0.5719 C   0  0  1  0  0  0  0  0  0  0  0  0
   -3.2325   -0.1331    1.8582 O   0  0  0  0  0  0  0  0  0  0  0  0
   -3.5138    1.0075   -0.3010 C   0  0  0  0  0  0  0  0  0  0  0  0
   -3.8484    2.2668    0.3834 N   0  0  0  0  0  0  0  0  0  0  0  0
  1  3  1  0  0  0  0
  1  2  1  6  0  0  0
  3  4  1  6  0  0  0
  5  6  1  1  0  0  0
  5  3  1  0  0  0  0
  7  9  1  0  0  0  0
  7  5  1  0  0  0  0
  7  8  1  6  0  0  0
  9 10  1  0  0  0  0
  9 11  1  1  0  0  0
 10  1  1  0  0  0  0
 11 12  1  0  0  0  0
 13 14  1  6  0  0  0
 13 21  1  0  0  0  0
 15 13  1  0  0  0  0
 16 15  1  0  0  0  0
 16 18  1  0  0  0  0
 16 17  1  6  0  0  0
 18  2  1  1  0  0  0
 18 19  1  0  0  0  0
 19 21  1  0  0  0  0
 19 20  1  6  0  0  0
 21 22  1  1  0  0  0
 23 20  1  6  0  0  0
 23 29  1  0  0  0  0
 23 24  1  0  0  0  0
 24 26  1  0  0  0  0
 24 25  1  6  0  0  0
 26 27  1  6  0  0  0
 28 26  1  0  0  0  0
 28 30  1  6  0  0  0
 29 28  1  0  0  0  0
 30 31  1  0  0  0  0
 32 27  1  6  0  0  0
 32 40  1  0  0  0  0
 32 33  1  0  0  0  0
 33 35  1  0  0  0  0
 33 34  1  6  0  0  0
 35 37  1  0  0  0  0
 35 36  1  1  0  0  0
 37 38  1  6  0  0  0
 39 37  1  0  0  0  0
 39 41  1  6  0  0  0
 40 39  1  0  0  0  0
 42 41  1  0  0  0  0
M  END
>  <CHROM.1>
60.41932194,-168.85486044,67.87797435,-70.49129779,75.43698674,-173.60948595
57.94444005,58.65414992,-179.77197528,-43.69866181,172.90528024,-50.83383958
-178.22685358,61.44528126,-170.34058009,-65.09191004,167.23821921,-30.94981519
59.12124452,179.25191692,178.42717167,166.81140507,-1.37481396,2.55408001
3.95707168,0.31557865,1.35454261,2.15778747

>  <Name>
lig.pdb

>  <RI>
0

>  <Rbt.Current_Directory>
/home/itssahil/PROJECTS/Mol_Feturizer/New_Systems/rnas/2mxs

>  <Rbt.Executable>
rbdock ($Id: //depot/dev/client3/rdock/2013.1/src/exe/rbdock.cxx#4 $)

>  <Rbt.Library>
libRbt.so (2013.1, Build901 2013/11/27)

>  <Rbt.Parameter_File>
/export/apps/rDock/src/rDock_2013.1_src/data/scripts/dock_solv.prm

>  <Rbt.Receptor>
prm/pocket_docking_4.prm

>  <SCORE>
-48.1735

>  <SCORE.INTER>
-43.4093

>  <SCORE.INTER.CONST>
1

>  <SCORE.INTER.POLAR>
-7.39146

>  <SCORE.INTER.ROT>
9

>  <SCORE.INTER.SOLV>
18.7526

>  <SCORE.INTER.VDW>
-20.1522

>  <SCORE.INTER.norm>
-1.03355

>  <SCORE.INTRA>
-4.76421

>  <SCORE.INTRA.DIHEDRAL>
-21.3216

>  <SCORE.INTRA.DIHEDRAL.0>
30.1357

>  <SCORE.INTRA.POLAR>
0.544562

>  <SCORE.INTRA.POLAR.0>
-0.631696

>  <SCORE.INTRA.REPUL>
0

>  <SCORE.INTRA.REPUL.0>
0

>  <SCORE.INTRA.SOLV>
0.593221

>  <SCORE.INTRA.SOLV.lig_0>
-55.904

>  <SCORE.INTRA.VDW>
3.74849

>  <SCORE.INTRA.VDW.0>
-8.21197

>  <SCORE.INTRA.norm>
-0.113433

>  <SCORE.RESTR>
0

>  <SCORE.RESTR.CAVITY>
0

>  <SCORE.RESTR.norm>
0

>  <SCORE.SYSTEM>
0

>  <SCORE.SYSTEM.CONST>
0

>  <SCORE.SYSTEM.DIHEDRAL>
0

>  <SCORE.SYSTEM.SOLV>
0

>  <SCORE.SYSTEM.norm>
0

>  <SCORE.heavy>
42

>  <SCORE.norm>
-1.14699

>  <RMSD>
8.830

$$$$
lig.pdb
 OpenBabel11021811453D
libRbt.so/2013.1/901 2013/11/27
 42 45  0  0  0  0  0  0  0  0999 V2000
   -0.8367    4.3082    6.8245 C   0  0  2  0  0  0  0  0  0  0  0  0
   -1.0738    5.7101    6.6832 O   0  0  0  0  0  0  0  0  0  0  0  0
   -1.8417    3.6791    7.8012 C   0  0  2  0  0  0  0  0  0  0  0  0
   -3.2287    3.9684    7.3925 N   0  0  0  0  0  0  0  0  0  0  0  0
   -1.5811    4.1503    9.2378 C   0  0  1  0  0  0  0  0  0  0  0  0
   -2.4212    3.4377   10.1254 O   0  0  0  0  0  0  0  0  0  0  0  0
   -0.1134    3.9063    9.6198 C   0  0  2  0  0  0  0  0  0  0  0  0
    0.1449    4.4886   10.8830 O   0  0  0  0  0  0  0  0  0  0  0  0
    0.8498    4.4927    8.5678 C   0  0  2  0  0  0  0  0  0  0  0  0
    0.5007    4.0631    7.2523 O   0  0  0  0  0  0  0  0  0  0  0  0
    2.2760    4.0201    8.9082 C   0  0  0  0  0  0  0  0  0  0  0  0
    3.2664    4.5675    7.9973 O   0  0  0  0  0  0  0  0  0  0  0  0
   -1.5895    8.0821    3.1281 C   0  0  2  0  0  0  0  0  0  0  0  0
   -1.2383    8.4669    1.7465 N   0  0  0  0  0  0  0  0  0  0  0  0
   -0.3921    8.2898    4.0589 C   0  0  0  0  0  0  0  0  0  0  0  0
   -0.7004    7.7640    5.4558 C   0  0  2  0  0  0  0  0  0  0  0  0
    0.4150    8.0558    6.3649 N   0  0  0  0  0  0  0  0  0  0  0  0
   -0.9849    6.2472    5.3555 C   0  0  2  0  0  0  0  0  0  0  0  0
   -2.2477    6.0528    4.5789 C   0  0  2  0  0  0  0  0  0  0  0  0
   -2.5117    4.6625    4.5348 O   0  0  0  0  0  0  0  0  0  0  0  0
   -2.0815    6.6236    3.1832 C   0  0  1  0  0  0  0  0  0  0  0  0
   -3.2767    6.5420    2.4297 O   0  0  0  0  0  0  0  0  0  0  0  0
   -3.6829    4.2314    3.8497 C   0  0  1  0  0  0  0  0  0  0  0  0
   -3.2392    3.4600    2.6049 C   0  0  2  0  0  0  0  0  0  0  0  0
   -4.1446    3.7165    1.5479 O   0  0  0  0  0  0  0  0  0  0  0  0
   -3.2811    2.0034    3.0863 C   0  0  2  0  0  0  0  0  0  0  0  0
   -3.3783    1.0682    2.0117 O   0  0  0  0  0  0  0  0  0  0  0  0
   -4.5093    2.0616    4.0029 C   0  0  2  0  0  0  0  0  0  0  0  0
   -4.4030    3.3146    4.6640 O   0  0  0  0  0  0  0  0  0  0  0  0
   -4.5678    0.9473    5.0543 C   0  0  0  0  0  0  0  0  0  0  0  0
   -5.7150    1.0610    5.8692 O   0  0  0  0  0  0  0  0  0  0  0  0
   -3.8686   -0.2179    2.3856 C   0  0  2  0  0  0  0  0  0  0  0  0
   -2.8106   -1.3131    2.1825 C   0  0  2  0  0  0  0  0  0  0  0  0
   -1.5683   -0.9845    2.9013 N   0  0  0  0  0  0  0  0  0  0  0  0
   -2.5479   -1.5600    0.6893 C   0  0  1  0  0  0  0  0  0  0  0  0
   -1.6343   -2.6324    0.5629 O   0  0  0  0  0  0  0  0  0  0  0  0
   -3.8824   -1.9175    0.0133 C   0  0  2  0  0  0  0  0  0  0  0  0
   -3.7032   -2.1136   -1.3773 O   0  0  0  0  0  0  0  0  0  0  0  0
   -4.9425   -0.8270    0.2716 C   0  0  1  0  0  0  0  0  0  0  0  0
   -5.0588   -0.5299    1.6650 O   0  0  0  0  0  0  0  0  0  0  0  0
   -4.7294    0.4404   -0.5693 C   0  0  0  0  0  0  0  0  0  0  0  0
   -4.6743    0.1273   -2.0064 N   0  0  0  0  0  0  0  0  0  0  0  0
  1  3  1  0  0  0  0
  1  2  1  1  0  0  0
  3  4  1  6  0  0  0
  5  6  1  1  0  0  0
  5  3  1  0  0  0  0
  7  9  1  0  0  0  0
  7  5  1  0  0  0  0
  7  8  1  1  0  0  0
  9 10  1  0  0  0  0
  9 11  1  1  0  0  0
 10  1  1  0  0  0  0
 11 12  1  0  0  0  0
 13 14  1  6  0  0  0
 13 21  1  0  0  0  0
 15 13  1  0  0  0  0
 16 15  1  0  0  0  0
 16 18  1  0  0  0  0
 16 17  1  1  0  0  0
 18  2  1  1  0  0  0
 18 19  1  0  0  0  0
 19 21  1  0  0  0  0
 19 20  1  6  0  0  0
 21 22  1  1  0  0  0
 23 20  1  1  0  0  0
 23 29  1  0  0  0  0
 23 24  1  0  0  0  0
 24 26  1  0  0  0  0
 24 25  1  6  0  0  0
 26 27  1  6  0  0  0
 28 26  1  0  0  0  0
 28 30  1  1  0  0  0
 29 28  1  0  0  0  0
 30 31  1  0  0  0  0
 32 27  1  6  0  0  0
 32 40  1  0  0  0  0
 32 33  1  0  0  0  0
 33 35  1  0  0  0  0
 33 34  1  1  0  0  0
 35 37  1  0  0  0  0
 35 36  1  1  0  0  0
 37 38  1  6  0  0  0
 39 37  1  0  0  0  0
 39 41  1  6  0  0  0
 40 39  1  0  0  0  0
 42 41  1  0  0  0  0
M  END
>  <CHROM.1>
-157.46337452,-138.17131461,159.59212563,-168.22865960,166.78873678,-171.75973891
-177.75389776,-84.21485175,23.66683731,179.49135415,112.61625765,-59.29821160
57.79439786,-159.70507051,-115.60548058,179.65473506,-55.18136767,58.59339423
-174.13811846,172.74140643,55.52082863,59.98431340,-2.25780459,3.13045640
4.31447163,-0.24358633,1.18173922,2.68363796

>  <Name>
lig.pdb

>  <RI>
3.99633e+07

>  <Rbt.Current_Directory>
/home/itssahil/PROJECTS/Mol_Feturizer/New_Systems/rnas/2mxs

>  <Rbt.Executable>
rbdock ($Id: //depot/dev/client3/rdock/2013.1/src/exe/rbdock.cxx#4 $)

>  <Rbt.Library>
libRbt.so (2013.1, Build901 2013/11/27)

>  <Rbt.Parameter_File>
/export/apps/rDock/src/rDock_2013.1_src/data/scripts/dock_solv.prm

>  <Rbt.Receptor>
prm/pocket_docking_5.prm

>  <SCORE>
-42.083

>  <SCORE.INTER>
-40.8561

>  <SCORE.INTER.CONST>
1

>  <SCORE.INTER.POLAR>
-5.95468

>  <SCORE.INTER.ROT>
9

>  <SCORE.INTER.SOLV>
19.8356

>  <SCORE.INTER.VDW>
-23.6003

>  <SCORE.INTER.norm>
-0.972765

>  <SCORE.INTRA>
-1.22686

>  <SCORE.INTRA.DIHEDRAL>
1.3231

>  <SCORE.INTRA.DIHEDRAL.0>
30.1357

>  <SCORE.INTRA.POLAR>
-1.7745

>  <SCORE.INTRA.POLAR.0>
-0.631696

>  <SCORE.INTRA.REPUL>
0

>  <SCORE.INTRA.REPUL.0>
0

>  <SCORE.INTRA.SOLV>
-0.0053045

>  <SCORE.INTRA.SOLV.lig_0>
-55.904

>  <SCORE.INTRA.VDW>
4.14755

>  <SCORE.INTRA.VDW.0>
-8.21197

>  <SCORE.INTRA.norm>
-0.029211

>  <SCORE.RESTR>
0

>  <SCORE.RESTR.CAVITY>
0

>  <SCORE.RESTR.norm>
0

>  <SCORE.SYSTEM>
0

>  <SCORE.SYSTEM.CONST>
0

>  <SCORE.SYSTEM.DIHEDRAL>
0

>  <SCORE.SYSTEM.SOLV>
0

>  <SCORE.SYSTEM.norm>
0

>  <SCORE.heavy>
42

>  <SCORE.norm>
-1.00198

>  <RMSD>
8.837

$$$$
lig.pdb
 OpenBabel11021811453D
libRbt.so/2013.1/901 2013/11/27
 42 45  0  0  0  0  0  0  0  0999 V2000
    0.0234    4.0318    7.8213 C   0  0  2  0  0  0  0  0  0  0  0  0
    0.8331    4.0750    6.6449 O   0  0  0  0  0  0  0  0  0  0  0  0
    0.7153    3.2281    8.9326 C   0  0  2  0  0  0  0  0  0  0  0  0
    2.0640    3.7573    9.2070 N   0  0  0  0  0  0  0  0  0  0  0  0
    0.7704    1.7362    8.5793 C   0  0  1  0  0  0  0  0  0  0  0  0
    1.2725    1.0100    9.6848 O   0  0  0  0  0  0  0  0  0  0  0  0
   -0.6331    1.2206    8.2268 C   0  0  2  0  0  0  0  0  0  0  0  0
   -0.5384   -0.1090    7.7531 O   0  0  0  0  0  0  0  0  0  0  0  0
   -1.3103    2.1072    7.1622 C   0  0  2  0  0  0  0  0  0  0  0  0
   -1.2605    3.4852    7.5305 O   0  0  0  0  0  0  0  0  0  0  0  0
   -2.7775    1.6574    7.0272 C   0  0  0  0  0  0  0  0  0  0  0  0
   -3.6149    2.6891    6.4400 O   0  0  0  0  0  0  0  0  0  0  0  0
   -0.9365    7.3870    4.5400 C   0  0  2  0  0  0  0  0  0  0  0  0
   -1.0239    8.3179    3.3973 N   0  0  0  0  0  0  0  0  0  0  0  0
    0.4255    7.5145    5.2271 C   0  0  0  0  0  0  0  0  0  0  0  0
    0.5774    6.4607    6.3177 C   0  0  2  0  0  0  0  0  0  0  0  0
    1.8437    6.6530    7.0355 N   0  0  0  0  0  0  0  0  0  0  0  0
    0.4888    5.0628    5.6625 C   0  0  2  0  0  0  0  0  0  0  0  0
   -0.8961    4.8759    5.1309 C   0  0  2  0  0  0  0  0  0  0  0  0
   -0.9675    3.5764    4.5736 O   0  0  0  0  0  0  0  0  0  0  0  0
   -1.1893    5.9368    4.0869 C   0  0  1  0  0  0  0  0  0  0  0  0
   -2.5193    5.8590    3.6091 O   0  0  0  0  0  0  0  0  0  0  0  0
   -0.0010    3.2227    3.5899 C   0  0  1  0  0  0  0  0  0  0  0  0
   -0.5797    2.0774    2.7565 C   0  0  2  0  0  0  0  0  0  0  0  0
    0.4607    1.1881    2.3968 O   0  0  0  0  0  0  0  0  0  0  0  0
   -1.1777    2.8150    1.5509 C   0  0  2  0  0  0  0  0  0  0  0  0
   -1.3483    1.9688    0.4135 O   0  0  0  0  0  0  0  0  0  0  0  0
   -0.1359    3.9269    1.3762 C   0  0  2  0  0  0  0  0  0  0  0  0
    0.1986    4.3149    2.7014 O   0  0  0  0  0  0  0  0  0  0  0  0
   -0.6429    5.1547    0.6109 C   0  0  0  0  0  0  0  0  0  0  0  0
   -0.9899    4.8319   -0.7190 O   0  0  0  0  0  0  0  0  0  0  0  0
   -2.6234    2.0708   -0.2172 C   0  0  2  0  0  0  0  0  0  0  0  0
   -3.7157    1.3455    0.5833 C   0  0  2  0  0  0  0  0  0  0  0  0
   -3.7645    1.8358    1.9709 N   0  0  0  0  0  0  0  0  0  0  0  0
   -3.5221   -0.1775    0.5316 C   0  0  1  0  0  0  0  0  0  0  0  0
   -4.6000   -0.7930    1.2097 O   0  0  0  0  0  0  0  0  0  0  0  0
   -3.5033   -0.6155   -0.9428 C   0  0  2  0  0  0  0  0  0  0  0  0
   -3.2836   -2.0101   -1.0487 O   0  0  0  0  0  0  0  0  0  0  0  0
   -2.4321    0.1607   -1.7364 C   0  0  1  0  0  0  0  0  0  0  0  0
   -2.5643    1.5720   -1.5517 O   0  0  0  0  0  0  0  0  0  0  0  0
   -1.0007   -0.3225   -1.4601 C   0  0  0  0  0  0  0  0  0  0  0  0
   -0.0503    0.2287   -2.4396 N   0  0  0  0  0  0  0  0  0  0  0  0
  1  3  1  0  0  0  0
  1  2  1  6  0  0  0
  3  4  1  6  0  0  0
  5  6  1  1  0  0  0
  5  3  1  0  0  0  0
  7  9  1  0  0  0  0
  7  5  1  0  0  0  0
  7  8  1  6  0  0  0
  9 10  1  0  0  0  0
  9 11  1  1  0  0  0
 10  1  1  0  0  0  0
 11 12  1  0  0  0  0
 13 14  1  6  0  0  0
 13 21  1  0  0  0  0
 15 13  1  0  0  0  0
 16 15  1  0  0  0  0
 16 18  1  0  0  0  0
 16 17  1  6  0  0  0
 18  2  1  1  0  0  0
 18 19  1  0  0  0  0
 19 21  1  0  0  0  0
 19 20  1  6  0  0  0
 21 22  1  1  0  0  0
 23 20  1  1  0  0  0
 23 29  1  0  0  0  0
 23 24  1  0  0  0  0
 24 26  1  0  0  0  0
 24 25  1  6  0  0  0
 26 27  1  6  0  0  0
 28 26  1  0  0  0  0
 28 30  1  6  0  0  0
 29 28  1  0  0  0  0
 30 31  1  0  0  0  0
 32 27  1  1  0  0  0
 32 40  1  0  0  0  0
 32 33  1  0  0  0  0
 33 35  1  0  0  0  0
 33 34  1  1  0  0  0
 35 37  1  0  0  0  0
 35 36  1  1  0  0  0
 37 38  1  1  0  0  0
 39 37  1  0  0  0  0
 39 41  1  1  0  0  0
 40 39  1  0  0  0  0
 42 41  1  0  0  0  0
M  END
>  <CHROM.1>
59.34889977,-164.22485778,61.92210341,-177.62538456,-55.97568760,175.74831268
159.26579778,178.96093083,-122.87882544,-54.29299014,-157.46024070,71.17391157
-52.21980051,132.73128458,-75.93270302,-63.51819301,174.38229245,164.79867412
-62.59681926,-43.35722765,167.50260208,175.44929349,-1.04229697,2.92063330
3.66028128,0.46716625,1.24314047,2.26250811

>  <Name>
lig.pdb

>  <RI>
0

>  <Rbt.Current_Directory>
/home/itssahil/PROJECTS/Mol_Feturizer/New_Systems/rnas/2mxs

>  <Rbt.Executable>
rbdock ($Id: //depot/dev/client3/rdock/2013.1/src/exe/rbdock.cxx#4 $)

>  <Rbt.Library>
libRbt.so (2013.1, Build901 2013/11/27)

>  <Rbt.Parameter_File>
/export/apps/rDock/src/rDock_2013.1_src/data/scripts/dock_solv.prm

>  <Rbt.Receptor>
prm/pocket_docking_3.prm

>  <SCORE>
-36.1019

>  <SCORE.INTER>
-40.2475

>  <SCORE.INTER.CONST>
1

>  <SCORE.INTER.POLAR>
-5.10328

>  <SCORE.INTER.ROT>
9

>  <SCORE.INTER.SOLV>
18.2601

>  <SCORE.INTER.VDW>
-25.5075

>  <SCORE.INTER.norm>
-0.958274

>  <SCORE.INTRA>
3.42616

>  <SCORE.INTRA.DIHEDRAL>
-9.6978

>  <SCORE.INTRA.DIHEDRAL.0>
30.1357

>  <SCORE.INTRA.POLAR>
0.618842

>  <SCORE.INTRA.POLAR.0>
-0.631696

>  <SCORE.INTRA.REPUL>
0.00481042

>  <SCORE.INTRA.REPUL.0>
0

>  <SCORE.INTRA.SOLV>
0.254082

>  <SCORE.INTRA.SOLV.lig_0>
-55.904

>  <SCORE.INTRA.VDW>
6.0199

>  <SCORE.INTRA.VDW.0>
-8.21197

>  <SCORE.INTRA.norm>
0.0815751

>  <SCORE.RESTR>
0.719425

>  <SCORE.RESTR.CAVITY>
0.719425

>  <SCORE.RESTR.norm>
0.0171292

>  <SCORE.SYSTEM>
0

>  <SCORE.SYSTEM.CONST>
0

>  <SCORE.SYSTEM.DIHEDRAL>
0

>  <SCORE.SYSTEM.SOLV>
0

>  <SCORE.SYSTEM.norm>
0

>  <SCORE.heavy>
42

>  <SCORE.norm>
-0.859569

>  <RMSD>
8.849

$$$$
lig.pdb
 OpenBabel11021811453D
libRbt.so/2013.1/901 2013/11/27
 42 45  0  0  0  0  0  0  0  0999 V2000
   -2.5451   -1.2697    4.4321 C   0  0  2  0  0  0  0  0  0  0  0  0
   -3.2892   -2.4109    4.8627 O   0  0  0  0  0  0  0  0  0  0  0  0
   -1.0824   -1.6448    4.1500 C   0  0  2  0  0  0  0  0  0  0  0  0
   -0.9980   -2.7575    3.1861 N   0  0  0  0  0  0  0  0  0  0  0  0
   -0.3414   -1.9843    5.4496 C   0  0  1  0  0  0  0  0  0  0  0  0
    1.0326   -2.1745    5.1708 O   0  0  0  0  0  0  0  0  0  0  0  0
   -0.5013   -0.8444    6.4668 C   0  0  2  0  0  0  0  0  0  0  0  0
    0.0514   -1.2420    7.7069 O   0  0  0  0  0  0  0  0  0  0  0  0
   -1.9824   -0.4582    6.6552 C   0  0  2  0  0  0  0  0  0  0  0  0
   -2.6187   -0.2250    5.3990 O   0  0  0  0  0  0  0  0  0  0  0  0
   -2.0386    0.8207    7.5122 C   0  0  0  0  0  0  0  0  0  0  0  0
   -3.3468    1.0220    8.1107 O   0  0  0  0  0  0  0  0  0  0  0  0
   -6.3761   -4.3940    2.6111 C   0  0  2  0  0  0  0  0  0  0  0  0
   -7.7078   -4.4450    1.9754 N   0  0  0  0  0  0  0  0  0  0  0  0
   -6.5142   -4.1573    4.1171 C   0  0  0  0  0  0  0  0  0  0  0  0
   -5.1451   -3.9630    4.7579 C   0  0  2  0  0  0  0  0  0  0  0  0
   -5.2805   -3.8349    6.2143 N   0  0  0  0  0  0  0  0  0  0  0  0
   -4.4817   -2.7174    4.1256 C   0  0  2  0  0  0  0  0  0  0  0  0
   -4.2001   -3.0100    2.6867 C   0  0  2  0  0  0  0  0  0  0  0  0
   -3.5562   -1.8746    2.1384 O   0  0  0  0  0  0  0  0  0  0  0  0
   -5.4997   -3.3062    1.9623 C   0  0  1  0  0  0  0  0  0  0  0  0
   -5.2842   -3.6730    0.6125 O   0  0  0  0  0  0  0  0  0  0  0  0
   -4.3734   -0.7860    1.7211 C   0  0  1  0  0  0  0  0  0  0  0  0
   -3.5622    0.5001    1.8926 C   0  0  2  0  0  0  0  0  0  0  0  0
   -4.4241    1.5465    2.2987 O   0  0  0  0  0  0  0  0  0  0  0  0
   -2.9829    0.7154    0.4879 C   0  0  2  0  0  0  0  0  0  0  0  0
   -2.5932    2.0686    0.2515 O   0  0  0  0  0  0  0  0  0  0  0  0
   -4.1612    0.2262   -0.3633 C   0  0  2  0  0  0  0  0  0  0  0  0
   -4.6594   -0.9072    0.3334 O   0  0  0  0  0  0  0  0  0  0  0  0
   -3.7816   -0.1925   -1.7885 C   0  0  0  0  0  0  0  0  0  0  0  0
   -4.8919   -0.1402   -2.6590 O   0  0  0  0  0  0  0  0  0  0  0  0
   -1.4363    2.4884    0.9722 C   0  0  2  0  0  0  0  0  0  0  0  0
   -0.9388    3.8637    0.5016 C   0  0  2  0  0  0  0  0  0  0  0  0
   -2.0128    4.8676    0.5821 N   0  0  0  0  0  0  0  0  0  0  0  0
   -0.3478    3.7848   -0.9140 C   0  0  1  0  0  0  0  0  0  0  0  0
    0.1699    5.0552   -1.2586 O   0  0  0  0  0  0  0  0  0  0  0  0
    0.7772    2.7358   -0.9136 C   0  0  2  0  0  0  0  0  0  0  0  0
    1.3291    2.5921   -2.2094 O   0  0  0  0  0  0  0  0  0  0  0  0
    0.2658    1.3771   -0.3920 C   0  0  1  0  0  0  0  0  0  0  0  0
   -0.3988    1.5161    0.8659 O   0  0  0  0  0  0  0  0  0  0  0  0
   -0.5928    0.6169   -1.4136 C   0  0  0  0  0  0  0  0  0  0  0  0
    0.2433   -0.1431   -2.3568 N   0  0  0  0  0  0  0  0  0  0  0  0
  1  3  1  0  0  0  0
  1  2  1  1  0  0  0
  3  4  1  6  0  0  0
  5  6  1  6  0  0  0
  5  3  1  0  0  0  0
  7  9  1  0  0  0  0
  7  5  1  0  0  0  0
  7  8  1  1  0  0  0
  9 10  1  0  0  0  0
  9 11  1  1  0  0  0
 10  1  1  0  0  0  0
 11 12  1  0  0  0  0
 13 14  1  6  0  0  0
 13 21  1  0  0  0  0
 15 13  1  0  0  0  0
 16 15  1  0  0  0  0
 16 18  1  0  0  0  0
 16 17  1  1  0  0  0
 18  2  1  1  0  0  0
 18 19  1  0  0  0  0
 19 21  1  0  0  0  0
 19 20  1  6  0  0  0
 21 22  1  6  0  0  0
 23 20  1  6  0  0  0
 23 29  1  0  0  0  0
 23 24  1  0  0  0  0
 24 26  1  0  0  0  0
 24 25  1  6  0  0  0
 26 27  1  6  0  0  0
 28 26  1  0  0  0  0
 28 30  1  6  0  0  0
 29 28  1  0  0  0  0
 30 31  1  0  0  0  0
 32 27  1  6  0  0  0
 32 40  1  0  0  0  0
 32 33  1  0  0  0  0
 33 35  1  0  0  0  0
 33 34  1  6  0  0  0
 35 37  1  0  0  0  0
 35 36  1  1  0  0  0
 37 38  1  6  0  0  0
 39 37  1  0  0  0  0
 39 41  1  6  0  0  0
 40 39  1  0  0  0  0
 42 41  1  0  0  0  0
M  END
>  <CHROM.1>
-179.16707039,-125.50519085,168.20142762,63.71104061,55.49937190,-63.91506241
-161.07770831,-45.51902289,-97.20843951,-82.09337809,149.96413126,61.65410817
64.16666205,70.73175943,170.58693159,-157.53421415,-60.87318261,48.87430895
-160.66940662,177.33005442,83.64590831,-156.19871966,-2.61543764,-0.38869174
2.26579836,-2.10206893,-0.72242801,-1.21939464

>  <Name>
lig.pdb

>  <RI>
4.11275e+07

>  <Rbt.Current_Directory>
/home/itssahil/PROJECTS/Mol_Feturizer/New_Systems/rnas/2mxs

>  <Rbt.Executable>
rbdock ($Id: //depot/dev/client3/rdock/2013.1/src/exe/rbdock.cxx#4 $)

>  <Rbt.Library>
libRbt.so (2013.1, Build901 2013/11/27)

>  <Rbt.Parameter_File>
/export/apps/rDock/src/rDock_2013.1_src/data/scripts/dock_solv.prm

>  <Rbt.Receptor>
prm/pocket_docking_8.prm

>  <SCORE>
-50.2025

>  <SCORE.INTER>
-53.0288

>  <SCORE.INTER.CONST>
1

>  <SCORE.INTER.POLAR>
-7.59127

>  <SCORE.INTER.ROT>
9

>  <SCORE.INTER.SOLV>
24.246

>  <SCORE.INTER.VDW>
-27.7303

>  <SCORE.INTER.norm>
-1.26259

>  <SCORE.INTRA>
2.77801

>  <SCORE.INTRA.DIHEDRAL>
-4.27805

>  <SCORE.INTRA.DIHEDRAL.0>
30.1357

>  <SCORE.INTRA.POLAR>
-0.0813487

>  <SCORE.INTRA.POLAR.0>
-0.631696

>  <SCORE.INTRA.REPUL>
0

>  <SCORE.INTRA.REPUL.0>
0

>  <SCORE.INTRA.SOLV>
-1.28963

>  <SCORE.INTRA.SOLV.lig_0>
-55.904

>  <SCORE.INTRA.VDW>
5.83844

>  <SCORE.INTRA.VDW.0>
-8.21197

>  <SCORE.INTRA.norm>
0.0661432

>  <SCORE.RESTR>
0.0482775

>  <SCORE.RESTR.CAVITY>
0.0482775

>  <SCORE.RESTR.norm>
0.00114946

>  <SCORE.SYSTEM>
0

>  <SCORE.SYSTEM.CONST>
0

>  <SCORE.SYSTEM.DIHEDRAL>
0

>  <SCORE.SYSTEM.SOLV>
0

>  <SCORE.SYSTEM.norm>
0

>  <SCORE.heavy>
42

>  <SCORE.norm>
-1.1953

>  <RMSD>
8.850

$$$$
lig.pdb
 OpenBabel11021811453D
libRbt.so/2013.1/901 2013/11/27
 42 45  0  0  0  0  0  0  0  0999 V2000
   -0.8603    3.4659    7.1592 C   0  0  2  0  0  0  0  0  0  0  0  0
   -1.5112    4.7351    7.0766 O   0  0  0  0  0  0  0  0  0  0  0  0
   -1.2608    2.7283    8.4458 C   0  0  2  0  0  0  0  0  0  0  0  0
   -2.7266    2.6074    8.5520 N   0  0  0  0  0  0  0  0  0  0  0  0
   -0.6742    3.4214    9.6823 C   0  0  1  0  0  0  0  0  0  0  0  0
   -0.9331    2.6342   10.8290 O   0  0  0  0  0  0  0  0  0  0  0  0
    0.8427    3.6027    9.5213 C   0  0  2  0  0  0  0  0  0  0  0  0
    1.3380    4.3808   10.5940 O   0  0  0  0  0  0  0  0  0  0  0  0
    1.1921    4.2796    8.1804 C   0  0  2  0  0  0  0  0  0  0  0  0
    0.5550    3.6189    7.0874 O   0  0  0  0  0  0  0  0  0  0  0  0
    2.7212    4.2259    8.0010 C   0  0  0  0  0  0  0  0  0  0  0  0
    3.1867    5.1558    6.9866 O   0  0  0  0  0  0  0  0  0  0  0  0
   -1.5504    7.6543    3.9132 C   0  0  2  0  0  0  0  0  0  0  0  0
   -0.9080    8.4128    2.8212 N   0  0  0  0  0  0  0  0  0  0  0  0
   -0.8378    7.9259    5.2404 C   0  0  0  0  0  0  0  0  0  0  0  0
   -1.4039    7.0409    6.3446 C   0  0  2  0  0  0  0  0  0  0  0  0
   -0.7835    7.3774    7.6321 N   0  0  0  0  0  0  0  0  0  0  0  0
   -1.1677    5.5629    5.9559 C   0  0  2  0  0  0  0  0  0  0  0  0
   -1.9925    5.2535    4.7478 C   0  0  2  0  0  0  0  0  0  0  0  0
   -1.7942    3.8871    4.4343 O   0  0  0  0  0  0  0  0  0  0  0  0
   -1.5678    6.1468    3.5976 C   0  0  1  0  0  0  0  0  0  0  0  0
   -2.3736    5.9548    2.4500 O   0  0  0  0  0  0  0  0  0  0  0  0
   -2.8327    3.2099    3.7345 C   0  0  1  0  0  0  0  0  0  0  0  0
   -2.4410    3.1540    2.2564 C   0  0  2  0  0  0  0  0  0  0  0  0
   -3.6025    3.2874    1.4590 O   0  0  0  0  0  0  0  0  0  0  0  0
   -1.7923    1.7682    2.1385 C   0  0  2  0  0  0  0  0  0  0  0  0
   -1.7754    1.2774    0.7977 O   0  0  0  0  0  0  0  0  0  0  0  0
   -2.6820    0.9752    3.1037 C   0  0  2  0  0  0  0  0  0  0  0  0
   -2.9157    1.8643    4.1869 O   0  0  0  0  0  0  0  0  0  0  0  0
   -2.0427   -0.3096    3.6432 C   0  0  0  0  0  0  0  0  0  0  0  0
   -2.9149   -0.9987    4.5136 O   0  0  0  0  0  0  0  0  0  0  0  0
   -0.7539    0.3192    0.5283 C   0  0  2  0  0  0  0  0  0  0  0  0
    0.6133    0.9869    0.3165 C   0  0  2  0  0  0  0  0  0  0  0  0
    0.9672    1.8375    1.4651 N   0  0  0  0  0  0  0  0  0  0  0  0
    0.6461    1.7777   -1.0000 C   0  0  1  0  0  0  0  0  0  0  0  0
    1.9494    2.2959   -1.1831 O   0  0  0  0  0  0  0  0  0  0  0  0
    0.2889    0.8215   -2.1506 C   0  0  2  0  0  0  0  0  0  0  0  0
    0.2626    1.5119   -3.3864 O   0  0  0  0  0  0  0  0  0  0  0  0
   -1.0641    0.1270   -1.8924 C   0  0  1  0  0  0  0  0  0  0  0  0
   -1.1017   -0.4811   -0.5993 O   0  0  0  0  0  0  0  0  0  0  0  0
   -2.2737    1.0427   -2.1311 C   0  0  0  0  0  0  0  0  0  0  0  0
   -3.4778    0.5263   -1.4604 N   0  0  0  0  0  0  0  0  0  0  0  0
  1  3  1  0  0  0  0
  1  2  1  1  0  0  0
  3  4  1  1  0  0  0
  5  6  1  1  0  0  0
  5  3  1  0  0  0  0
  7  9  1  0  0  0  0
  7  5  1  0  0  0  0
  7  8  1  1  0  0  0
  9 10  1  0  0  0  0
  9 11  1  6  0  0  0
 10  1  1  0  0  0  0
 11 12  1  0  0  0  0
 13 14  1  6  0  0  0
 13 21  1  0  0  0  0
 15 13  1  0  0  0  0
 16 15  1  0  0  0  0
 16 18  1  0  0  0  0
 16 17  1  1  0  0  0
 18  2  1  1  0  0  0
 18 19  1  0  0  0  0
 19 21  1  0  0  0  0
 19 20  1  6  0  0  0
 21 22  1  6  0  0  0
 23 20  1  1  0  0  0
 23 29  1  0  0  0  0
 23 24  1  0  0  0  0
 24 26  1  0  0  0  0
 24 25  1  6  0  0  0
 26 27  1  6  0  0  0
 28 26  1  0  0  0  0
 28 30  1  1  0  0  0
 29 28  1  0  0  0  0
 30 31  1  0  0  0  0
 32 27  1  6  0  0  0
 32 40  1  0  0  0  0
 32 33  1  0  0  0  0
 33 35  1  0  0  0  0
 33 34  1  1  0  0  0
 35 37  1  0  0  0  0
 35 36  1  6  0  0  0
 37 38  1  6  0  0  0
 39 37  1  0  0  0  0
 39 41  1  1  0  0  0
 40 39  1  0  0  0  0
 42 41  1  0  0  0  0
M  END
>  <CHROM.1>
-153.96222851,176.66777988,62.36058413,59.52823053,-57.37322110,-60.50139865
-163.37447116,-171.88281183,62.16245881,153.88802867,99.75224440,-53.03751509
-173.82111131,155.48454225,-78.77979500,-179.42444488,56.99161949,47.48516252
-173.05000034,52.05175248,-160.78800959,-172.97074977,-0.93991424,3.21854296
3.89318072,0.93587965,1.42531736,1.82347087

>  <Name>
lig.pdb

>  <RI>
0

>  <Rbt.Current_Directory>
/home/itssahil/PROJECTS/Mol_Feturizer/New_Systems/rnas/2mxs

>  <Rbt.Executable>
rbdock ($Id: //depot/dev/client3/rdock/2013.1/src/exe/rbdock.cxx#4 $)

>  <Rbt.Library>
libRbt.so (2013.1, Build901 2013/11/27)

>  <Rbt.Parameter_File>
/export/apps/rDock/src/rDock_2013.1_src/data/scripts/dock_solv.prm

>  <Rbt.Receptor>
prm/pocket_docking_3.prm

>  <SCORE>
-29.087

>  <SCORE.INTER>
-26.219

>  <SCORE.INTER.CONST>
1

>  <SCORE.INTER.POLAR>
-3.10696

>  <SCORE.INTER.ROT>
9

>  <SCORE.INTER.SOLV>
15.1683

>  <SCORE.INTER.VDW>
-21.7789

>  <SCORE.INTER.norm>
-0.624262

>  <SCORE.INTRA>
-3.8904

>  <SCORE.INTRA.DIHEDRAL>
-10.3393

>  <SCORE.INTRA.DIHEDRAL.0>
30.1357

>  <SCORE.INTRA.POLAR>
-0.0449341

>  <SCORE.INTRA.POLAR.0>
-0.631696

>  <SCORE.INTRA.REPUL>
0

>  <SCORE.INTRA.REPUL.0>
0

>  <SCORE.INTRA.SOLV>
-1.31972

>  <SCORE.INTRA.SOLV.lig_0>
-55.904

>  <SCORE.INTRA.VDW>
2.09189

>  <SCORE.INTRA.VDW.0>
-8.21197

>  <SCORE.INTRA.norm>
-0.0926285

>  <SCORE.RESTR>
1.02245

>  <SCORE.RESTR.CAVITY>
1.02245

>  <SCORE.RESTR.norm>
0.0243439

>  <SCORE.SYSTEM>
0

>  <SCORE.SYSTEM.CONST>
0

>  <SCORE.SYSTEM.DIHEDRAL>
0

>  <SCORE.SYSTEM.SOLV>
0

>  <SCORE.SYSTEM.norm>
0

>  <SCORE.heavy>
42

>  <SCORE.norm>
-0.692547

>  <RMSD>
8.877

$$$$
lig.pdb
 OpenBabel11021811453D
libRbt.so/2013.1/901 2013/11/27
 42 45  0  0  0  0  0  0  0  0999 V2000
    0.8267    6.5982    7.2574 C   0  0  2  0  0  0  0  0  0  0  0  0
   -0.1527    5.9969    6.4084 O   0  0  0  0  0  0  0  0  0  0  0  0
    1.7519    5.5332    7.8652 C   0  0  2  0  0  0  0  0  0  0  0  0
    2.3656    4.7025    6.8127 N   0  0  0  0  0  0  0  0  0  0  0  0
    0.9987    4.6660    8.8822 C   0  0  1  0  0  0  0  0  0  0  0  0
    1.9122    3.8018    9.5304 O   0  0  0  0  0  0  0  0  0  0  0  0
    0.3068    5.5527    9.9286 C   0  0  2  0  0  0  0  0  0  0  0  0
   -0.5081    4.7482   10.7593 O   0  0  0  0  0  0  0  0  0  0  0  0
   -0.5484    6.6501    9.2633 C   0  0  2  0  0  0  0  0  0  0  0  0
    0.2023    7.3661    8.2831 O   0  0  0  0  0  0  0  0  0  0  0  0
   -1.0252    7.6181   10.3629 C   0  0  0  0  0  0  0  0  0  0  0  0
    0.0720    8.3768   10.9382 O   0  0  0  0  0  0  0  0  0  0  0  0
   -1.0347    6.8101    2.2743 C   0  0  2  0  0  0  0  0  0  0  0  0
   -0.6486    7.2011    0.9037 N   0  0  0  0  0  0  0  0  0  0  0  0
   -0.7165    7.9382    3.2589 C   0  0  0  0  0  0  0  0  0  0  0  0
   -0.9806    7.4906    4.6916 C   0  0  2  0  0  0  0  0  0  0  0  0
   -0.7670    8.6084    5.6194 N   0  0  0  0  0  0  0  0  0  0  0  0
   -0.0573    6.2908    5.0071 C   0  0  2  0  0  0  0  0  0  0  0  0
   -0.4749    5.1353    4.1551 C   0  0  2  0  0  0  0  0  0  0  0  0
    0.3542    4.0373    4.4890 O   0  0  0  0  0  0  0  0  0  0  0  0
   -0.3330    5.5037    2.6904 C   0  0  1  0  0  0  0  0  0  0  0  0
   -0.7948    4.4741    1.8361 O   0  0  0  0  0  0  0  0  0  0  0  0
   -0.2781    2.8301    4.9008 C   0  0  1  0  0  0  0  0  0  0  0  0
   -1.2727    2.4275    3.8099 C   0  0  2  0  0  0  0  0  0  0  0  0
   -2.4137    1.8430    4.4093 O   0  0  0  0  0  0  0  0  0  0  0  0
   -0.4604    1.4293    2.9739 C   0  0  2  0  0  0  0  0  0  0  0  0
   -1.2839    0.5580    2.1983 O   0  0  0  0  0  0  0  0  0  0  0  0
    0.3389    0.7395    4.0863 C   0  0  2  0  0  0  0  0  0  0  0  0
    0.6863    1.7880    4.9798 O   0  0  0  0  0  0  0  0  0  0  0  0
    1.6207    0.0472    3.6086 C   0  0  0  0  0  0  0  0  0  0  0  0
    1.3604   -0.8651    2.5632 O   0  0  0  0  0  0  0  0  0  0  0  0
   -1.0398    0.6034    0.7939 C   0  0  2  0  0  0  0  0  0  0  0  0
   -2.2287    1.2022    0.0271 C   0  0  2  0  0  0  0  0  0  0  0  0
   -2.5775    2.5327    0.5527 N   0  0  0  0  0  0  0  0  0  0  0  0
   -3.4371    0.2542    0.0496 C   0  0  1  0  0  0  0  0  0  0  0  0
   -4.4668    0.8163   -0.7407 O   0  0  0  0  0  0  0  0  0  0  0  0
   -3.0023   -1.1018   -0.5319 C   0  0  2  0  0  0  0  0  0  0  0  0
   -4.0713   -2.0293   -0.4945 O   0  0  0  0  0  0  0  0  0  0  0  0
   -1.7779   -1.6598    0.2226 C   0  0  1  0  0  0  0  0  0  0  0  0
   -0.7252   -0.6956    0.2972 O   0  0  0  0  0  0  0  0  0  0  0  0
   -2.1249   -2.2382    1.6024 C   0  0  0  0  0  0  0  0  0  0  0  0
   -2.5598   -3.6407    1.5019 N   0  0  0  0  0  0  0  0  0  0  0  0
  1  3  1  0  0  0  0
  1  2  1  1  0  0  0
  3  4  1  6  0  0  0
  5  6  1  1  0  0  0
  5  3  1  0  0  0  0
  7  9  1  0  0  0  0
  7  5  1  0  0  0  0
  7  8  1  6  0  0  0
  9 10  1  0  0  0  0
  9 11  1  1  0  0  0
 10  1  1  0  0  0  0
 11 12  1  0  0  0  0
 13 14  1  6  0  0  0
 13 21  1  0  0  0  0
 15 13  1  0  0  0  0
 16 15  1  0  0  0  0
 16 18  1  0  0  0  0
 16 17  1  1  0  0  0
 18  2  1  1  0  0  0
 18 19  1  0  0  0  0
 19 21  1  0  0  0  0
 19 20  1  1  0  0  0
 21 22  1  6  0  0  0
 23 20  1  6  0  0  0
 23 29  1  0  0  0  0
 23 24  1  0  0  0  0
 24 26  1  0  0  0  0
 24 25  1  1  0  0  0
 26 27  1  1  0  0  0
 28 26  1  0  0  0  0
 28 30  1  6  0  0  0
 29 28  1  0  0  0  0
 30 31  1  0  0  0  0
 32 27  1  1  0  0  0
 32 40  1  0  0  0  0
 32 33  1  0  0  0  0
 33 35  1  0  0  0  0
 33 34  1  1  0  0  0
 35 37  1  0  0  0  0
 35 36  1  6  0  0  0
 37 38  1  1  0  0  0
 39 37  1  0  0  0  0
 39 41  1  1  0  0  0
 40 39  1  0  0  0  0
 42 41  1  0  0  0  0
M  END
>  <CHROM.1>
-94.13329477,-113.17404625,106.35089949,-57.60218836,-178.18913492,66.05318292
67.61536057,38.58700902,-169.18834130,124.19518612,54.68441424,68.52642324
69.74548363,122.06240619,-112.63242909,-54.25375542,-81.19771361,-87.12830016
-61.34655878,177.43600620,85.46185279,91.77134690,-0.69933563,3.31182133
4.23936515,0.83972105,-1.22852586,0.11779635

>  <Name>
lig.pdb

>  <RI>
0

>  <Rbt.Current_Directory>
/home/itssahil/PROJECTS/Mol_Feturizer/New_Systems/rnas/2mxs

>  <Rbt.Executable>
rbdock ($Id: //depot/dev/client3/rdock/2013.1/src/exe/rbdock.cxx#4 $)

>  <Rbt.Library>
libRbt.so (2013.1, Build901 2013/11/27)

>  <Rbt.Parameter_File>
/export/apps/rDock/src/rDock_2013.1_src/data/scripts/dock_solv.prm

>  <Rbt.Receptor>
prm/pocket_docking_6.prm

>  <SCORE>
-34.2807

>  <SCORE.INTER>
-40.7982

>  <SCORE.INTER.CONST>
1

>  <SCORE.INTER.POLAR>
-5.57146

>  <SCORE.INTER.ROT>
9

>  <SCORE.INTER.SOLV>
15.0222

>  <SCORE.INTER.VDW>
-23.2347

>  <SCORE.INTER.norm>
-0.971387

>  <SCORE.INTRA>
6.51757

>  <SCORE.INTRA.DIHEDRAL>
16.1684

>  <SCORE.INTRA.DIHEDRAL.0>
30.1357

>  <SCORE.INTRA.POLAR>
-1.71781

>  <SCORE.INTRA.POLAR.0>
-0.631696

>  <SCORE.INTRA.REPUL>
0

>  <SCORE.INTRA.REPUL.0>
0

>  <SCORE.INTRA.SOLV>
1.25165

>  <SCORE.INTRA.SOLV.lig_0>
-55.904

>  <SCORE.INTRA.VDW>
3.6481

>  <SCORE.INTRA.VDW.0>
-8.21197

>  <SCORE.INTRA.norm>
0.15518

>  <SCORE.RESTR>
0

>  <SCORE.RESTR.CAVITY>
0

>  <SCORE.RESTR.norm>
0

>  <SCORE.SYSTEM>
0

>  <SCORE.SYSTEM.CONST>
0

>  <SCORE.SYSTEM.DIHEDRAL>
0

>  <SCORE.SYSTEM.SOLV>
0

>  <SCORE.SYSTEM.norm>
0

>  <SCORE.heavy>
42

>  <SCORE.norm>
-0.816206

>  <RMSD>
8.882

$$$$
lig.pdb
 OpenBabel11021811453D
libRbt.so/2013.1/901 2013/11/27
 42 45  0  0  0  0  0  0  0  0999 V2000
   -2.3246    2.8904    6.6037 C   0  0  2  0  0  0  0  0  0  0  0  0
   -2.7373    4.1563    6.0854 O   0  0  0  0  0  0  0  0  0  0  0  0
   -1.0773    2.3782    5.8677 C   0  0  2  0  0  0  0  0  0  0  0  0
    0.0085    3.3750    5.9098 N   0  0  0  0  0  0  0  0  0  0  0  0
   -1.4127    1.9896    4.4220 C   0  0  1  0  0  0  0  0  0  0  0  0
   -0.2830    1.3825    3.8248 O   0  0  0  0  0  0  0  0  0  0  0  0
   -2.5926    1.0064    4.3953 C   0  0  2  0  0  0  0  0  0  0  0  0
   -2.9873    0.7845    3.0550 O   0  0  0  0  0  0  0  0  0  0  0  0
   -3.7892    1.5367    5.2109 C   0  0  2  0  0  0  0  0  0  0  0  0
   -3.3840    1.9406    6.5185 O   0  0  0  0  0  0  0  0  0  0  0  0
   -4.8348    0.4101    5.3150 C   0  0  0  0  0  0  0  0  0  0  0  0
   -5.4741    0.1366    4.0395 O   0  0  0  0  0  0  0  0  0  0  0  0
   -1.3185    8.1212    6.9786 C   0  0  2  0  0  0  0  0  0  0  0  0
   -0.2859    9.0717    7.4373 N   0  0  0  0  0  0  0  0  0  0  0  0
   -1.6571    7.1257    8.0910 C   0  0  0  0  0  0  0  0  0  0  0  0
   -2.6166    6.0569    7.5813 C   0  0  2  0  0  0  0  0  0  0  0  0
   -3.0120    5.1655    8.6789 N   0  0  0  0  0  0  0  0  0  0  0  0
   -1.9260    5.2885    6.4306 C   0  0  2  0  0  0  0  0  0  0  0  0
   -1.7402    6.2255    5.2802 C   0  0  2  0  0  0  0  0  0  0  0  0
   -1.1457    5.4926    4.2248 O   0  0  0  0  0  0  0  0  0  0  0  0
   -0.8608    7.3864    5.7046 C   0  0  1  0  0  0  0  0  0  0  0  0
   -0.7198    8.3496    4.6773 O   0  0  0  0  0  0  0  0  0  0  0  0
   -1.0568    6.1200    2.9499 C   0  0  1  0  0  0  0  0  0  0  0  0
   -0.2432    5.2035    2.0336 C   0  0  2  0  0  0  0  0  0  0  0  0
    0.5467    5.9926    1.1640 O   0  0  0  0  0  0  0  0  0  0  0  0
   -1.3363    4.4168    1.2979 C   0  0  2  0  0  0  0  0  0  0  0  0
   -0.8792    3.8518    0.0688 O   0  0  0  0  0  0  0  0  0  0  0  0
   -2.3976    5.5136    1.1475 C   0  0  2  0  0  0  0  0  0  0  0  0
   -2.3540    6.2244    2.3768 O   0  0  0  0  0  0  0  0  0  0  0  0
   -3.8215    4.9904    0.9251 C   0  0  0  0  0  0  0  0  0  0  0  0
   -4.3263    4.3504    2.0778 O   0  0  0  0  0  0  0  0  0  0  0  0
    0.0343    2.7665    0.2168 C   0  0  2  0  0  0  0  0  0  0  0  0
    0.6648    2.3643   -1.1251 C   0  0  2  0  0  0  0  0  0  0  0  0
    1.3077    3.5202   -1.7720 N   0  0  0  0  0  0  0  0  0  0  0  0
   -0.3710    1.7068   -2.0494 C   0  0  1  0  0  0  0  0  0  0  0  0
    0.2825    1.2813   -3.2295 O   0  0  0  0  0  0  0  0  0  0  0  0
   -0.9806    0.5000   -1.3160 C   0  0  2  0  0  0  0  0  0  0  0  0
   -1.9761   -0.1187   -2.1101 O   0  0  0  0  0  0  0  0  0  0  0  0
   -1.5639    0.9197    0.0491 C   0  0  1  0  0  0  0  0  0  0  0  0
   -0.6092    1.6485    0.8242 O   0  0  0  0  0  0  0  0  0  0  0  0
   -2.9012    1.6665   -0.0640 C   0  0  0  0  0  0  0  0  0  0  0  0
   -3.9402    0.8170   -0.6683 N   0  0  0  0  0  0  0  0  0  0  0  0
  1  3  1  0  0  0  0
  1  2  1  6  0  0  0
  3  4  1  6  0  0  0
  5  6  1  1  0  0  0
  5  3  1  0  0  0  0
  7  9  1  0  0  0  0
  7  5  1  0  0  0  0
  7  8  1  6  0  0  0
  9 10  1  0  0  0  0
  9 11  1  1  0  0  0
 10  1  1  0  0  0  0
 11 12  1  0  0  0  0
 13 14  1  1  0  0  0
 13 21  1  0  0  0  0
 15 13  1  0  0  0  0
 16 15  1  0  0  0  0
 16 18  1  0  0  0  0
 16 17  1  1  0  0  0
 18  2  1  6  0  0  0
 18 19  1  0  0  0  0
 19 21  1  0  0  0  0
 19 20  1  6  0  0  0
 21 22  1  6  0  0  0
 23 20  1  1  0  0  0
 23 29  1  0  0  0  0
 23 24  1  0  0  0  0
 24 26  1  0  0  0  0
 24 25  1  6  0  0  0
 26 27  1  6  0  0  0
 28 26  1  0  0  0  0
 28 30  1  1  0  0  0
 29 28  1  0  0  0  0
 30 31  1  0  0  0  0
 32 27  1  6  0  0  0
 32 40  1  0  0  0  0
 32 33  1  0  0  0  0
 33 35  1  0  0  0  0
 33 34  1  6  0  0  0
 35 37  1  0  0  0  0
 35 36  1  6  0  0  0
 37 38  1  6  0  0  0
 39 37  1  0  0  0  0
 39 41  1  6  0  0  0
 40 39  1  0  0  0  0
 42 41  1  0  0  0  0
M  END
>  <CHROM.1>
-100.64257062,-73.26214719,163.51372875,-176.96497010,68.42862334,50.83674446
-69.73714731,78.35698939,54.90020466,170.61249249,173.62403977,65.06671207
52.37427183,70.66835659,-170.36628064,68.60172498,-177.75772918,162.83338690
178.91956569,179.58793511,62.26983046,57.86172696,-1.71916442,3.64926518
3.03918193,1.69796804,1.01332222,0.93462276

>  <Name>
lig.pdb

>  <RI>
0

>  <Rbt.Current_Directory>
/home/itssahil/PROJECTS/Mol_Feturizer/New_Systems/rnas/2mxs

>  <Rbt.Executable>
rbdock ($Id: //depot/dev/client3/rdock/2013.1/src/exe/rbdock.cxx#4 $)

>  <Rbt.Library>
libRbt.so (2013.1, Build901 2013/11/27)

>  <Rbt.Parameter_File>
/export/apps/rDock/src/rDock_2013.1_src/data/scripts/dock_solv.prm

>  <Rbt.Receptor>
prm/pocket_docking_4.prm

>  <SCORE>
-49.2868

>  <SCORE.INTER>
-35.9024

>  <SCORE.INTER.CONST>
1

>  <SCORE.INTER.POLAR>
-5.55805

>  <SCORE.INTER.ROT>
9

>  <SCORE.INTER.SOLV>
17.7893

>  <SCORE.INTER.VDW>
-20.9378

>  <SCORE.INTER.norm>
-0.854818

>  <SCORE.INTRA>
-13.389

>  <SCORE.INTRA.DIHEDRAL>
-17.3709

>  <SCORE.INTRA.DIHEDRAL.0>
30.1357

>  <SCORE.INTRA.POLAR>
-2.06225

>  <SCORE.INTRA.POLAR.0>
-0.631696

>  <SCORE.INTRA.REPUL>
0.0915086

>  <SCORE.INTRA.REPUL.0>
0

>  <SCORE.INTRA.SOLV>
2.34777

>  <SCORE.INTRA.SOLV.lig_0>
-55.904

>  <SCORE.INTRA.VDW>
0.676673

>  <SCORE.INTRA.VDW.0>
-8.21197

>  <SCORE.INTRA.norm>
-0.318785

>  <SCORE.RESTR>
0.00450302

>  <SCORE.RESTR.CAVITY>
0.00450302

>  <SCORE.RESTR.norm>
0.000107215

>  <SCORE.SYSTEM>
0

>  <SCORE.SYSTEM.CONST>
0

>  <SCORE.SYSTEM.DIHEDRAL>
0

>  <SCORE.SYSTEM.SOLV>
0

>  <SCORE.SYSTEM.norm>
0

>  <SCORE.heavy>
42

>  <SCORE.norm>
-1.1735

>  <RMSD>
8.892

$$$$
lig.pdb
 OpenBabel11021811453D
libRbt.so/2013.1/901 2013/11/27
 42 45  0  0  0  0  0  0  0  0999 V2000
    0.4463    3.2436    6.6618 C   0  0  2  0  0  0  0  0  0  0  0  0
   -0.7470    3.9196    7.0624 O   0  0  0  0  0  0  0  0  0  0  0  0
    0.3846    1.7554    7.0376 C   0  0  2  0  0  0  0  0  0  0  0  0
   -0.8251    1.1196    6.4837 N   0  0  0  0  0  0  0  0  0  0  0  0
    0.4578    1.5688    8.5585 C   0  0  1  0  0  0  0  0  0  0  0  0
    0.5526    0.1894    8.8584 O   0  0  0  0  0  0  0  0  0  0  0  0
    1.6849    2.2984    9.1257 C   0  0  2  0  0  0  0  0  0  0  0  0
    1.6478    2.2483   10.5391 O   0  0  0  0  0  0  0  0  0  0  0  0
    1.7368    3.7665    8.6565 C   0  0  2  0  0  0  0  0  0  0  0  0
    1.5941    3.8607    7.2395 O   0  0  0  0  0  0  0  0  0  0  0  0
    3.0938    4.3579    9.0832 C   0  0  0  0  0  0  0  0  0  0  0  0
    3.2575    4.3677   10.5266 O   0  0  0  0  0  0  0  0  0  0  0  0
   -1.8765    8.0497    6.6181 C   0  0  2  0  0  0  0  0  0  0  0  0
   -1.5889    9.4977    6.6461 N   0  0  0  0  0  0  0  0  0  0  0  0
   -1.6355    7.4326    7.9980 C   0  0  0  0  0  0  0  0  0  0  0  0
   -1.7934    5.9177    7.9438 C   0  0  2  0  0  0  0  0  0  0  0  0
   -1.6576    5.3454    9.2890 N   0  0  0  0  0  0  0  0  0  0  0  0
   -0.7398    5.3512    6.9637 C   0  0  2  0  0  0  0  0  0  0  0  0
   -1.0713    5.8267    5.5855 C   0  0  2  0  0  0  0  0  0  0  0  0
   -0.1210    5.2638    4.6997 O   0  0  0  0  0  0  0  0  0  0  0  0
   -1.0280    7.3425    5.5445 C   0  0  1  0  0  0  0  0  0  0  0  0
   -1.4165    7.8515    4.2823 O   0  0  0  0  0  0  0  0  0  0  0  0
   -0.4923    5.1199    3.3329 C   0  0  1  0  0  0  0  0  0  0  0  0
    0.4409    4.0847    2.7014 C   0  0  2  0  0  0  0  0  0  0  0  0
    0.7145    4.4556    1.3634 O   0  0  0  0  0  0  0  0  0  0  0  0
   -0.3798    2.7922    2.8063 C   0  0  2  0  0  0  0  0  0  0  0  0
    0.0432    1.7914    1.8799 O   0  0  0  0  0  0  0  0  0  0  0  0
   -1.7864    3.3494    2.5551 C   0  0  2  0  0  0  0  0  0  0  0  0
   -1.8089    4.5893    3.2483 O   0  0  0  0  0  0  0  0  0  0  0  0
   -2.9215    2.4637    3.0820 C   0  0  0  0  0  0  0  0  0  0  0  0
   -4.1883    2.9758    2.7270 O   0  0  0  0  0  0  0  0  0  0  0  0
   -0.9614    0.8407    1.5321 C   0  0  2  0  0  0  0  0  0  0  0  0
   -0.3762   -0.5685    1.3534 C   0  0  2  0  0  0  0  0  0  0  0  0
    0.3636   -0.9874    2.5556 N   0  0  0  0  0  0  0  0  0  0  0  0
    0.5026   -0.6484    0.0961 C   0  0  1  0  0  0  0  0  0  0  0  0
    0.9415   -1.9835   -0.0639 O   0  0  0  0  0  0  0  0  0  0  0  0
   -0.3419   -0.2188   -1.1156 C   0  0  2  0  0  0  0  0  0  0  0  0
    0.4354   -0.2333   -2.2988 O   0  0  0  0  0  0  0  0  0  0  0  0
   -0.9581    1.1777   -0.8926 C   0  0  1  0  0  0  0  0  0  0  0  0
   -1.6531    1.2499    0.3544 O   0  0  0  0  0  0  0  0  0  0  0  0
    0.0537    2.3221   -1.0526 C   0  0  0  0  0  0  0  0  0  0  0  0
   -0.6139    3.6338   -1.0387 N   0  0  0  0  0  0  0  0  0  0  0  0
  1  3  1  0  0  0  0
  1  2  1  1  0  0  0
  3  4  1  1  0  0  0
  5  6  1  6  0  0  0
  5  3  1  0  0  0  0
  7  9  1  0  0  0  0
  7  5  1  0  0  0  0
  7  8  1  1  0  0  0
  9 10  1  0  0  0  0
  9 11  1  6  0  0  0
 10  1  1  0  0  0  0
 11 12  1  0  0  0  0
 13 14  1  1  0  0  0
 13 21  1  0  0  0  0
 15 13  1  0  0  0  0
 16 15  1  0  0  0  0
 16 18  1  0  0  0  0
 16 17  1  1  0  0  0
 18  2  1  6  0  0  0
 18 19  1  0  0  0  0
 19 21  1  0  0  0  0
 19 20  1  6  0  0  0
 21 22  1  6  0  0  0
 23 20  1  1  0  0  0
 23 29  1  0  0  0  0
 23 24  1  0  0  0  0
 24 26  1  0  0  0  0
 24 25  1  6  0  0  0
 26 27  1  6  0  0  0
 28 26  1  0  0  0  0
 28 30  1  1  0  0  0
 29 28  1  0  0  0  0
 30 31  1  0  0  0  0
 32 27  1  6  0  0  0
 32 40  1  0  0  0  0
 32 33  1  0  0  0  0
 33 35  1  0  0  0  0
 33 34  1  1  0  0  0
 35 37  1  0  0  0  0
 35 36  1  6  0  0  0
 37 38  1  6  0  0  0
 39 37  1  0  0  0  0
 39 41  1  1  0  0  0
 40 39  1  0  0  0  0
 42 41  1  0  0  0  0
M  END
>  <CHROM.1>
-156.53287824,170.52169826,-58.10331747,-68.77318435,-55.49564842,51.64048219
-62.28817831,-49.56225837,61.25057032,155.91476049,-160.49341331,171.55820374
175.89545421,-155.07625360,-143.27284964,-175.27749239,-177.13204608,172.72845197
-64.92730938,57.56029793,171.18772146,103.14826090,-0.29693220,3.23876580
4.49193144,-1.42106149,1.14338127,-2.17032389

>  <Name>
lig.pdb

>  <RI>
0

>  <Rbt.Current_Directory>
/home/itssahil/PROJECTS/Mol_Feturizer/New_Systems/rnas/2mxs

>  <Rbt.Executable>
rbdock ($Id: //depot/dev/client3/rdock/2013.1/src/exe/rbdock.cxx#4 $)

>  <Rbt.Library>
libRbt.so (2013.1, Build901 2013/11/27)

>  <Rbt.Parameter_File>
/export/apps/rDock/src/rDock_2013.1_src/data/scripts/dock_solv.prm

>  <Rbt.Receptor>
prm/pocket_docking_4.prm

>  <SCORE>
-24.5946

>  <SCORE.INTER>
-19.7868

>  <SCORE.INTER.CONST>
1

>  <SCORE.INTER.POLAR>
-2.92907

>  <SCORE.INTER.ROT>
9

>  <SCORE.INTER.SOLV>
18.4292

>  <SCORE.INTER.VDW>
-19.1707

>  <SCORE.INTER.norm>
-0.471113

>  <SCORE.INTRA>
-4.85392

>  <SCORE.INTRA.DIHEDRAL>
-9.76045

>  <SCORE.INTRA.DIHEDRAL.0>
30.1357

>  <SCORE.INTRA.POLAR>
-0.701183

>  <SCORE.INTRA.POLAR.0>
-0.631696

>  <SCORE.INTRA.REPUL>
0

>  <SCORE.INTRA.REPUL.0>
0

>  <SCORE.INTRA.SOLV>
-0.0477171

>  <SCORE.INTRA.SOLV.lig_0>
-55.904

>  <SCORE.INTRA.VDW>
2.43418

>  <SCORE.INTRA.VDW.0>
-8.21197

>  <SCORE.INTRA.norm>
-0.11557

>  <SCORE.RESTR>
0.0461193

>  <SCORE.RESTR.CAVITY>
0.0461193

>  <SCORE.RESTR.norm>
0.00109808

>  <SCORE.SYSTEM>
0

>  <SCORE.SYSTEM.CONST>
0

>  <SCORE.SYSTEM.DIHEDRAL>
0

>  <SCORE.SYSTEM.SOLV>
0

>  <SCORE.SYSTEM.norm>
0

>  <SCORE.heavy>
42

>  <SCORE.norm>
-0.585585

>  <RMSD>
8.904

$$$$
lig.pdb
 OpenBabel11021811453D
libRbt.so/2013.1/901 2013/11/27
 42 45  0  0  0  0  0  0  0  0999 V2000
    2.0057    4.1302    6.9171 C   0  0  2  0  0  0  0  0  0  0  0  0
    0.6586    4.5858    6.7775 O   0  0  0  0  0  0  0  0  0  0  0  0
    2.0433    2.6460    7.3110 C   0  0  2  0  0  0  0  0  0  0  0  0
    1.2768    1.8253    6.3553 N   0  0  0  0  0  0  0  0  0  0  0  0
    1.5328    2.4441    8.7436 C   0  0  1  0  0  0  0  0  0  0  0  0
    1.7241    1.0951    9.1246 O   0  0  0  0  0  0  0  0  0  0  0  0
    2.2942    3.3599    9.7138 C   0  0  2  0  0  0  0  0  0  0  0  0
    1.7049    3.2760   10.9972 O   0  0  0  0  0  0  0  0  0  0  0  0
    2.2884    4.8246    9.2313 C   0  0  2  0  0  0  0  0  0  0  0  0
    2.7097    4.9215    7.8711 O   0  0  0  0  0  0  0  0  0  0  0  0
    3.2457    5.6291   10.1311 C   0  0  0  0  0  0  0  0  0  0  0  0
    2.6716    5.8997   11.4377 O   0  0  0  0  0  0  0  0  0  0  0  0
   -1.0457    7.5611    4.1749 C   0  0  2  0  0  0  0  0  0  0  0  0
   -1.0311    8.4086    2.9658 N   0  0  0  0  0  0  0  0  0  0  0  0
    0.1653    7.8729    5.0578 C   0  0  0  0  0  0  0  0  0  0  0  0
    0.2344    6.9074    6.2350 C   0  0  2  0  0  0  0  0  0  0  0  0
    1.3403    7.2751    7.1280 N   0  0  0  0  0  0  0  0  0  0  0  0
    0.3891    5.4718    5.6813 C   0  0  2  0  0  0  0  0  0  0  0  0
   -0.8646    5.1078    4.9524 C   0  0  2  0  0  0  0  0  0  0  0  0
   -0.7186    3.7774    4.4905 O   0  0  0  0  0  0  0  0  0  0  0  0
   -1.0807    6.0681    3.7981 C   0  0  1  0  0  0  0  0  0  0  0  0
   -2.2997    5.8214    3.1227 O   0  0  0  0  0  0  0  0  0  0  0  0
   -1.8303    2.8997    4.6347 C   0  0  1  0  0  0  0  0  0  0  0  0
   -2.1924    2.3716    3.2450 C   0  0  2  0  0  0  0  0  0  0  0  0
   -3.5970    2.2279    3.1503 O   0  0  0  0  0  0  0  0  0  0  0  0
   -1.4507    1.0289    3.1981 C   0  0  2  0  0  0  0  0  0  0  0  0
   -1.9940    0.1302    2.2306 O   0  0  0  0  0  0  0  0  0  0  0  0
   -1.6159    0.5828    4.6561 C   0  0  2  0  0  0  0  0  0  0  0  0
   -1.4516    1.7727    5.4148 O   0  0  0  0  0  0  0  0  0  0  0  0
   -0.5847   -0.4514    5.1224 C   0  0  0  0  0  0  0  0  0  0  0  0
   -0.8209   -0.8576    6.4536 O   0  0  0  0  0  0  0  0  0  0  0  0
   -2.9176   -0.8212    2.7559 C   0  0  2  0  0  0  0  0  0  0  0  0
   -2.6687   -2.2289    2.1932 C   0  0  2  0  0  0  0  0  0  0  0  0
   -1.2770   -2.6499    2.4252 N   0  0  0  0  0  0  0  0  0  0  0  0
   -3.0381   -2.3040    0.7040 C   0  0  1  0  0  0  0  0  0  0  0  0
   -2.8713   -3.6379    0.2641 O   0  0  0  0  0  0  0  0  0  0  0  0
   -4.5059   -1.8724    0.5447 C   0  0  2  0  0  0  0  0  0  0  0  0
   -4.8861   -1.8824   -0.8190 O   0  0  0  0  0  0  0  0  0  0  0  0
   -4.7418   -0.4775    1.1598 C   0  0  1  0  0  0  0  0  0  0  0  0
   -4.2593   -0.4099    2.5037 O   0  0  0  0  0  0  0  0  0  0  0  0
   -4.1958    0.6690    0.2959 C   0  0  0  0  0  0  0  0  0  0  0  0
   -5.0690    0.9326   -0.8592 N   0  0  0  0  0  0  0  0  0  0  0  0
  1  3  1  0  0  0  0
  1  2  1  1  0  0  0
  3  4  1  6  0  0  0
  5  6  1  1  0  0  0
  5  3  1  0  0  0  0
  7  9  1  0  0  0  0
  7  5  1  0  0  0  0
  7  8  1  1  0  0  0
  9 10  1  0  0  0  0
  9 11  1  1  0  0  0
 10  1  1  0  0  0  0
 11 12  1  0  0  0  0
 13 14  1  6  0  0  0
 13 21  1  0  0  0  0
 15 13  1  0  0  0  0
 16 15  1  0  0  0  0
 16 18  1  0  0  0  0
 16 17  1  1  0  0  0
 18  2  1  1  0  0  0
 18 19  1  0  0  0  0
 19 21  1  0  0  0  0
 19 20  1  6  0  0  0
 21 22  1  1  0  0  0
 23 20  1  6  0  0  0
 23 29  1  0  0  0  0
 23 24  1  0  0  0  0
 24 26  1  0  0  0  0
 24 25  1  1  0  0  0
 26 27  1  6  0  0  0
 28 26  1  0  0  0  0
 28 30  1  1  0  0  0
 29 28  1  0  0  0  0
 30 31  1  0  0  0  0
 32 27  1  6  0  0  0
 32 40  1  0  0  0  0
 32 33  1  0  0  0  0
 33 35  1  0  0  0  0
 33 34  1  6  0  0  0
 35 37  1  0  0  0  0
 35 36  1  1  0  0  0
 37 38  1  6  0  0  0
 39 37  1  0  0  0  0
 39 41  1  6  0  0  0
 40 39  1  0  0  0  0
 42 41  1  0  0  0  0
M  END
>  <CHROM.1>
-104.52528905,-139.73720368,-45.73922659,-63.76971435,-67.50274362,-176.82752747
-75.51167984,-175.57337598,-31.78356305,136.79199489,122.60045309,70.96668895
176.73000516,-96.70959935,-136.13070614,-177.76990236,-177.48840173,-178.38180119
-63.47122736,-46.45142527,76.15037536,99.47885556,-0.87842581,2.45251166
4.79245128,-0.53604448,0.97541213,3.05252530

>  <Name>
lig.pdb

>  <RI>
3.99633e+07

>  <Rbt.Current_Directory>
/home/itssahil/PROJECTS/Mol_Feturizer/New_Systems/rnas/2mxs

>  <Rbt.Executable>
rbdock ($Id: //depot/dev/client3/rdock/2013.1/src/exe/rbdock.cxx#4 $)

>  <Rbt.Library>
libRbt.so (2013.1, Build901 2013/11/27)

>  <Rbt.Parameter_File>
/export/apps/rDock/src/rDock_2013.1_src/data/scripts/dock_solv.prm

>  <Rbt.Receptor>
prm/pocket_docking_5.prm

>  <SCORE>
-25.6251

>  <SCORE.INTER>
-35.5661

>  <SCORE.INTER.CONST>
1

>  <SCORE.INTER.POLAR>
-4.27096

>  <SCORE.INTER.ROT>
9

>  <SCORE.INTER.SOLV>
17.1776

>  <SCORE.INTER.VDW>
-24.8001

>  <SCORE.INTER.norm>
-0.846812

>  <SCORE.INTRA>
9.94105

>  <SCORE.INTRA.DIHEDRAL>
14.1395

>  <SCORE.INTRA.DIHEDRAL.0>
30.1357

>  <SCORE.INTRA.POLAR>
-0.701338

>  <SCORE.INTRA.POLAR.0>
-0.631696

>  <SCORE.INTRA.REPUL>
0

>  <SCORE.INTRA.REPUL.0>
0

>  <SCORE.INTRA.SOLV>
1.52492

>  <SCORE.INTRA.SOLV.lig_0>
-55.904

>  <SCORE.INTRA.VDW>
4.49342

>  <SCORE.INTRA.VDW.0>
-8.21197

>  <SCORE.INTRA.norm>
0.236692

>  <SCORE.RESTR>
0

>  <SCORE.RESTR.CAVITY>
0

>  <SCORE.RESTR.norm>
0

>  <SCORE.SYSTEM>
0

>  <SCORE.SYSTEM.CONST>
0

>  <SCORE.SYSTEM.DIHEDRAL>
0

>  <SCORE.SYSTEM.SOLV>
0

>  <SCORE.SYSTEM.norm>
0

>  <SCORE.heavy>
42

>  <SCORE.norm>
-0.61012

>  <RMSD>
8.906

$$$$
lig.pdb
 OpenBabel11021811453D
libRbt.so/2013.1/901 2013/11/27
 42 45  0  0  0  0  0  0  0  0999 V2000
    1.2329    5.5985    8.1017 C   0  0  2  0  0  0  0  0  0  0  0  0
   -0.0267    5.5001    7.4344 O   0  0  0  0  0  0  0  0  0  0  0  0
    1.9535    4.2420    8.1131 C   0  0  2  0  0  0  0  0  0  0  0  0
    2.0905    3.7042    6.7469 N   0  0  0  0  0  0  0  0  0  0  0  0
    1.2325    3.2439    9.0283 C   0  0  1  0  0  0  0  0  0  0  0  0
    2.0033    2.0623    9.1342 O   0  0  0  0  0  0  0  0  0  0  0  0
    1.0353    3.8500   10.4259 C   0  0  2  0  0  0  0  0  0  0  0  0
    0.2332    2.9824   11.2039 O   0  0  0  0  0  0  0  0  0  0  0  0
    0.3769    5.2426   10.3507 C   0  0  2  0  0  0  0  0  0  0  0  0
    1.0637    6.0890    9.4294 O   0  0  0  0  0  0  0  0  0  0  0  0
    0.4148    5.8669   11.7586 C   0  0  0  0  0  0  0  0  0  0  0  0
    1.7708    6.0004   12.2622 O   0  0  0  0  0  0  0  0  0  0  0  0
   -1.3302    7.9267    4.1263 C   0  0  2  0  0  0  0  0  0  0  0  0
   -1.1454    8.5344    2.7933 N   0  0  0  0  0  0  0  0  0  0  0  0
   -0.2378    8.4061    5.0856 C   0  0  0  0  0  0  0  0  0  0  0  0
   -0.3376    7.6770    6.4203 C   0  0  2  0  0  0  0  0  0  0  0  0
    0.6502    8.2125    7.3655 N   0  0  0  0  0  0  0  0  0  0  0  0
   -0.1375    6.1646    6.1674 C   0  0  2  0  0  0  0  0  0  0  0  0
   -1.2929    5.6623    5.3622 C   0  0  2  0  0  0  0  0  0  0  0  0
   -1.1115    4.2703    5.1779 O   0  0  0  0  0  0  0  0  0  0  0  0
   -1.3420    6.3894    4.0316 C   0  0  1  0  0  0  0  0  0  0  0  0
   -2.4678    6.0125    3.2613 O   0  0  0  0  0  0  0  0  0  0  0  0
   -2.1599    3.5428    4.5467 C   0  0  1  0  0  0  0  0  0  0  0  0
   -1.8501    3.4805    3.0495 C   0  0  2  0  0  0  0  0  0  0  0  0
   -3.0591    3.5567    2.3179 O   0  0  0  0  0  0  0  0  0  0  0  0
   -1.1544    2.1196    2.9123 C   0  0  2  0  0  0  0  0  0  0  0  0
   -1.1935    1.6102    1.5789 O   0  0  0  0  0  0  0  0  0  0  0  0
   -1.9560    1.3067    3.9363 C   0  0  2  0  0  0  0  0  0  0  0  0
   -2.1636    2.2018    5.0198 O   0  0  0  0  0  0  0  0  0  0  0  0
   -1.2367    0.0559    4.4545 C   0  0  0  0  0  0  0  0  0  0  0  0
   -2.0496   -0.6809    5.3431 O   0  0  0  0  0  0  0  0  0  0  0  0
   -0.4079    2.3417    0.6399 C   0  0  2  0  0  0  0  0  0  0  0  0
   -0.3400    1.6334   -0.7217 C   0  0  2  0  0  0  0  0  0  0  0  0
   -1.6905    1.3687   -1.2452 N   0  0  0  0  0  0  0  0  0  0  0  0
    0.4923    0.3452   -0.6355 C   0  0  1  0  0  0  0  0  0  0  0  0
    0.5919   -0.2155   -1.9303 O   0  0  0  0  0  0  0  0  0  0  0  0
    1.8903    0.7040   -0.1038 C   0  0  2  0  0  0  0  0  0  0  0  0
    2.6869   -0.4580    0.0360 O   0  0  0  0  0  0  0  0  0  0  0  0
    1.7944    1.4565    1.2394 C   0  0  1  0  0  0  0  0  0  0  0  0
    0.9027    2.5704    1.1526 O   0  0  0  0  0  0  0  0  0  0  0  0
    1.4566    0.5425    2.4265 C   0  0  0  0  0  0  0  0  0  0  0  0
    2.6486   -0.1749    2.9069 N   0  0  0  0  0  0  0  0  0  0  0  0
  1  3  1  0  0  0  0
  1  2  1  1  0  0  0
  3  4  1  6  0  0  0
  5  6  1  1  0  0  0
  5  3  1  0  0  0  0
  7  9  1  0  0  0  0
  7  5  1  0  0  0  0
  7  8  1  1  0  0  0
  9 10  1  0  0  0  0
  9 11  1  1  0  0  0
 10  1  1  0  0  0  0
 11 12  1  0  0  0  0
 13 14  1  6  0  0  0
 13 21  1  0  0  0  0
 15 13  1  0  0  0  0
 16 15  1  0  0  0  0
 16 18  1  0  0  0  0
 16 17  1  1  0  0  0
 18  2  1  1  0  0  0
 18 19  1  0  0  0  0
 19 21  1  0  0  0  0
 19 20  1  6  0  0  0
 21 22  1  1  0  0  0
 23 20  1  1  0  0  0
 23 29  1  0  0  0  0
 23 24  1  0  0  0  0
 24 26  1  0  0  0  0
 24 25  1  6  0  0  0
 26 27  1  6  0  0  0
 28 26  1  0  0  0  0
 28 30  1  1  0  0  0
 29 28  1  0  0  0  0
 30 31  1  0  0  0  0
 32 27  1  1  0  0  0
 32 40  1  0  0  0  0
 32 33  1  0  0  0  0
 33 35  1  0  0  0  0
 33 34  1  1  0  0  0
 35 37  1  0  0  0  0
 35 36  1  6  0  0  0
 37 38  1  1  0  0  0
 39 37  1  0  0  0  0
 39 41  1  1  0  0  0
 40 39  1  0  0  0  0
 42 41  1  0  0  0  0
M  END
>  <CHROM.1>
-78.25276470,-110.45829138,174.88363281,-62.48998915,69.04647164,60.42311083
59.27938293,-173.94620760,56.56945285,173.98183146,93.47122350,62.19507564
65.18202829,68.45435922,172.14757117,-177.20366473,-174.48257784,-55.27425204
77.74540613,67.25614901,80.01259189,179.15276205,-0.03735579,3.56037179,4.77224952
-1.41253369,1.17113626,-2.18806467

>  <Name>
lig.pdb

>  <RI>
0

>  <Rbt.Current_Directory>
/home/itssahil/PROJECTS/Mol_Feturizer/New_Systems/rnas/2mxs

>  <Rbt.Executable>
rbdock ($Id: //depot/dev/client3/rdock/2013.1/src/exe/rbdock.cxx#4 $)

>  <Rbt.Library>
libRbt.so (2013.1, Build901 2013/11/27)

>  <Rbt.Parameter_File>
/export/apps/rDock/src/rDock_2013.1_src/data/scripts/dock_solv.prm

>  <Rbt.Receptor>
prm/pocket_docking_7.prm

>  <SCORE>
-44.8906

>  <SCORE.INTER>
-40.5386

>  <SCORE.INTER.CONST>
1

>  <SCORE.INTER.POLAR>
-5.76204

>  <SCORE.INTER.ROT>
9

>  <SCORE.INTER.SOLV>
17.3993

>  <SCORE.INTER.VDW>
-23.2187

>  <SCORE.INTER.norm>
-0.965205

>  <SCORE.INTRA>
-4.35196

>  <SCORE.INTRA.DIHEDRAL>
-12.1139

>  <SCORE.INTRA.DIHEDRAL.0>
30.1357

>  <SCORE.INTRA.POLAR>
-1.19413

>  <SCORE.INTRA.POLAR.0>
-0.631696

>  <SCORE.INTRA.REPUL>
0

>  <SCORE.INTRA.REPUL.0>
0

>  <SCORE.INTRA.SOLV>
0.0727389

>  <SCORE.INTRA.SOLV.lig_0>
-55.904

>  <SCORE.INTRA.VDW>
5.72869

>  <SCORE.INTRA.VDW.0>
-8.21197

>  <SCORE.INTRA.norm>
-0.103618

>  <SCORE.RESTR>
0

>  <SCORE.RESTR.CAVITY>
0

>  <SCORE.RESTR.norm>
0

>  <SCORE.SYSTEM>
0

>  <SCORE.SYSTEM.CONST>
0

>  <SCORE.SYSTEM.DIHEDRAL>
0

>  <SCORE.SYSTEM.SOLV>
0

>  <SCORE.SYSTEM.norm>
0

>  <SCORE.heavy>
42

>  <SCORE.norm>
-1.06882

>  <RMSD>
8.928

$$$$
lig.pdb
 OpenBabel11021811453D
libRbt.so/2013.1/901 2013/11/27
 42 45  0  0  0  0  0  0  0  0999 V2000
    0.6468    5.4360    7.2959 C   0  0  2  0  0  0  0  0  0  0  0  0
   -0.6116    5.8244    6.7417 O   0  0  0  0  0  0  0  0  0  0  0  0
    0.8202    3.9106    7.2437 C   0  0  2  0  0  0  0  0  0  0  0  0
    0.6392    3.4042    5.8707 N   0  0  0  0  0  0  0  0  0  0  0  0
   -0.1384    3.2145    8.2184 C   0  0  1  0  0  0  0  0  0  0  0  0
    0.1533    1.8306    8.2561 O   0  0  0  0  0  0  0  0  0  0  0  0
    0.0144    3.8054    9.6282 C   0  0  2  0  0  0  0  0  0  0  0  0
   -0.9830    3.2646   10.4734 O   0  0  0  0  0  0  0  0  0  0  0  0
   -0.0934    5.3437    9.6113 C   0  0  2  0  0  0  0  0  0  0  0  0
    0.7775    5.9113    8.6334 O   0  0  0  0  0  0  0  0  0  0  0  0
    0.2848    5.8657   11.0105 C   0  0  0  0  0  0  0  0  0  0  0  0
   -0.8554    5.8970   11.9101 O   0  0  0  0  0  0  0  0  0  0  0  0
   -1.5838    7.9389    3.1203 C   0  0  2  0  0  0  0  0  0  0  0  0
   -1.2550    8.4623    1.7794 N   0  0  0  0  0  0  0  0  0  0  0  0
   -0.6500    8.5443    4.1713 C   0  0  0  0  0  0  0  0  0  0  0  0
   -0.8891    7.9049    5.5340 C   0  0  2  0  0  0  0  0  0  0  0  0
   -0.0596    8.5594    6.5536 N   0  0  0  0  0  0  0  0  0  0  0  0
   -0.5868    6.3923    5.4241 C   0  0  2  0  0  0  0  0  0  0  0  0
   -1.6021    5.7712    4.5192 C   0  0  2  0  0  0  0  0  0  0  0  0
   -1.3329    4.3822    4.4656 O   0  0  0  0  0  0  0  0  0  0  0  0
   -1.5109    6.4005    3.1419 C   0  0  1  0  0  0  0  0  0  0  0  0
   -2.5074    5.9084    2.2656 O   0  0  0  0  0  0  0  0  0  0  0  0
   -2.3933    3.5159    4.0756 C   0  0  1  0  0  0  0  0  0  0  0  0
   -2.2761    3.2828    2.5679 C   0  0  2  0  0  0  0  0  0  0  0  0
   -3.5718    3.1892    2.0066 O   0  0  0  0  0  0  0  0  0  0  0  0
   -1.4982    1.9618    2.4971 C   0  0  2  0  0  0  0  0  0  0  0  0
   -1.6691    1.2851    1.2514 O   0  0  0  0  0  0  0  0  0  0  0  0
   -2.0936    1.2375    3.7108 C   0  0  2  0  0  0  0  0  0  0  0  0
   -2.2294    2.2486    4.6995 O   0  0  0  0  0  0  0  0  0  0  0  0
   -1.2164    0.1105    4.2683 C   0  0  0  0  0  0  0  0  0  0  0  0
   -1.2212   -1.0195    3.4220 O   0  0  0  0  0  0  0  0  0  0  0  0
   -0.8085    0.1639    1.0611 C   0  0  2  0  0  0  0  0  0  0  0  0
    0.6387    0.5965    0.7805 C   0  0  2  0  0  0  0  0  0  0  0  0
    1.1396    1.4806    1.8461 N   0  0  0  0  0  0  0  0  0  0  0  0
    0.7622    1.2556   -0.6015 C   0  0  1  0  0  0  0  0  0  0  0  0
    2.1244    1.5531   -0.8396 O   0  0  0  0  0  0  0  0  0  0  0  0
    0.2421    0.2678   -1.6596 C   0  0  2  0  0  0  0  0  0  0  0  0
    0.2939    0.8440   -2.9518 O   0  0  0  0  0  0  0  0  0  0  0  0
   -1.1940   -0.1893   -1.3305 C   0  0  1  0  0  0  0  0  0  0  0  0
   -1.2955   -0.6698    0.0119 O   0  0  0  0  0  0  0  0  0  0  0  0
   -2.2575    0.8743   -1.6410 C   0  0  0  0  0  0  0  0  0  0  0  0
   -3.6115    0.3829   -1.3386 N   0  0  0  0  0  0  0  0  0  0  0  0
  1  3  1  0  0  0  0
  1  2  1  1  0  0  0
  3  4  1  6  0  0  0
  5  6  1  1  0  0  0
  5  3  1  0  0  0  0
  7  9  1  0  0  0  0
  7  5  1  0  0  0  0
  7  8  1  1  0  0  0
  9 10  1  0  0  0  0
  9 11  1  1  0  0  0
 10  1  1  0  0  0  0
 11 12  1  0  0  0  0
 13 14  1  6  0  0  0
 13 21  1  0  0  0  0
 15 13  1  0  0  0  0
 16 15  1  0  0  0  0
 16 18  1  0  0  0  0
 16 17  1  1  0  0  0
 18  2  1  1  0  0  0
 18 19  1  0  0  0  0
 19 21  1  0  0  0  0
 19 20  1  6  0  0  0
 21 22  1  6  0  0  0
 23 20  1  1  0  0  0
 23 29  1  0  0  0  0
 23 24  1  0  0  0  0
 24 26  1  0  0  0  0
 24 25  1  1  0  0  0
 26 27  1  6  0  0  0
 28 26  1  0  0  0  0
 28 30  1  1  0  0  0
 29 28  1  0  0  0  0
 30 31  1  0  0  0  0
 32 27  1  6  0  0  0
 32 40  1  0  0  0  0
 32 33  1  0  0  0  0
 33 35  1  0  0  0  0
 33 34  1  1  0  0  0
 35 37  1  0  0  0  0
 35 36  1  6  0  0  0
 37 38  1  6  0  0  0
 39 37  1  0  0  0  0
 39 41  1  1  0  0  0
 40 39  1  0  0  0  0
 42 41  1  0  0  0  0
M  END
>  <CHROM.1>
-108.41474731,-103.86299582,-76.25579486,50.98710205,90.05828383,-51.38688722
-86.89804642,175.84861330,53.62658231,158.29432812,94.01464152,-58.32945033
-57.23241700,170.81065188,-73.36070080,-73.02836506,-67.54638714,-75.47729651
62.13547434,-163.92280196,178.77169049,-64.59331541,-0.80394778,3.46480740
3.98791669,-1.08839419,1.43953271,-2.55041113

>  <Name>
lig.pdb

>  <RI>
3.99633e+07

>  <Rbt.Current_Directory>
/home/itssahil/PROJECTS/Mol_Feturizer/New_Systems/rnas/2mxs

>  <Rbt.Executable>
rbdock ($Id: //depot/dev/client3/rdock/2013.1/src/exe/rbdock.cxx#4 $)

>  <Rbt.Library>
libRbt.so (2013.1, Build901 2013/11/27)

>  <Rbt.Parameter_File>
/export/apps/rDock/src/rDock_2013.1_src/data/scripts/dock_solv.prm

>  <Rbt.Receptor>
prm/pocket_docking_5.prm

>  <SCORE>
-30.5512

>  <SCORE.INTER>
-34.1625

>  <SCORE.INTER.CONST>
1

>  <SCORE.INTER.POLAR>
-4.6455

>  <SCORE.INTER.ROT>
9

>  <SCORE.INTER.SOLV>
15.8584

>  <SCORE.INTER.VDW>
-22.1761

>  <SCORE.INTER.norm>
-0.813392

>  <SCORE.INTRA>
3.61126

>  <SCORE.INTRA.DIHEDRAL>
0.903084

>  <SCORE.INTRA.DIHEDRAL.0>
30.1357

>  <SCORE.INTRA.POLAR>
-0.207821

>  <SCORE.INTRA.POLAR.0>
-0.631696

>  <SCORE.INTRA.REPUL>
0

>  <SCORE.INTRA.REPUL.0>
0

>  <SCORE.INTRA.SOLV>
1.06396

>  <SCORE.INTRA.SOLV.lig_0>
-55.904

>  <SCORE.INTRA.VDW>
3.33433

>  <SCORE.INTRA.VDW.0>
-8.21197

>  <SCORE.INTRA.norm>
0.0859825

>  <SCORE.RESTR>
0

>  <SCORE.RESTR.CAVITY>
0

>  <SCORE.RESTR.norm>
0

>  <SCORE.SYSTEM>
0

>  <SCORE.SYSTEM.CONST>
0

>  <SCORE.SYSTEM.DIHEDRAL>
0

>  <SCORE.SYSTEM.SOLV>
0

>  <SCORE.SYSTEM.norm>
0

>  <SCORE.heavy>
42

>  <SCORE.norm>
-0.72741

>  <RMSD>
8.960

$$$$
lig.pdb
 OpenBabel11021811453D
libRbt.so/2013.1/901 2013/11/27
 42 45  0  0  0  0  0  0  0  0999 V2000
   -2.1432    3.0761    6.3080 C   0  0  2  0  0  0  0  0  0  0  0  0
   -2.1931    4.1994    7.1895 O   0  0  0  0  0  0  0  0  0  0  0  0
   -3.2352    2.0549    6.6607 C   0  0  2  0  0  0  0  0  0  0  0  0
   -4.5667    2.6883    6.6765 N   0  0  0  0  0  0  0  0  0  0  0  0
   -2.9352    1.3695    8.0000 C   0  0  1  0  0  0  0  0  0  0  0  0
   -3.8734    0.3332    8.2178 O   0  0  0  0  0  0  0  0  0  0  0  0
   -1.5173    0.7785    7.9895 C   0  0  2  0  0  0  0  0  0  0  0  0
   -1.2027    0.2928    9.2805 O   0  0  0  0  0  0  0  0  0  0  0  0
   -0.4713    1.8257    7.5565 C   0  0  2  0  0  0  0  0  0  0  0  0
   -0.8553    2.4662    6.3402 O   0  0  0  0  0  0  0  0  0  0  0  0
    0.8761    1.1047    7.3621 C   0  0  0  0  0  0  0  0  0  0  0  0
    1.7757    1.8487    6.4975 O   0  0  0  0  0  0  0  0  0  0  0  0
    0.0295    7.8807    6.9913 C   0  0  2  0  0  0  0  0  0  0  0  0
    1.2835    8.6497    6.8638 N   0  0  0  0  0  0  0  0  0  0  0  0
    0.0784    6.9852    8.2318 C   0  0  0  0  0  0  0  0  0  0  0  0
   -1.1505    6.0858    8.2935 C   0  0  2  0  0  0  0  0  0  0  0  0
   -1.1433    5.3022    9.5351 N   0  0  0  0  0  0  0  0  0  0  0  0
   -1.1590    5.1828    7.0381 C   0  0  2  0  0  0  0  0  0  0  0  0
   -1.3685    6.0461    5.8354 C   0  0  2  0  0  0  0  0  0  0  0  0
   -1.4148    5.1969    4.7035 O   0  0  0  0  0  0  0  0  0  0  0  0
   -0.2349    7.0480    5.7228 C   0  0  1  0  0  0  0  0  0  0  0  0
   -0.4257    7.9478    4.6472 O   0  0  0  0  0  0  0  0  0  0  0  0
   -0.1919    4.6220    4.2554 C   0  0  1  0  0  0  0  0  0  0  0  0
   -0.5248    3.3049    3.5513 C   0  0  2  0  0  0  0  0  0  0  0  0
    0.4972    2.3620    3.8146 O   0  0  0  0  0  0  0  0  0  0  0  0
   -0.5842    3.7242    2.0763 C   0  0  2  0  0  0  0  0  0  0  0  0
   -0.4035    2.6265    1.1813 O   0  0  0  0  0  0  0  0  0  0  0  0
    0.5395    4.7677    2.0512 C   0  0  2  0  0  0  0  0  0  0  0  0
    0.4050    5.4676    3.2803 O   0  0  0  0  0  0  0  0  0  0  0  0
    0.4469    5.7700    0.8948 C   0  0  0  0  0  0  0  0  0  0  0  0
   -0.7780    6.4718    0.9117 O   0  0  0  0  0  0  0  0  0  0  0  0
   -0.8428    2.8695   -0.1537 C   0  0  2  0  0  0  0  0  0  0  0  0
   -2.1048    2.0627   -0.4950 C   0  0  2  0  0  0  0  0  0  0  0  0
   -3.1778    2.3276    0.4779 N   0  0  0  0  0  0  0  0  0  0  0  0
   -1.7933    0.5618   -0.5938 C   0  0  1  0  0  0  0  0  0  0  0  0
   -2.9678   -0.1177   -0.9933 O   0  0  0  0  0  0  0  0  0  0  0  0
   -0.6837    0.3633   -1.6403 C   0  0  2  0  0  0  0  0  0  0  0  0
   -0.3273   -1.0033   -1.7400 O   0  0  0  0  0  0  0  0  0  0  0  0
    0.5541    1.2198   -1.3027 C   0  0  1  0  0  0  0  0  0  0  0  0
    0.2002    2.5874   -1.0841 O   0  0  0  0  0  0  0  0  0  0  0  0
    1.3905    0.6518   -0.1467 C   0  0  0  0  0  0  0  0  0  0  0  0
    2.7315    1.2572   -0.1072 N   0  0  0  0  0  0  0  0  0  0  0  0
  1  3  1  0  0  0  0
  1  2  1  1  0  0  0
  3  4  1  1  0  0  0
  5  6  1  6  0  0  0
  5  3  1  0  0  0  0
  7  9  1  0  0  0  0
  7  5  1  0  0  0  0
  7  8  1  1  0  0  0
  9 10  1  0  0  0  0
  9 11  1  6  0  0  0
 10  1  1  0  0  0  0
 11 12  1  0  0  0  0
 13 14  1  6  0  0  0
 13 21  1  0  0  0  0
 15 13  1  0  0  0  0
 16 15  1  0  0  0  0
 16 18  1  0  0  0  0
 16 17  1  1  0  0  0
 18  2  1  1  0  0  0
 18 19  1  0  0  0  0
 19 21  1  0  0  0  0
 19 20  1  6  0  0  0
 21 22  1  6  0  0  0
 23 20  1  6  0  0  0
 23 29  1  0  0  0  0
 23 24  1  0  0  0  0
 24 26  1  0  0  0  0
 24 25  1  6  0  0  0
 26 27  1  6  0  0  0
 28 26  1  0  0  0  0
 28 30  1  6  0  0  0
 29 28  1  0  0  0  0
 30 31  1  0  0  0  0
 32 27  1  1  0  0  0
 32 40  1  0  0  0  0
 32 33  1  0  0  0  0
 33 35  1  0  0  0  0
 33 34  1  1  0  0  0
 35 37  1  0  0  0  0
 35 36  1  6  0  0  0
 37 38  1  1  0  0  0
 39 37  1  0  0  0  0
 39 41  1  1  0  0  0
 40 39  1  0  0  0  0
 42 41  1  0  0  0  0
M  END
>  <CHROM.1>
-164.61758129,175.24936904,175.06194889,56.48170976,-60.37639337,176.83080024
158.26402525,-44.74923029,-176.16700569,-73.42685892,152.73139595,59.61222646
56.10208936,161.92425083,-109.68188607,57.92008860,-61.65816095,177.47316758
60.50025941,-52.33258379,163.76350398,-57.85611207,-0.79434002,3.32208524
4.05144387,1.78217050,1.22152209,1.02418328

>  <Name>
lig.pdb

>  <RI>
0

>  <Rbt.Current_Directory>
/home/itssahil/PROJECTS/Mol_Feturizer/New_Systems/rnas/2mxs

>  <Rbt.Executable>
rbdock ($Id: //depot/dev/client3/rdock/2013.1/src/exe/rbdock.cxx#4 $)

>  <Rbt.Library>
libRbt.so (2013.1, Build901 2013/11/27)

>  <Rbt.Parameter_File>
/export/apps/rDock/src/rDock_2013.1_src/data/scripts/dock_solv.prm

>  <Rbt.Receptor>
prm/pocket_docking_4.prm

>  <SCORE>
-30.0895

>  <SCORE.INTER>
-23.0025

>  <SCORE.INTER.CONST>
1

>  <SCORE.INTER.POLAR>
-3.01077

>  <SCORE.INTER.ROT>
9

>  <SCORE.INTER.SOLV>
20.7844

>  <SCORE.INTER.VDW>
-21.8272

>  <SCORE.INTER.norm>
-0.547678

>  <SCORE.INTRA>
-7.08958

>  <SCORE.INTRA.DIHEDRAL>
-12.5189

>  <SCORE.INTRA.DIHEDRAL.0>
30.1357

>  <SCORE.INTRA.POLAR>
-0.99549

>  <SCORE.INTRA.POLAR.0>
-0.631696

>  <SCORE.INTRA.REPUL>
0

>  <SCORE.INTRA.REPUL.0>
0

>  <SCORE.INTRA.SOLV>
0.253872

>  <SCORE.INTRA.SOLV.lig_0>
-55.904

>  <SCORE.INTRA.VDW>
2.4276

>  <SCORE.INTRA.VDW.0>
-8.21197

>  <SCORE.INTRA.norm>
-0.1688

>  <SCORE.RESTR>
0.00255362

>  <SCORE.RESTR.CAVITY>
0.00255362

>  <SCORE.RESTR.norm>
6.08006e-05

>  <SCORE.SYSTEM>
0

>  <SCORE.SYSTEM.CONST>
0

>  <SCORE.SYSTEM.DIHEDRAL>
0

>  <SCORE.SYSTEM.SOLV>
0

>  <SCORE.SYSTEM.norm>
0

>  <SCORE.heavy>
42

>  <SCORE.norm>
-0.716417

>  <RMSD>
8.963

$$$$
lig.pdb
 OpenBabel11021811453D
libRbt.so/2013.1/901 2013/11/27
 42 45  0  0  0  0  0  0  0  0999 V2000
    1.8694    4.1048    7.0861 C   0  0  2  0  0  0  0  0  0  0  0  0
    0.7750    5.0196    7.1695 O   0  0  0  0  0  0  0  0  0  0  0  0
    1.6294    2.8812    7.9833 C   0  0  2  0  0  0  0  0  0  0  0  0
    0.3422    2.2361    7.6648 N   0  0  0  0  0  0  0  0  0  0  0  0
    1.7013    3.2646    9.4670 C   0  0  1  0  0  0  0  0  0  0  0  0
    1.6289    2.0942   10.2585 O   0  0  0  0  0  0  0  0  0  0  0  0
    3.0175    3.9990    9.7637 C   0  0  2  0  0  0  0  0  0  0  0  0
    2.9952    4.4815   11.0934 O   0  0  0  0  0  0  0  0  0  0  0  0
    3.2439    5.1707    8.7868 C   0  0  2  0  0  0  0  0  0  0  0  0
    3.0931    4.7491    7.4316 O   0  0  0  0  0  0  0  0  0  0  0  0
    4.6698    5.7101    9.0083 C   0  0  0  0  0  0  0  0  0  0  0  0
    4.9493    6.8738    8.1849 O   0  0  0  0  0  0  0  0  0  0  0  0
   -1.0178    7.5982    4.2254 C   0  0  2  0  0  0  0  0  0  0  0  0
   -0.9708    8.4193    2.9991 N   0  0  0  0  0  0  0  0  0  0  0  0
   -0.0333    8.1386    5.2655 C   0  0  0  0  0  0  0  0  0  0  0  0
    0.0272    7.2164    6.4775 C   0  0  2  0  0  0  0  0  0  0  0  0
    0.8980    7.7925    7.5098 N   0  0  0  0  0  0  0  0  0  0  0  0
    0.5217    5.8275    6.0109 C   0  0  2  0  0  0  0  0  0  0  0  0
   -0.5185    5.2298    5.1186 C   0  0  2  0  0  0  0  0  0  0  0  0
   -0.0656    3.9438    4.7370 O   0  0  0  0  0  0  0  0  0  0  0  0
   -0.7244    6.1199    3.9075 C   0  0  1  0  0  0  0  0  0  0  0  0
   -1.7604    5.6445    3.0685 O   0  0  0  0  0  0  0  0  0  0  0  0
   -1.0471    2.9518    4.4550 C   0  0  1  0  0  0  0  0  0  0  0  0
   -1.3198    2.9786    2.9496 C   0  0  2  0  0  0  0  0  0  0  0  0
   -2.6903    2.7132    2.7174 O   0  0  0  0  0  0  0  0  0  0  0  0
   -0.3999    1.8669    2.4272 C   0  0  2  0  0  0  0  0  0  0  0  0
   -0.8050    1.3668    1.1526 O   0  0  0  0  0  0  0  0  0  0  0  0
   -0.5160    0.8622    3.5801 C   0  0  2  0  0  0  0  0  0  0  0  0
   -0.5243    1.6635    4.7532 O   0  0  0  0  0  0  0  0  0  0  0  0
    0.6434   -0.1372    3.6680 C   0  0  0  0  0  0  0  0  0  0  0  0
    0.2211   -1.3789    4.1904 O   0  0  0  0  0  0  0  0  0  0  0  0
    0.1443    0.5100    0.5212 C   0  0  2  0  0  0  0  0  0  0  0  0
    1.2811    1.3056   -0.1383 C   0  0  2  0  0  0  0  0  0  0  0  0
    1.9312    2.1993    0.8347 N   0  0  0  0  0  0  0  0  0  0  0  0
    0.7762    2.0812   -1.3643 C   0  0  1  0  0  0  0  0  0  0  0  0
    1.8777    2.7221   -1.9781 O   0  0  0  0  0  0  0  0  0  0  0  0
    0.1324    1.0820   -2.3405 C   0  0  2  0  0  0  0  0  0  0  0  0
   -0.3897    1.7529   -3.4727 O   0  0  0  0  0  0  0  0  0  0  0  0
   -0.9723    0.2616   -1.6432 C   0  0  1  0  0  0  0  0  0  0  0  0
   -0.4975   -0.3329   -0.4331 O   0  0  0  0  0  0  0  0  0  0  0  0
   -2.2705    1.0522   -1.4231 C   0  0  0  0  0  0  0  0  0  0  0  0
   -3.1465    0.3836   -0.4474 N   0  0  0  0  0  0  0  0  0  0  0  0
  1  3  1  0  0  0  0
  1  2  1  1  0  0  0
  3  4  1  6  0  0  0
  5  6  1  1  0  0  0
  5  3  1  0  0  0  0
  7  9  1  0  0  0  0
  7  5  1  0  0  0  0
  7  8  1  1  0  0  0
  9 10  1  0  0  0  0
  9 11  1  6  0  0  0
 10  1  1  0  0  0  0
 11 12  1  0  0  0  0
 13 14  1  6  0  0  0
 13 21  1  0  0  0  0
 15 13  1  0  0  0  0
 16 15  1  0  0  0  0
 16 18  1  0  0  0  0
 16 17  1  1  0  0  0
 18  2  1  1  0  0  0
 18 19  1  0  0  0  0
 19 21  1  0  0  0  0
 19 20  1  6  0  0  0
 21 22  1  1  0  0  0
 23 20  1  6  0  0  0
 23 29  1  0  0  0  0
 23 24  1  0  0  0  0
 24 26  1  0  0  0  0
 24 25  1  1  0  0  0
 26 27  1  6  0  0  0
 28 26  1  0  0  0  0
 28 30  1  1  0  0  0
 29 28  1  0  0  0  0
 30 31  1  0  0  0  0
 32 27  1  6  0  0  0
 32 40  1  0  0  0  0
 32 33  1  0  0  0  0
 33 35  1  0  0  0  0
 33 34  1  1  0  0  0
 35 37  1  0  0  0  0
 35 36  1  6  0  0  0
 37 38  1  6  0  0  0
 39 37  1  0  0  0  0
 39 41  1  1  0  0  0
 40 39  1  0  0  0  0
 42 41  1  0  0  0  0
M  END
>  <CHROM.1>
-145.08445006,-151.31341519,54.27784217,61.61191074,-51.88308289,-60.20082178
-176.51748860,-49.20319160,-179.62530787,150.72499434,93.39869213,-57.03311887
71.87325321,169.30188566,-78.86375251,-148.88581737,165.30233955,-70.59082613
-58.22393989,63.72890383,-164.28440963,-169.54530219,0.44436559,3.38892031
4.07736810,-0.68273022,1.22234629,-2.84054792

>  <Name>
lig.pdb

>  <RI>
0

>  <Rbt.Current_Directory>
/home/itssahil/PROJECTS/Mol_Feturizer/New_Systems/rnas/2mxs

>  <Rbt.Executable>
rbdock ($Id: //depot/dev/client3/rdock/2013.1/src/exe/rbdock.cxx#4 $)

>  <Rbt.Library>
libRbt.so (2013.1, Build901 2013/11/27)

>  <Rbt.Parameter_File>
/export/apps/rDock/src/rDock_2013.1_src/data/scripts/dock_solv.prm

>  <Rbt.Receptor>
prm/pocket_docking_6.prm

>  <SCORE>
-34.8165

>  <SCORE.INTER>
-31.0503

>  <SCORE.INTER.CONST>
1

>  <SCORE.INTER.POLAR>
-2.95626

>  <SCORE.INTER.ROT>
9

>  <SCORE.INTER.SOLV>
18.7411

>  <SCORE.INTER.VDW>
-26.6931

>  <SCORE.INTER.norm>
-0.739293

>  <SCORE.INTRA>
-3.76615

>  <SCORE.INTRA.DIHEDRAL>
-5.07766

>  <SCORE.INTRA.DIHEDRAL.0>
30.1357

>  <SCORE.INTRA.POLAR>
-0.814057

>  <SCORE.INTRA.POLAR.0>
-0.631696

>  <SCORE.INTRA.REPUL>
0

>  <SCORE.INTRA.REPUL.0>
0

>  <SCORE.INTRA.SOLV>
-0.570963

>  <SCORE.INTRA.SOLV.lig_0>
-55.904

>  <SCORE.INTRA.VDW>
1.82595

>  <SCORE.INTRA.VDW.0>
-8.21197

>  <SCORE.INTRA.norm>
-0.0896703

>  <SCORE.RESTR>
0

>  <SCORE.RESTR.CAVITY>
0

>  <SCORE.RESTR.norm>
0

>  <SCORE.SYSTEM>
0

>  <SCORE.SYSTEM.CONST>
0

>  <SCORE.SYSTEM.DIHEDRAL>
0

>  <SCORE.SYSTEM.SOLV>
0

>  <SCORE.SYSTEM.norm>
0

>  <SCORE.heavy>
42

>  <SCORE.norm>
-0.828964

>  <RMSD>
8.978

$$$$
lig.pdb
 OpenBabel11021811453D
libRbt.so/2013.1/901 2013/11/27
 42 45  0  0  0  0  0  0  0  0999 V2000
    0.9970    4.0665    7.5424 C   0  0  2  0  0  0  0  0  0  0  0  0
   -0.2043    4.8005    7.2986 O   0  0  0  0  0  0  0  0  0  0  0  0
    0.7743    2.5630    7.3200 C   0  0  2  0  0  0  0  0  0  0  0  0
    0.2287    2.3022    5.9751 N   0  0  0  0  0  0  0  0  0  0  0  0
   -0.1349    1.9751    8.4068 C   0  0  1  0  0  0  0  0  0  0  0  0
   -0.1938    0.5692    8.2599 O   0  0  0  0  0  0  0  0  0  0  0  0
    0.4114    2.3187    9.8008 C   0  0  2  0  0  0  0  0  0  0  0  0
   -0.5195    1.9070   10.7833 O   0  0  0  0  0  0  0  0  0  0  0  0
    0.6873    3.8293    9.9435 C   0  0  2  0  0  0  0  0  0  0  0  0
    1.4806    4.3135    8.8603 O   0  0  0  0  0  0  0  0  0  0  0  0
    1.4292    4.0570   11.2743 C   0  0  0  0  0  0  0  0  0  0  0  0
    2.7547    3.4624   11.2712 O   0  0  0  0  0  0  0  0  0  0  0  0
   -1.1809    7.7495    4.3185 C   0  0  2  0  0  0  0  0  0  0  0  0
   -0.9269    8.4709    3.0555 N   0  0  0  0  0  0  0  0  0  0  0  0
   -0.0167    7.9535    5.2911 C   0  0  0  0  0  0  0  0  0  0  0  0
   -0.2045    7.1003    6.5399 C   0  0  2  0  0  0  0  0  0  0  0  0
    0.8644    7.3762    7.5080 N   0  0  0  0  0  0  0  0  0  0  0  0
   -0.2333    5.6133    6.1163 C   0  0  2  0  0  0  0  0  0  0  0  0
   -1.4611    5.3784    5.2960 C   0  0  2  0  0  0  0  0  0  0  0  0
   -1.4897    4.0047    4.9544 O   0  0  0  0  0  0  0  0  0  0  0  0
   -1.4208    6.2509    4.0557 C   0  0  1  0  0  0  0  0  0  0  0  0
   -2.6004    6.1311    3.2830 O   0  0  0  0  0  0  0  0  0  0  0  0
   -2.5765    3.5415    4.1599 C   0  0  1  0  0  0  0  0  0  0  0  0
   -2.0286    3.1973    2.7733 C   0  0  2  0  0  0  0  0  0  0  0  0
   -2.9938    3.5294    1.7930 O   0  0  0  0  0  0  0  0  0  0  0  0
   -1.7827    1.6863    2.8807 C   0  0  2  0  0  0  0  0  0  0  0  0
   -1.7305    1.0423    1.6074 O   0  0  0  0  0  0  0  0  0  0  0  0
   -2.9752    1.2846    3.7575 C   0  0  2  0  0  0  0  0  0  0  0  0
   -3.0893    2.3339    4.7085 O   0  0  0  0  0  0  0  0  0  0  0  0
   -2.7949   -0.0439    4.5012 C   0  0  0  0  0  0  0  0  0  0  0  0
   -1.6704   -0.0140    5.3542 O   0  0  0  0  0  0  0  0  0  0  0  0
   -0.4360    1.0113    1.0096 C   0  0  2  0  0  0  0  0  0  0  0  0
   -0.5158    0.8550   -0.5166 C   0  0  2  0  0  0  0  0  0  0  0  0
   -1.3542    1.9097   -1.1105 N   0  0  0  0  0  0  0  0  0  0  0  0
   -1.0143   -0.5451   -0.9051 C   0  0  1  0  0  0  0  0  0  0  0  0
   -0.9851   -0.6597   -2.3147 O   0  0  0  0  0  0  0  0  0  0  0  0
   -0.0800   -1.5880   -0.2686 C   0  0  2  0  0  0  0  0  0  0  0  0
   -0.5211   -2.9011   -0.5610 O   0  0  0  0  0  0  0  0  0  0  0  0
    0.0220   -1.3808    1.2566 C   0  0  1  0  0  0  0  0  0  0  0  0
    0.3551   -0.0289    1.5799 O   0  0  0  0  0  0  0  0  0  0  0  0
   -1.2192   -1.8644    2.0210 C   0  0  0  0  0  0  0  0  0  0  0  0
   -1.0198   -3.2168    2.5665 N   0  0  0  0  0  0  0  0  0  0  0  0
  1  3  1  0  0  0  0
  1  2  1  1  0  0  0
  3  4  1  6  0  0  0
  5  6  1  6  0  0  0
  5  3  1  0  0  0  0
  7  9  1  0  0  0  0
  7  5  1  0  0  0  0
  7  8  1  1  0  0  0
  9 10  1  0  0  0  0
  9 11  1  1  0  0  0
 10  1  1  0  0  0  0
 11 12  1  0  0  0  0
 13 14  1  6  0  0  0
 13 21  1  0  0  0  0
 15 13  1  0  0  0  0
 16 15  1  0  0  0  0
 16 18  1  0  0  0  0
 16 17  1  1  0  0  0
 18  2  1  1  0  0  0
 18 19  1  0  0  0  0
 19 21  1  0  0  0  0
 19 20  1  6  0  0  0
 21 22  1  1  0  0  0
 23 20  1  1  0  0  0
 23 29  1  0  0  0  0
 23 24  1  0  0  0  0
 24 26  1  0  0  0  0
 24 25  1  6  0  0  0
 26 27  1  6  0  0  0
 28 26  1  0  0  0  0
 28 30  1  1  0  0  0
 29 28  1  0  0  0  0
 30 31  1  0  0  0  0
 32 27  1  1  0  0  0
 32 40  1  0  0  0  0
 32 33  1  0  0  0  0
 33 35  1  0  0  0  0
 33 34  1  1  0  0  0
 35 37  1  0  0  0  0
 35 36  1  6  0  0  0
 37 38  1  1  0  0  0
 39 37  1  0  0  0  0
 39 41  1  1  0  0  0
 40 39  1  0  0  0  0
 42 41  1  0  0  0  0
M  END
>  <CHROM.1>
-109.92543756,-109.03169209,75.24766335,-173.62140305,-56.58641198,57.91172250
66.21358139,61.82860181,62.65186260,-179.68872049,109.94514813,-54.58254958
-51.65666968,88.36076638,-156.69230392,59.36322552,170.79493427,178.43501240
-65.43242957,-59.31871166,97.23229835,-72.13114131,-0.70642807,2.59674336
4.55184270,-0.88970612,1.31636230,-2.80318657

>  <Name>
lig.pdb

>  <RI>
0

>  <Rbt.Current_Directory>
/home/itssahil/PROJECTS/Mol_Feturizer/New_Systems/rnas/2mxs

>  <Rbt.Executable>
rbdock ($Id: //depot/dev/client3/rdock/2013.1/src/exe/rbdock.cxx#4 $)

>  <Rbt.Library>
libRbt.so (2013.1, Build901 2013/11/27)

>  <Rbt.Parameter_File>
/export/apps/rDock/src/rDock_2013.1_src/data/scripts/dock_solv.prm

>  <Rbt.Receptor>
prm/pocket_docking_4.prm

>  <SCORE>
-35.9838

>  <SCORE.INTER>
-34.7279

>  <SCORE.INTER.CONST>
1

>  <SCORE.INTER.POLAR>
-4.80542

>  <SCORE.INTER.ROT>
9

>  <SCORE.INTER.SOLV>
16.7791

>  <SCORE.INTER.VDW>
-22.3269

>  <SCORE.INTER.norm>
-0.826856

>  <SCORE.INTRA>
-1.25587

>  <SCORE.INTRA.DIHEDRAL>
1.9089

>  <SCORE.INTRA.DIHEDRAL.0>
30.1357

>  <SCORE.INTRA.POLAR>
-1.37897

>  <SCORE.INTRA.POLAR.0>
-0.631696

>  <SCORE.INTRA.REPUL>
0.021375

>  <SCORE.INTRA.REPUL.0>
0

>  <SCORE.INTRA.SOLV>
2.19709

>  <SCORE.INTRA.SOLV.lig_0>
-55.904

>  <SCORE.INTRA.VDW>
1.27277

>  <SCORE.INTRA.VDW.0>
-8.21197

>  <SCORE.INTRA.norm>
-0.0299016

>  <SCORE.RESTR>
0

>  <SCORE.RESTR.CAVITY>
0

>  <SCORE.RESTR.norm>
0

>  <SCORE.SYSTEM>
0

>  <SCORE.SYSTEM.CONST>
0

>  <SCORE.SYSTEM.DIHEDRAL>
0

>  <SCORE.SYSTEM.SOLV>
0

>  <SCORE.SYSTEM.norm>
0

>  <SCORE.heavy>
42

>  <SCORE.norm>
-0.856757

>  <RMSD>
8.994

$$$$
lig.pdb
 OpenBabel11021811453D
libRbt.so/2013.1/901 2013/11/27
 42 45  0  0  0  0  0  0  0  0999 V2000
    0.2089    4.3253    8.3726 C   0  0  2  0  0  0  0  0  0  0  0  0
    0.9855    4.3778    7.1745 O   0  0  0  0  0  0  0  0  0  0  0  0
    1.0004    3.6608    9.5091 C   0  0  2  0  0  0  0  0  0  0  0  0
    2.2952    4.3352    9.7168 N   0  0  0  0  0  0  0  0  0  0  0  0
    1.1963    2.1631    9.2401 C   0  0  1  0  0  0  0  0  0  0  0  0
    1.7911    1.5567   10.3715 O   0  0  0  0  0  0  0  0  0  0  0  0
   -0.1559    1.4923    8.9551 C   0  0  2  0  0  0  0  0  0  0  0  0
    0.0607    0.1526    8.5556 O   0  0  0  0  0  0  0  0  0  0  0  0
   -0.9401    2.2434    7.8600 C   0  0  2  0  0  0  0  0  0  0  0  0
   -1.0200    3.6391    8.1478 O   0  0  0  0  0  0  0  0  0  0  0  0
   -2.3578    1.6446    7.7901 C   0  0  0  0  0  0  0  0  0  0  0  0
   -3.0957    1.8378    9.0264 O   0  0  0  0  0  0  0  0  0  0  0  0
   -1.0144    7.5152    5.0093 C   0  0  2  0  0  0  0  0  0  0  0  0
   -1.2091    8.3697    3.8209 N   0  0  0  0  0  0  0  0  0  0  0  0
    0.3918    7.7118    5.5813 C   0  0  0  0  0  0  0  0  0  0  0  0
    0.6498    6.7327    6.7203 C   0  0  2  0  0  0  0  0  0  0  0  0
    1.9614    6.9941    7.3262 N   0  0  0  0  0  0  0  0  0  0  0  0
    0.5454    5.2944    6.1618 C   0  0  2  0  0  0  0  0  0  0  0  0
   -0.8706    5.0481    5.7500 C   0  0  2  0  0  0  0  0  0  0  0  0
   -0.9529    3.7146    5.2815 O   0  0  0  0  0  0  0  0  0  0  0  0
   -1.2662    6.0346    4.6675 C   0  0  1  0  0  0  0  0  0  0  0  0
   -2.6260    5.9016    4.2983 O   0  0  0  0  0  0  0  0  0  0  0  0
   -0.0527    3.3164    4.2529 C   0  0  1  0  0  0  0  0  0  0  0  0
   -0.5906    2.0239    3.6353 C   0  0  2  0  0  0  0  0  0  0  0  0
    0.4946    1.1872    3.2815 O   0  0  0  0  0  0  0  0  0  0  0  0
   -1.3691    2.5386    2.4171 C   0  0  2  0  0  0  0  0  0  0  0  0
   -1.5610    1.5357    1.4190 O   0  0  0  0  0  0  0  0  0  0  0  0
   -0.4637    3.7024    1.9954 C   0  0  2  0  0  0  0  0  0  0  0  0
   -0.0465    4.2923    3.2186 O   0  0  0  0  0  0  0  0  0  0  0  0
   -1.1595    4.7680    1.1405 C   0  0  0  0  0  0  0  0  0  0  0  0
   -0.2550    5.7643    0.7136 O   0  0  0  0  0  0  0  0  0  0  0  0
   -2.3114    1.9628    0.2838 C   0  0  2  0  0  0  0  0  0  0  0  0
   -3.2180    0.8453   -0.2542 C   0  0  2  0  0  0  0  0  0  0  0  0
   -4.0991    0.3266    0.8052 N   0  0  0  0  0  0  0  0  0  0  0  0
   -2.3910   -0.2778   -0.8979 C   0  0  1  0  0  0  0  0  0  0  0  0
   -3.2776   -1.2320   -1.4495 O   0  0  0  0  0  0  0  0  0  0  0  0
   -1.5160    0.3354   -2.0043 C   0  0  2  0  0  0  0  0  0  0  0  0
   -0.6990   -0.6537   -2.6033 O   0  0  0  0  0  0  0  0  0  0  0  0
   -0.6509    1.4863   -1.4507 C   0  0  1  0  0  0  0  0  0  0  0  0
   -1.4427    2.4413   -0.7406 O   0  0  0  0  0  0  0  0  0  0  0  0
    0.5465    1.0023   -0.6195 C   0  0  0  0  0  0  0  0  0  0  0  0
    1.5535    2.0640   -0.4612 N   0  0  0  0  0  0  0  0  0  0  0  0
  1  3  1  0  0  0  0
  1  2  1  6  0  0  0
  3  4  1  6  0  0  0
  5  6  1  1  0  0  0
  5  3  1  0  0  0  0
  7  9  1  0  0  0  0
  7  5  1  0  0  0  0
  7  8  1  6  0  0  0
  9 10  1  0  0  0  0
  9 11  1  1  0  0  0
 10  1  1  0  0  0  0
 11 12  1  0  0  0  0
 13 14  1  6  0  0  0
 13 21  1  0  0  0  0
 15 13  1  0  0  0  0
 16 15  1  0  0  0  0
 16 18  1  0  0  0  0
 16 17  1  6  0  0  0
 18  2  1  1  0  0  0
 18 19  1  0  0  0  0
 19 21  1  0  0  0  0
 19 20  1  6  0  0  0
 21 22  1  1  0  0  0
 23 20  1  1  0  0  0
 23 29  1  0  0  0  0
 23 24  1  0  0  0  0
 24 26  1  0  0  0  0
 24 25  1  6  0  0  0
 26 27  1  6  0  0  0
 28 26  1  0  0  0  0
 28 30  1  6  0  0  0
 29 28  1  0  0  0  0
 30 31  1  0  0  0  0
 32 27  1  1  0  0  0
 32 40  1  0  0  0  0
 32 33  1  0  0  0  0
 33 35  1  0  0  0  0
 33 34  1  1  0  0  0
 35 37  1  0  0  0  0
 35 36  1  6  0  0  0
 37 38  1  1  0  0  0
 39 37  1  0  0  0  0
 39 41  1  1  0  0  0
 40 39  1  0  0  0  0
 42 41  1  0  0  0  0
M  END
>  <CHROM.1>
63.73937667,-162.53842725,60.05626703,-63.86612659,65.76447978,52.73609168
63.08331099,76.70214106,-148.80217629,-54.15183843,-163.35188665,-38.72979080
-170.51554249,178.42877553,-143.70202525,-176.17457474,68.73841894,69.12045354
58.80012088,167.82584646,162.65026591,-51.70496820,-0.63009357,3.13338115
4.09199433,0.47998027,1.34884288,2.33117573

>  <Name>
lig.pdb

>  <RI>
0

>  <Rbt.Current_Directory>
/home/itssahil/PROJECTS/Mol_Feturizer/New_Systems/rnas/2mxs

>  <Rbt.Executable>
rbdock ($Id: //depot/dev/client3/rdock/2013.1/src/exe/rbdock.cxx#4 $)

>  <Rbt.Library>
libRbt.so (2013.1, Build901 2013/11/27)

>  <Rbt.Parameter_File>
/export/apps/rDock/src/rDock_2013.1_src/data/scripts/dock_solv.prm

>  <Rbt.Receptor>
prm/pocket_docking_3.prm

>  <SCORE>
-32.6839

>  <SCORE.INTER>
-32.8869

>  <SCORE.INTER.CONST>
1

>  <SCORE.INTER.POLAR>
-4.30471

>  <SCORE.INTER.ROT>
9

>  <SCORE.INTER.SOLV>
18.0415

>  <SCORE.INTER.VDW>
-23.1894

>  <SCORE.INTER.norm>
-0.783021

>  <SCORE.INTRA>
-0.48252

>  <SCORE.INTRA.DIHEDRAL>
-13.7567

>  <SCORE.INTRA.DIHEDRAL.0>
30.1357

>  <SCORE.INTRA.POLAR>
0.580296

>  <SCORE.INTRA.POLAR.0>
-0.631696

>  <SCORE.INTRA.REPUL>
0

>  <SCORE.INTRA.REPUL.0>
0

>  <SCORE.INTRA.SOLV>
0.190477

>  <SCORE.INTRA.SOLV.lig_0>
-55.904

>  <SCORE.INTRA.VDW>
4.3276

>  <SCORE.INTRA.VDW.0>
-8.21197

>  <SCORE.INTRA.norm>
-0.0114886

>  <SCORE.RESTR>
0.685441

>  <SCORE.RESTR.CAVITY>
0.685441

>  <SCORE.RESTR.norm>
0.01632

>  <SCORE.SYSTEM>
0

>  <SCORE.SYSTEM.CONST>
0

>  <SCORE.SYSTEM.DIHEDRAL>
0

>  <SCORE.SYSTEM.SOLV>
0

>  <SCORE.SYSTEM.norm>
0

>  <SCORE.heavy>
42

>  <SCORE.norm>
-0.778189

>  <RMSD>
9.023

$$$$
lig.pdb
 OpenBabel11021811453D
libRbt.so/2013.1/901 2013/11/27
 42 45  0  0  0  0  0  0  0  0999 V2000
   -0.3381    2.5479    8.5934 C   0  0  2  0  0  0  0  0  0  0  0  0
   -1.3001    3.3290    9.3048 O   0  0  0  0  0  0  0  0  0  0  0  0
    0.1401    1.3614    9.4439 C   0  0  2  0  0  0  0  0  0  0  0  0
   -0.9999    0.5492    9.9075 N   0  0  0  0  0  0  0  0  0  0  0  0
    0.9921    1.8405   10.6264 C   0  0  1  0  0  0  0  0  0  0  0  0
    1.5392    0.7203   11.2953 O   0  0  0  0  0  0  0  0  0  0  0  0
    2.1315    2.7433   10.1301 C   0  0  2  0  0  0  0  0  0  0  0  0
    2.8063    3.3000   11.2419 O   0  0  0  0  0  0  0  0  0  0  0  0
    1.6038    3.8718    9.2210 C   0  0  2  0  0  0  0  0  0  0  0  0
    0.7660    3.3534    8.1884 O   0  0  0  0  0  0  0  0  0  0  0  0
    2.8153    4.5900    8.5967 C   0  0  0  0  0  0  0  0  0  0  0  0
    2.4192    5.7284    7.7860 O   0  0  0  0  0  0  0  0  0  0  0  0
   -4.6260    5.5225    7.6746 C   0  0  2  0  0  0  0  0  0  0  0  0
   -5.2134    6.5391    6.7792 N   0  0  0  0  0  0  0  0  0  0  0  0
   -3.6390    6.1752    8.6456 C   0  0  0  0  0  0  0  0  0  0  0  0
   -2.9244    5.1167    9.4773 C   0  0  2  0  0  0  0  0  0  0  0  0
   -2.0538    5.7559   10.4718 N   0  0  0  0  0  0  0  0  0  0  0  0
   -2.1326    4.1954    8.5203 C   0  0  2  0  0  0  0  0  0  0  0  0
   -3.1080    3.4364    7.6789 C   0  0  2  0  0  0  0  0  0  0  0  0
   -2.3651    2.5702    6.8409 O   0  0  0  0  0  0  0  0  0  0  0  0
   -3.9414    4.4065    6.8631 C   0  0  1  0  0  0  0  0  0  0  0  0
   -4.9403    3.7456    6.1092 O   0  0  0  0  0  0  0  0  0  0  0  0
   -2.9712    1.3416    6.4533 C   0  0  1  0  0  0  0  0  0  0  0  0
   -2.6696    1.1191    4.9697 C   0  0  2  0  0  0  0  0  0  0  0  0
   -3.7832    0.5004    4.3534 O   0  0  0  0  0  0  0  0  0  0  0  0
   -1.4329    0.2118    5.0162 C   0  0  2  0  0  0  0  0  0  0  0  0
   -1.2393   -0.5222    3.8067 O   0  0  0  0  0  0  0  0  0  0  0  0
   -1.7771   -0.6443    6.2412 C   0  0  2  0  0  0  0  0  0  0  0  0
   -2.3658    0.2660    7.1595 O   0  0  0  0  0  0  0  0  0  0  0  0
   -0.5681   -1.3114    6.9072 C   0  0  0  0  0  0  0  0  0  0  0  0
    0.0846   -2.2019    6.0275 O   0  0  0  0  0  0  0  0  0  0  0  0
   -1.0927    0.2838    2.6393 C   0  0  2  0  0  0  0  0  0  0  0  0
   -1.0972   -0.5625    1.3572 C   0  0  2  0  0  0  0  0  0  0  0  0
   -2.3076   -1.3977    1.2822 N   0  0  0  0  0  0  0  0  0  0  0  0
    0.1788   -1.4107    1.2484 C   0  0  1  0  0  0  0  0  0  0  0  0
    0.1592   -2.0995    0.0132 O   0  0  0  0  0  0  0  0  0  0  0  0
    1.3946   -0.4706    1.3124 C   0  0  2  0  0  0  0  0  0  0  0  0
    2.6019   -1.2081    1.2593 O   0  0  0  0  0  0  0  0  0  0  0  0
    1.3518    0.4026    2.5833 C   0  0  1  0  0  0  0  0  0  0  0  0
    0.0946    1.0694    2.7179 O   0  0  0  0  0  0  0  0  0  0  0  0
    1.7360   -0.3606    3.8595 C   0  0  0  0  0  0  0  0  0  0  0  0
    3.1765   -0.2468    4.1392 N   0  0  0  0  0  0  0  0  0  0  0  0
  1  3  1  0  0  0  0
  1  2  1  1  0  0  0
  3  4  1  1  0  0  0
  5  6  1  6  0  0  0
  5  3  1  0  0  0  0
  7  9  1  0  0  0  0
  7  5  1  0  0  0  0
  7  8  1  1  0  0  0
  9 10  1  0  0  0  0
  9 11  1  6  0  0  0
 10  1  1  0  0  0  0
 11 12  1  0  0  0  0
 13 14  1  6  0  0  0
 13 21  1  0  0  0  0
 15 13  1  0  0  0  0
 16 15  1  0  0  0  0
 16 18  1  0  0  0  0
 16 17  1  1  0  0  0
 18  2  1  1  0  0  0
 18 19  1  0  0  0  0
 19 21  1  0  0  0  0
 19 20  1  6  0  0  0
 21 22  1  1  0  0  0
 23 20  1  1  0  0  0
 23 29  1  0  0  0  0
 23 24  1  0  0  0  0
 24 26  1  0  0  0  0
 24 25  1  1  0  0  0
 26 27  1  6  0  0  0
 28 26  1  0  0  0  0
 28 30  1  1  0  0  0
 29 28  1  0  0  0  0
 30 31  1  0  0  0  0
 32 27  1  1  0  0  0
 32 40  1  0  0  0  0
 32 33  1  0  0  0  0
 33 35  1  0  0  0  0
 33 34  1  1  0  0  0
 35 37  1  0  0  0  0
 35 36  1  6  0  0  0
 37 38  1  1  0  0  0
 39 37  1  0  0  0  0
 39 41  1  1  0  0  0
 40 39  1  0  0  0  0
 42 41  1  0  0  0  0
M  END
>  <CHROM.1>
-170.50971260,-161.04450586,60.15414546,-63.33892971,66.16863530,63.65731468
-176.36148228,68.53964232,-62.49692228,149.71814533,137.77251166,-59.52508686
-179.04597069,58.51982359,-171.56531183,-61.69005556,-55.84249753,66.59857712
164.19008073,176.11117174,91.93101312,-63.22397392,-0.76336984,1.74351395
6.34420144,-1.71978587,0.41635164,-2.13367883

>  <Name>
lig.pdb

>  <RI>
0

>  <Rbt.Current_Directory>
/home/itssahil/PROJECTS/Mol_Feturizer/New_Systems/rnas/2mxs

>  <Rbt.Executable>
rbdock ($Id: //depot/dev/client3/rdock/2013.1/src/exe/rbdock.cxx#4 $)

>  <Rbt.Library>
libRbt.so (2013.1, Build901 2013/11/27)

>  <Rbt.Parameter_File>
/export/apps/rDock/src/rDock_2013.1_src/data/scripts/dock_solv.prm

>  <Rbt.Receptor>
prm/pocket_docking_7.prm

>  <SCORE>
-25.7264

>  <SCORE.INTER>
-18.959

>  <SCORE.INTER.CONST>
1

>  <SCORE.INTER.POLAR>
-2.28542

>  <SCORE.INTER.ROT>
9

>  <SCORE.INTER.SOLV>
17.2773

>  <SCORE.INTER.VDW>
-20.3804

>  <SCORE.INTER.norm>
-0.451405

>  <SCORE.INTRA>
-6.76742

>  <SCORE.INTRA.DIHEDRAL>
-12.7755

>  <SCORE.INTRA.DIHEDRAL.0>
30.1357

>  <SCORE.INTRA.POLAR>
-0.40887

>  <SCORE.INTRA.POLAR.0>
-0.631696

>  <SCORE.INTRA.REPUL>
0

>  <SCORE.INTRA.REPUL.0>
0

>  <SCORE.INTRA.SOLV>
-0.796989

>  <SCORE.INTRA.SOLV.lig_0>
-55.904

>  <SCORE.INTRA.VDW>
1.409

>  <SCORE.INTRA.VDW.0>
-8.21197

>  <SCORE.INTRA.norm>
-0.161129

>  <SCORE.RESTR>
0

>  <SCORE.RESTR.CAVITY>
0

>  <SCORE.RESTR.norm>
0

>  <SCORE.SYSTEM>
0

>  <SCORE.SYSTEM.CONST>
0

>  <SCORE.SYSTEM.DIHEDRAL>
0

>  <SCORE.SYSTEM.SOLV>
0

>  <SCORE.SYSTEM.norm>
0

>  <SCORE.heavy>
42

>  <SCORE.norm>
-0.612534

>  <RMSD>
9.044

$$$$
lig.pdb
 OpenBabel11021811453D
libRbt.so/2013.1/901 2013/11/27
 42 45  0  0  0  0  0  0  0  0999 V2000
   -3.7899    5.2766    6.6716 C   0  0  2  0  0  0  0  0  0  0  0  0
   -2.9283    6.2212    6.0337 O   0  0  0  0  0  0  0  0  0  0  0  0
   -5.2475    5.4822    6.2326 C   0  0  2  0  0  0  0  0  0  0  0  0
   -5.3688    5.4393    4.7636 N   0  0  0  0  0  0  0  0  0  0  0  0
   -5.8110    6.7941    6.7937 C   0  0  1  0  0  0  0  0  0  0  0  0
   -7.1924    6.8759    6.4995 O   0  0  0  0  0  0  0  0  0  0  0  0
   -5.6106    6.8515    8.3157 C   0  0  2  0  0  0  0  0  0  0  0  0
   -5.9904    8.1289    8.7904 O   0  0  0  0  0  0  0  0  0  0  0  0
   -4.1461    6.5642    8.7045 C   0  0  2  0  0  0  0  0  0  0  0  0
   -3.6746    5.3656    8.0895 O   0  0  0  0  0  0  0  0  0  0  0  0
   -4.0760    6.4250   10.2371 C   0  0  0  0  0  0  0  0  0  0  0  0
   -2.7170    6.2182   10.7067 O   0  0  0  0  0  0  0  0  0  0  0  0
    1.2475    7.0491    6.6728 C   0  0  2  0  0  0  0  0  0  0  0  0
    2.4297    7.2352    7.5377 N   0  0  0  0  0  0  0  0  0  0  0  0
    0.1683    8.0782    7.0184 C   0  0  0  0  0  0  0  0  0  0  0  0
   -1.1066    7.8047    6.2293 C   0  0  2  0  0  0  0  0  0  0  0  0
   -2.1008    8.8525    6.4932 N   0  0  0  0  0  0  0  0  0  0  0  0
   -1.6281    6.4007    6.6140 C   0  0  2  0  0  0  0  0  0  0  0  0
   -0.6457    5.3821    6.1315 C   0  0  2  0  0  0  0  0  0  0  0  0
   -1.1616    4.1043    6.4563 O   0  0  0  0  0  0  0  0  0  0  0  0
    0.6984    5.6153    6.7951 C   0  0  1  0  0  0  0  0  0  0  0  0
    1.6908    4.7298    6.3111 O   0  0  0  0  0  0  0  0  0  0  0  0
   -1.9928    3.4611    5.4960 C   0  0  1  0  0  0  0  0  0  0  0  0
   -1.2585    3.4813    4.1537 C   0  0  2  0  0  0  0  0  0  0  0  0
   -2.1975    3.6525    3.1089 O   0  0  0  0  0  0  0  0  0  0  0  0
   -0.5804    2.1049    4.1270 C   0  0  2  0  0  0  0  0  0  0  0  0
   -0.2365    1.6829    2.8070 O   0  0  0  0  0  0  0  0  0  0  0  0
   -1.6636    1.2618    4.8113 C   0  0  2  0  0  0  0  0  0  0  0  0
   -2.1621    2.0941    5.8491 O   0  0  0  0  0  0  0  0  0  0  0  0
   -1.1533   -0.0474    5.4247 C   0  0  0  0  0  0  0  0  0  0  0  0
   -2.2076   -0.8117    5.9700 O   0  0  0  0  0  0  0  0  0  0  0  0
    1.1633    1.5386    2.5749 C   0  0  2  0  0  0  0  0  0  0  0  0
    1.5953    2.2047    1.2597 C   0  0  2  0  0  0  0  0  0  0  0  0
    1.1912    3.6202    1.2292 N   0  0  0  0  0  0  0  0  0  0  0  0
    1.0508    1.4381    0.0450 C   0  0  1  0  0  0  0  0  0  0  0  0
    1.5497    2.0438   -1.1318 O   0  0  0  0  0  0  0  0  0  0  0  0
    1.5307   -0.0204    0.1354 C   0  0  2  0  0  0  0  0  0  0  0  0
    1.0193   -0.7840   -0.9416 O   0  0  0  0  0  0  0  0  0  0  0  0
    1.1274   -0.6525    1.4835 C   0  0  1  0  0  0  0  0  0  0  0  0
    1.5341    0.1618    2.5857 O   0  0  0  0  0  0  0  0  0  0  0  0
   -0.3614   -1.0217    1.5617 C   0  0  0  0  0  0  0  0  0  0  0  0
   -0.7079   -2.0624    0.5803 N   0  0  0  0  0  0  0  0  0  0  0  0
  1  3  1  0  0  0  0
  1  2  1  6  0  0  0
  3  4  1  6  0  0  0
  5  6  1  1  0  0  0
  5  3  1  0  0  0  0
  7  9  1  0  0  0  0
  7  5  1  0  0  0  0
  7  8  1  6  0  0  0
  9 10  1  0  0  0  0
  9 11  1  1  0  0  0
 10  1  1  0  0  0  0
 11 12  1  0  0  0  0
 13 14  1  1  0  0  0
 13 21  1  0  0  0  0
 15 13  1  0  0  0  0
 16 15  1  0  0  0  0
 16 18  1  0  0  0  0
 16 17  1  1  0  0  0
 18  2  1  6  0  0  0
 18 19  1  0  0  0  0
 19 21  1  0  0  0  0
 19 20  1  1  0  0  0
 21 22  1  6  0  0  0
 23 20  1  1  0  0  0
 23 29  1  0  0  0  0
 23 24  1  0  0  0  0
 24 26  1  0  0  0  0
 24 25  1  6  0  0  0
 26 27  1  6  0  0  0
 28 26  1  0  0  0  0
 28 30  1  1  0  0  0
 29 28  1  0  0  0  0
 30 31  1  0  0  0  0
 32 27  1  6  0  0  0
 32 40  1  0  0  0  0
 32 33  1  0  0  0  0
 33 35  1  0  0  0  0
 33 34  1  1  0  0  0
 35 37  1  0  0  0  0
 35 36  1  6  0  0  0
 37 38  1  6  0  0  0
 39 37  1  0  0  0  0
 39 41  1  6  0  0  0
 40 39  1  0  0  0  0
 42 41  1  0  0  0  0
M  END
>  <CHROM.1>
-155.64284584,163.02359662,-177.32949187,60.50243565,63.28365729,61.27378902
-177.11831599,42.26987399,-175.29656663,90.09502789,50.99632503,-56.21939632
177.79109132,115.87753288,-133.06002550,-176.61598913,178.00530187,-88.14352282
170.21806332,64.40771238,63.92525556,-40.03323939,-1.43534972,3.90406230
4.96045125,2.02852650,0.29856834,0.65499095

>  <Name>
lig.pdb

>  <RI>
4.11275e+07

>  <Rbt.Current_Directory>
/home/itssahil/PROJECTS/Mol_Feturizer/New_Systems/rnas/2mxs

>  <Rbt.Executable>
rbdock ($Id: //depot/dev/client3/rdock/2013.1/src/exe/rbdock.cxx#4 $)

>  <Rbt.Library>
libRbt.so (2013.1, Build901 2013/11/27)

>  <Rbt.Parameter_File>
/export/apps/rDock/src/rDock_2013.1_src/data/scripts/dock_solv.prm

>  <Rbt.Receptor>
prm/pocket_docking_8.prm

>  <SCORE>
-22.8486

>  <SCORE.INTER>
-23.7076

>  <SCORE.INTER.CONST>
1

>  <SCORE.INTER.POLAR>
-3.32697

>  <SCORE.INTER.ROT>
9

>  <SCORE.INTER.SOLV>
17.4484

>  <SCORE.INTER.VDW>
-20.1313

>  <SCORE.INTER.norm>
-0.564467

>  <SCORE.INTRA>
0.858973

>  <SCORE.INTRA.DIHEDRAL>
-4.06921

>  <SCORE.INTRA.DIHEDRAL.0>
30.1357

>  <SCORE.INTRA.POLAR>
-0.176595

>  <SCORE.INTRA.POLAR.0>
-0.631696

>  <SCORE.INTRA.REPUL>
0.0236294

>  <SCORE.INTRA.REPUL.0>
0

>  <SCORE.INTRA.SOLV>
-0.996017

>  <SCORE.INTRA.SOLV.lig_0>
-55.904

>  <SCORE.INTRA.VDW>
3.87387

>  <SCORE.INTRA.VDW.0>
-8.21197

>  <SCORE.INTRA.norm>
0.0204517

>  <SCORE.RESTR>
0

>  <SCORE.RESTR.CAVITY>
0

>  <SCORE.RESTR.norm>
0

>  <SCORE.SYSTEM>
0

>  <SCORE.SYSTEM.CONST>
0

>  <SCORE.SYSTEM.DIHEDRAL>
0

>  <SCORE.SYSTEM.SOLV>
0

>  <SCORE.SYSTEM.norm>
0

>  <SCORE.heavy>
42

>  <SCORE.norm>
-0.544015

>  <RMSD>
9.059

$$$$
lig.pdb
 OpenBabel11021811453D
libRbt.so/2013.1/901 2013/11/27
 42 45  0  0  0  0  0  0  0  0999 V2000
   -1.5611    4.1697    7.6095 C   0  0  2  0  0  0  0  0  0  0  0  0
   -1.3485    5.5826    7.6087 O   0  0  0  0  0  0  0  0  0  0  0  0
   -1.9008    3.6683    9.0211 C   0  0  2  0  0  0  0  0  0  0  0  0
   -3.0509    4.4022    9.5808 N   0  0  0  0  0  0  0  0  0  0  0  0
   -0.6818    3.7654    9.9474 C   0  0  1  0  0  0  0  0  0  0  0  0
   -0.9849    3.1568   11.1881 O   0  0  0  0  0  0  0  0  0  0  0  0
    0.5253    3.0569    9.3144 C   0  0  2  0  0  0  0  0  0  0  0  0
    1.6745    3.2925   10.1052 O   0  0  0  0  0  0  0  0  0  0  0  0
    0.7749    3.5441    7.8726 C   0  0  2  0  0  0  0  0  0  0  0  0
   -0.4204    3.4874    7.0946 O   0  0  0  0  0  0  0  0  0  0  0  0
    1.8502    2.6397    7.2409 C   0  0  0  0  0  0  0  0  0  0  0  0
    1.4676    1.2385    7.2598 O   0  0  0  0  0  0  0  0  0  0  0  0
   -1.3798    8.1338    4.1415 C   0  0  2  0  0  0  0  0  0  0  0  0
   -0.8343    8.5974    2.8501 N   0  0  0  0  0  0  0  0  0  0  0  0
   -0.3407    8.3094    5.2517 C   0  0  0  0  0  0  0  0  0  0  0  0
   -0.8428    7.7048    6.5576 C   0  0  2  0  0  0  0  0  0  0  0  0
    0.1165    7.9644    7.6383 N   0  0  0  0  0  0  0  0  0  0  0  0
   -1.0739    6.1915    6.3386 C   0  0  2  0  0  0  0  0  0  0  0  0
   -2.2011    6.0197    5.3713 C   0  0  2  0  0  0  0  0  0  0  0  0
   -2.4232    4.6300    5.2174 O   0  0  0  0  0  0  0  0  0  0  0  0
   -1.8405    6.6670    4.0476 C   0  0  1  0  0  0  0  0  0  0  0  0
   -2.9070    6.6078    3.1191 O   0  0  0  0  0  0  0  0  0  0  0  0
   -3.5059    4.2193    4.3891 C   0  0  1  0  0  0  0  0  0  0  0  0
   -2.9811    4.1041    2.9564 C   0  0  2  0  0  0  0  0  0  0  0  0
   -3.9914    4.5126    2.0535 O   0  0  0  0  0  0  0  0  0  0  0  0
   -2.6497    2.6099    2.8449 C   0  0  2  0  0  0  0  0  0  0  0  0
   -2.5998    2.1536    1.4928 O   0  0  0  0  0  0  0  0  0  0  0  0
   -3.7921    2.0211    3.6818 C   0  0  2  0  0  0  0  0  0  0  0  0
   -3.9354    2.9193    4.7732 O   0  0  0  0  0  0  0  0  0  0  0  0
   -3.5175    0.6148    4.2271 C   0  0  0  0  0  0  0  0  0  0  0  0
   -2.4403    0.6119    5.1395 O   0  0  0  0  0  0  0  0  0  0  0  0
   -2.1853    0.7977    1.3379 C   0  0  2  0  0  0  0  0  0  0  0  0
   -1.5610    0.5461   -0.0430 C   0  0  2  0  0  0  0  0  0  0  0  0
   -0.4490    1.4776   -0.2955 N   0  0  0  0  0  0  0  0  0  0  0  0
   -2.6207    0.6215   -1.1525 C   0  0  1  0  0  0  0  0  0  0  0  0
   -2.0074    0.2978   -2.3853 O   0  0  0  0  0  0  0  0  0  0  0  0
   -3.7336   -0.3906   -0.8317 C   0  0  2  0  0  0  0  0  0  0  0  0
   -4.7607   -0.3313   -1.8043 O   0  0  0  0  0  0  0  0  0  0  0  0
   -4.3114   -0.1485    0.5779 C   0  0  1  0  0  0  0  0  0  0  0  0
   -3.2782   -0.0898    1.5640 O   0  0  0  0  0  0  0  0  0  0  0  0
   -5.2451    1.0687    0.6523 C   0  0  0  0  0  0  0  0  0  0  0  0
   -6.5742    0.7594    0.1007 N   0  0  0  0  0  0  0  0  0  0  0  0
  1  3  1  0  0  0  0
  1  2  1  1  0  0  0
  3  4  1  1  0  0  0
  5  6  1  1  0  0  0
  5  3  1  0  0  0  0
  7  9  1  0  0  0  0
  7  5  1  0  0  0  0
  7  8  1  1  0  0  0
  9 10  1  0  0  0  0
  9 11  1  6  0  0  0
 10  1  1  0  0  0  0
 11 12  1  0  0  0  0
 13 14  1  6  0  0  0
 13 21  1  0  0  0  0
 15 13  1  0  0  0  0
 16 15  1  0  0  0  0
 16 18  1  0  0  0  0
 16 17  1  1  0  0  0
 18  2  1  1  0  0  0
 18 19  1  0  0  0  0
 19 21  1  0  0  0  0
 19 20  1  6  0  0  0
 21 22  1  6  0  0  0
 23 20  1  1  0  0  0
 23 29  1  0  0  0  0
 23 24  1  0  0  0  0
 24 26  1  0  0  0  0
 24 25  1  6  0  0  0
 26 27  1  6  0  0  0
 28 26  1  0  0  0  0
 28 30  1  1  0  0  0
 29 28  1  0  0  0  0
 30 31  1  0  0  0  0
 32 27  1  6  0  0  0
 32 40  1  0  0  0  0
 32 33  1  0  0  0  0
 33 35  1  0  0  0  0
 33 34  1  6  0  0  0
 35 37  1  0  0  0  0
 35 36  1  6  0  0  0
 37 38  1  6  0  0  0
 39 37  1  0  0  0  0
 39 41  1  6  0  0  0
 40 39  1  0  0  0  0
 42 41  1  0  0  0  0
M  END
>  <CHROM.1>
-178.65931513,-177.61900085,-54.25490659,65.99348936,-179.26655794,-173.22611249
57.21435969,177.27484866,-47.82651810,176.75255663,88.61358317,74.25302014
-48.95485276,175.00135784,-154.68489387,64.31564652,62.68966680,175.88505405
61.00307925,73.53513929,77.73676196,-161.36349180,-1.98814924,3.34373273
4.36204585,-0.30119983,1.23203325,2.99352082

>  <Name>
lig.pdb

>  <RI>
4.11275e+07

>  <Rbt.Current_Directory>
/home/itssahil/PROJECTS/Mol_Feturizer/New_Systems/rnas/2mxs

>  <Rbt.Executable>
rbdock ($Id: //depot/dev/client3/rdock/2013.1/src/exe/rbdock.cxx#4 $)

>  <Rbt.Library>
libRbt.so (2013.1, Build901 2013/11/27)

>  <Rbt.Parameter_File>
/export/apps/rDock/src/rDock_2013.1_src/data/scripts/dock_solv.prm

>  <Rbt.Receptor>
prm/pocket_docking_8.prm

>  <SCORE>
-35.0343

>  <SCORE.INTER>
-33.9006

>  <SCORE.INTER.CONST>
1

>  <SCORE.INTER.POLAR>
-4.928

>  <SCORE.INTER.ROT>
9

>  <SCORE.INTER.SOLV>
19.623

>  <SCORE.INTER.VDW>
-22.3147

>  <SCORE.INTER.norm>
-0.807157

>  <SCORE.INTRA>
-1.17517

>  <SCORE.INTRA.DIHEDRAL>
-17.9473

>  <SCORE.INTRA.DIHEDRAL.0>
30.1357

>  <SCORE.INTRA.POLAR>
-0.0337996

>  <SCORE.INTRA.POLAR.0>
-0.631696

>  <SCORE.INTRA.REPUL>
0

>  <SCORE.INTRA.REPUL.0>
0

>  <SCORE.INTRA.SOLV>
0.845448

>  <SCORE.INTRA.SOLV.lig_0>
-55.904

>  <SCORE.INTRA.VDW>
7.49065

>  <SCORE.INTRA.VDW.0>
-8.21197

>  <SCORE.INTRA.norm>
-0.0279803

>  <SCORE.RESTR>
0.0414558

>  <SCORE.RESTR.CAVITY>
0.0414558

>  <SCORE.RESTR.norm>
0.000987044

>  <SCORE.SYSTEM>
0

>  <SCORE.SYSTEM.CONST>
0

>  <SCORE.SYSTEM.DIHEDRAL>
0

>  <SCORE.SYSTEM.SOLV>
0

>  <SCORE.SYSTEM.norm>
0

>  <SCORE.heavy>
42

>  <SCORE.norm>
-0.83415

>  <RMSD>
9.073

$$$$
lig.pdb
 OpenBabel11021811453D
libRbt.so/2013.1/901 2013/11/27
 42 45  0  0  0  0  0  0  0  0999 V2000
   -0.5214    2.2070    0.8273 C   0  0  2  0  0  0  0  0  0  0  0  0
   -1.6902    2.8206    1.3739 O   0  0  0  0  0  0  0  0  0  0  0  0
   -0.8992    1.1120   -0.1817 C   0  0  2  0  0  0  0  0  0  0  0  0
   -1.7885    1.6435   -1.2310 N   0  0  0  0  0  0  0  0  0  0  0  0
   -1.5383   -0.0902    0.5251 C   0  0  1  0  0  0  0  0  0  0  0  0
   -1.7319   -1.1354   -0.4085 O   0  0  0  0  0  0  0  0  0  0  0  0
   -0.6299   -0.5843    1.6611 C   0  0  2  0  0  0  0  0  0  0  0  0
   -1.3043   -1.5859    2.3982 O   0  0  0  0  0  0  0  0  0  0  0  0
   -0.2208    0.5686    2.6001 C   0  0  2  0  0  0  0  0  0  0  0  0
    0.3003    1.6742    1.8631 O   0  0  0  0  0  0  0  0  0  0  0  0
    0.8518    0.0383    3.5705 C   0  0  0  0  0  0  0  0  0  0  0  0
    2.1741    0.0213    2.9692 O   0  0  0  0  0  0  0  0  0  0  0  0
   -2.0177    6.8563    2.8356 C   0  0  2  0  0  0  0  0  0  0  0  0
   -1.6563    7.9489    3.7608 N   0  0  0  0  0  0  0  0  0  0  0  0
   -2.6096    5.6766    3.6109 C   0  0  0  0  0  0  0  0  0  0  0  0
   -2.8542    4.4927    2.6828 C   0  0  2  0  0  0  0  0  0  0  0  0
   -3.5119    3.4026    3.4142 N   0  0  0  0  0  0  0  0  0  0  0  0
   -1.4982    4.0532    2.0832 C   0  0  2  0  0  0  0  0  0  0  0  0
   -0.9965    5.1466    1.1954 C   0  0  2  0  0  0  0  0  0  0  0  0
    0.2227    4.7076    0.6251 O   0  0  0  0  0  0  0  0  0  0  0  0
   -0.7972    6.4123    2.0075 C   0  0  1  0  0  0  0  0  0  0  0  0
   -0.4021    7.5054    1.2000 O   0  0  0  0  0  0  0  0  0  0  0  0
    0.3169    4.6759   -0.7952 C   0  0  1  0  0  0  0  0  0  0  0  0
    1.1362    5.8906   -1.2365 C   0  0  2  0  0  0  0  0  0  0  0  0
    0.6225    6.3820   -2.4602 O   0  0  0  0  0  0  0  0  0  0  0  0
    2.5479    5.3049   -1.3743 C   0  0  2  0  0  0  0  0  0  0  0  0
    3.3921    6.0885   -2.2181 O   0  0  0  0  0  0  0  0  0  0  0  0
    2.2060    3.9126   -1.9190 C   0  0  2  0  0  0  0  0  0  0  0  0
    1.0440    3.5230   -1.2006 O   0  0  0  0  0  0  0  0  0  0  0  0
    3.3011    2.8617   -1.7023 C   0  0  0  0  0  0  0  0  0  0  0  0
    3.2070    2.2684   -0.4247 O   0  0  0  0  0  0  0  0  0  0  0  0
    3.7048    7.3834   -1.7086 C   0  0  2  0  0  0  0  0  0  0  0  0
    3.6633    8.4548   -2.8088 C   0  0  2  0  0  0  0  0  0  0  0  0
    2.3622    8.4510   -3.4982 N   0  0  0  0  0  0  0  0  0  0  0  0
    4.8247    8.2784   -3.7986 C   0  0  1  0  0  0  0  0  0  0  0  0
    4.7856    9.3386   -4.7341 O   0  0  0  0  0  0  0  0  0  0  0  0
    6.1451    8.3146   -3.0105 C   0  0  2  0  0  0  0  0  0  0  0  0
    7.2494    8.1127   -3.8731 O   0  0  0  0  0  0  0  0  0  0  0  0
    6.1439    7.2635   -1.8814 C   0  0  1  0  0  0  0  0  0  0  0  0
    4.9766    7.3751   -1.0639 O   0  0  0  0  0  0  0  0  0  0  0  0
    6.3562    5.8284   -2.3855 C   0  0  0  0  0  0  0  0  0  0  0  0
    6.5450    4.8899   -1.2676 N   0  0  0  0  0  0  0  0  0  0  0  0
  1  3  1  0  0  0  0
  1  2  1  1  0  0  0
  3  4  1  6  0  0  0
  5  6  1  6  0  0  0
  5  3  1  0  0  0  0
  7  9  1  0  0  0  0
  7  5  1  0  0  0  0
  7  8  1  1  0  0  0
  9 10  1  0  0  0  0
  9 11  1  1  0  0  0
 10  1  1  0  0  0  0
 11 12  1  0  0  0  0
 13 14  1  1  0  0  0
 13 21  1  0  0  0  0
 15 13  1  0  0  0  0
 16 15  1  0  0  0  0
 16 18  1  0  0  0  0
 16 17  1  1  0  0  0
 18  2  1  6  0  0  0
 18 19  1  0  0  0  0
 19 21  1  0  0  0  0
 19 20  1  1  0  0  0
 21 22  1  6  0  0  0
 23 20  1  1  0  0  0
 23 29  1  0  0  0  0
 23 24  1  0  0  0  0
 24 26  1  0  0  0  0
 24 25  1  6  0  0  0
 26 27  1  6  0  0  0
 28 26  1  0  0  0  0
 28 30  1  1  0  0  0
 29 28  1  0  0  0  0
 30 31  1  0  0  0  0
 32 27  1  6  0  0  0
 32 40  1  0  0  0  0
 32 33  1  0  0  0  0
 33 35  1  0  0  0  0
 33 34  1  6  0  0  0
 35 37  1  0  0  0  0
 35 36  1  6  0  0  0
 37 38  1  6  0  0  0
 39 37  1  0  0  0  0
 39 41  1  6  0  0  0
 40 39  1  0  0  0  0
 42 41  1  0  0  0  0
M  END
>  <CHROM.1>
-175.71985022,-165.91607109,-111.20986573,66.33639422,-173.78034965,72.71481140
81.07927066,66.95944927,61.78456687,122.86732150,102.94506983,162.88059169
-22.45996651,66.18452779,-138.81494439,84.77235383,172.83357799,107.06098307
-166.80635312,-47.55812314,171.64978030,56.62423772,1.24006528,4.44654343
-0.10961581,-2.44285289,0.60359999,-0.09016990

>  <Name>
lig.pdb

>  <RI>
0

>  <Rbt.Current_Directory>
/home/itssahil/PROJECTS/Mol_Feturizer/New_Systems/rnas/2mxs

>  <Rbt.Executable>
rbdock ($Id: //depot/dev/client3/rdock/2013.1/src/exe/rbdock.cxx#4 $)

>  <Rbt.Library>
libRbt.so (2013.1, Build901 2013/11/27)

>  <Rbt.Parameter_File>
/export/apps/rDock/src/rDock_2013.1_src/data/scripts/dock_solv.prm

>  <Rbt.Receptor>
prm/pocket_docking_6.prm

>  <SCORE>
-32.5048

>  <SCORE.INTER>
-42.1529

>  <SCORE.INTER.CONST>
1

>  <SCORE.INTER.POLAR>
-5.42241

>  <SCORE.INTER.ROT>
9

>  <SCORE.INTER.SOLV>
19.8204

>  <SCORE.INTER.VDW>
-26.2341

>  <SCORE.INTER.norm>
-1.00364

>  <SCORE.INTRA>
9.26073

>  <SCORE.INTRA.DIHEDRAL>
9.686

>  <SCORE.INTRA.DIHEDRAL.0>
30.1357

>  <SCORE.INTRA.POLAR>
-0.382787

>  <SCORE.INTRA.POLAR.0>
-0.631696

>  <SCORE.INTRA.REPUL>
0.283386

>  <SCORE.INTRA.REPUL.0>
0

>  <SCORE.INTRA.SOLV>
0.343458

>  <SCORE.INTRA.SOLV.lig_0>
-55.904

>  <SCORE.INTRA.VDW>
4.13055

>  <SCORE.INTRA.VDW.0>
-8.21197

>  <SCORE.INTRA.norm>
0.220494

>  <SCORE.RESTR>
0.387366

>  <SCORE.RESTR.CAVITY>
0.387366

>  <SCORE.RESTR.norm>
0.00922301

>  <SCORE.SYSTEM>
0

>  <SCORE.SYSTEM.CONST>
0

>  <SCORE.SYSTEM.DIHEDRAL>
0

>  <SCORE.SYSTEM.SOLV>
0

>  <SCORE.SYSTEM.norm>
0

>  <SCORE.heavy>
42

>  <SCORE.norm>
-0.773925

>  <RMSD>
9.090

$$$$
lig.pdb
 OpenBabel11021811453D
libRbt.so/2013.1/901 2013/11/27
 42 45  0  0  0  0  0  0  0  0999 V2000
   -3.9208    0.2929    5.0285 C   0  0  2  0  0  0  0  0  0  0  0  0
   -4.6369    0.8620    6.1261 O   0  0  0  0  0  0  0  0  0  0  0  0
   -4.8119   -0.6765    4.2375 C   0  0  2  0  0  0  0  0  0  0  0  0
   -6.0574   -0.0164    3.8042 N   0  0  0  0  0  0  0  0  0  0  0  0
   -5.1133   -1.9386    5.0558 C   0  0  1  0  0  0  0  0  0  0  0  0
   -5.8037   -2.8702    4.2452 O   0  0  0  0  0  0  0  0  0  0  0  0
   -3.8069   -2.5714    5.5585 C   0  0  2  0  0  0  0  0  0  0  0  0
   -4.1106   -3.6370    6.4381 O   0  0  0  0  0  0  0  0  0  0  0  0
   -2.9180   -1.5371    6.2786 C   0  0  2  0  0  0  0  0  0  0  0  0
   -2.7411   -0.3657    5.4828 O   0  0  0  0  0  0  0  0  0  0  0  0
   -1.5503   -2.1904    6.5543 C   0  0  0  0  0  0  0  0  0  0  0  0
   -0.6353   -1.2833    7.2252 O   0  0  0  0  0  0  0  0  0  0  0  0
   -3.3601    3.6067    9.1868 C   0  0  2  0  0  0  0  0  0  0  0  0
   -2.3614    4.1433   10.1328 N   0  0  0  0  0  0  0  0  0  0  0  0
   -3.6604    2.1399    9.5055 C   0  0  0  0  0  0  0  0  0  0  0  0
   -4.5818    1.5390    8.4505 C   0  0  2  0  0  0  0  0  0  0  0  0
   -4.9426    0.1637    8.8167 N   0  0  0  0  0  0  0  0  0  0  0  0
   -3.8662    1.6057    7.0812 C   0  0  2  0  0  0  0  0  0  0  0  0
   -3.7166    3.0423    6.6947 C   0  0  2  0  0  0  0  0  0  0  0  0
   -3.0982    3.0795    5.4216 O   0  0  0  0  0  0  0  0  0  0  0  0
   -2.8788    3.7653    7.7323 C   0  0  1  0  0  0  0  0  0  0  0  0
   -2.7746    5.1503    7.4602 O   0  0  0  0  0  0  0  0  0  0  0  0
   -3.6463    3.9569    4.4436 C   0  0  1  0  0  0  0  0  0  0  0  0
   -2.4830    4.6705    3.7514 C   0  0  2  0  0  0  0  0  0  0  0  0
   -2.8643    5.9984    3.4449 O   0  0  0  0  0  0  0  0  0  0  0  0
   -2.2639    3.8088    2.5005 C   0  0  2  0  0  0  0  0  0  0  0  0
   -1.5777    4.5069    1.4610 O   0  0  0  0  0  0  0  0  0  0  0  0
   -3.7160    3.4362    2.1768 C   0  0  2  0  0  0  0  0  0  0  0  0
   -4.3152    3.1997    3.4430 O   0  0  0  0  0  0  0  0  0  0  0  0
   -3.8692    2.1802    1.3110 C   0  0  0  0  0  0  0  0  0  0  0  0
   -5.1315    1.5746    1.4921 O   0  0  0  0  0  0  0  0  0  0  0  0
   -0.2407    4.8859    1.7816 C   0  0  2  0  0  0  0  0  0  0  0  0
    0.1239    6.2531    1.1836 C   0  0  2  0  0  0  0  0  0  0  0  0
   -0.8396    7.2847    1.6027 N   0  0  0  0  0  0  0  0  0  0  0  0
    0.2360    6.1769   -0.3465 C   0  0  1  0  0  0  0  0  0  0  0  0
    0.6564    7.4372   -0.8318 O   0  0  0  0  0  0  0  0  0  0  0  0
    1.2720    5.0979   -0.7050 C   0  0  2  0  0  0  0  0  0  0  0  0
    1.3829    4.9564   -2.1093 O   0  0  0  0  0  0  0  0  0  0  0  0
    0.9108    3.7468   -0.0541 C   0  0  1  0  0  0  0  0  0  0  0  0
    0.6809    3.8873    1.3498 O   0  0  0  0  0  0  0  0  0  0  0  0
   -0.2483    3.0236   -0.7556 C   0  0  0  0  0  0  0  0  0  0  0  0
   -0.6289    1.7973   -0.0362 N   0  0  0  0  0  0  0  0  0  0  0  0
  1  3  1  0  0  0  0
  1  2  1  1  0  0  0
  3  4  1  1  0  0  0
  5  6  1  6  0  0  0
  5  3  1  0  0  0  0
  7  9  1  0  0  0  0
  7  5  1  0  0  0  0
  7  8  1  1  0  0  0
  9 10  1  0  0  0  0
  9 11  1  6  0  0  0
 10  1  1  0  0  0  0
 11 12  1  0  0  0  0
 13 14  1  1  0  0  0
 13 21  1  0  0  0  0
 15 13  1  0  0  0  0
 16 15  1  0  0  0  0
 16 18  1  0  0  0  0
 16 17  1  1  0  0  0
 18  2  1  6  0  0  0
 18 19  1  0  0  0  0
 19 21  1  0  0  0  0
 19 20  1  6  0  0  0
 21 22  1  6  0  0  0
 23 20  1  1  0  0  0
 23 29  1  0  0  0  0
 23 24  1  0  0  0  0
 24 26  1  0  0  0  0
 24 25  1  6  0  0  0
 26 27  1  6  0  0  0
 28 26  1  0  0  0  0
 28 30  1  6  0  0  0
 29 28  1  0  0  0  0
 30 31  1  0  0  0  0
 32 27  1  6  0  0  0
 32 40  1  0  0  0  0
 32 33  1  0  0  0  0
 33 35  1  0  0  0  0
 33 34  1  6  0  0  0
 35 37  1  0  0  0  0
 35 36  1  1  0  0  0
 37 38  1  6  0  0  0
 39 37  1  0  0  0  0
 39 41  1  6  0  0  0
 40 39  1  0  0  0  0
 42 41  1  0  0  0  0
M  END
>  <CHROM.1>
-152.58961671,169.66811876,179.03030651,-64.24867422,65.87197326,59.61808374
179.55221798,50.82055472,-174.35323093,134.45240452,136.25897394,176.95464419
57.51259331,64.55396044,-143.42756198,155.68722007,50.78431675,13.14267451
-162.33513533,-50.08532001,-175.33257723,-68.78561514,-2.58101730,2.38195868
4.07171984,2.94029828,1.14431091,0.89853053

>  <Name>
lig.pdb

>  <RI>
0

>  <Rbt.Current_Directory>
/home/itssahil/PROJECTS/Mol_Feturizer/New_Systems/rnas/2mxs

>  <Rbt.Executable>
rbdock ($Id: //depot/dev/client3/rdock/2013.1/src/exe/rbdock.cxx#4 $)

>  <Rbt.Library>
libRbt.so (2013.1, Build901 2013/11/27)

>  <Rbt.Parameter_File>
/export/apps/rDock/src/rDock_2013.1_src/data/scripts/dock_solv.prm

>  <Rbt.Receptor>
prm/pocket_docking_7.prm

>  <SCORE>
-40.1831

>  <SCORE.INTER>
-35.8852

>  <SCORE.INTER.CONST>
1

>  <SCORE.INTER.POLAR>
-5.34238

>  <SCORE.INTER.ROT>
9

>  <SCORE.INTER.SOLV>
16.1127

>  <SCORE.INTER.VDW>
-21.0864

>  <SCORE.INTER.norm>
-0.854409

>  <SCORE.INTRA>
-4.29793

>  <SCORE.INTRA.DIHEDRAL>
-0.485834

>  <SCORE.INTRA.DIHEDRAL.0>
30.1357

>  <SCORE.INTRA.POLAR>
-1.39762

>  <SCORE.INTRA.POLAR.0>
-0.631696

>  <SCORE.INTRA.REPUL>
0

>  <SCORE.INTRA.REPUL.0>
0

>  <SCORE.INTRA.SOLV>
0.345666

>  <SCORE.INTRA.SOLV.lig_0>
-55.904

>  <SCORE.INTRA.VDW>
0.524077

>  <SCORE.INTRA.VDW.0>
-8.21197

>  <SCORE.INTRA.norm>
-0.102332

>  <SCORE.RESTR>
0

>  <SCORE.RESTR.CAVITY>
0

>  <SCORE.RESTR.norm>
0

>  <SCORE.SYSTEM>
0

>  <SCORE.SYSTEM.CONST>
0

>  <SCORE.SYSTEM.DIHEDRAL>
0

>  <SCORE.SYSTEM.SOLV>
0

>  <SCORE.SYSTEM.norm>
0

>  <SCORE.heavy>
42

>  <SCORE.norm>
-0.956741

>  <RMSD>
9.104

$$$$
lig.pdb
 OpenBabel11021811453D
libRbt.so/2013.1/901 2013/11/27
 42 45  0  0  0  0  0  0  0  0999 V2000
    1.1305    3.3427    8.3455 C   0  0  2  0  0  0  0  0  0  0  0  0
    0.0569    3.6614    7.4583 O   0  0  0  0  0  0  0  0  0  0  0  0
    1.5860    1.8884    8.1530 C   0  0  2  0  0  0  0  0  0  0  0  0
    1.9342    1.6250    6.7445 N   0  0  0  0  0  0  0  0  0  0  0  0
    0.5163    0.9068    8.6488 C   0  0  1  0  0  0  0  0  0  0  0  0
    1.0286   -0.4109    8.5985 O   0  0  0  0  0  0  0  0  0  0  0  0
    0.1151    1.2421   10.0933 C   0  0  2  0  0  0  0  0  0  0  0  0
   -0.9790    0.4308   10.4759 O   0  0  0  0  0  0  0  0  0  0  0  0
   -0.2602    2.7302   10.2451 C   0  0  2  0  0  0  0  0  0  0  0  0
    0.7521    3.5758    9.6999 O   0  0  0  0  0  0  0  0  0  0  0  0
   -0.4352    3.0292   11.7461 C   0  0  0  0  0  0  0  0  0  0  0  0
   -0.7421    4.4273   11.9940 O   0  0  0  0  0  0  0  0  0  0  0  0
   -0.9305    7.4987    5.7757 C   0  0  2  0  0  0  0  0  0  0  0  0
   -0.5708    8.7950    5.1668 N   0  0  0  0  0  0  0  0  0  0  0  0
   -0.3089    7.3748    7.1690 C   0  0  0  0  0  0  0  0  0  0  0  0
   -0.5571    5.9862    7.7461 C   0  0  2  0  0  0  0  0  0  0  0  0
   -0.0438    5.9087    9.1195 N   0  0  0  0  0  0  0  0  0  0  0  0
    0.1103    4.9446    6.8181 C   0  0  2  0  0  0  0  0  0  0  0  0
   -0.6043    4.9539    5.5048 C   0  0  2  0  0  0  0  0  0  0  0  0
   -0.0056    3.9660    4.6862 O   0  0  0  0  0  0  0  0  0  0  0  0
   -0.4942    6.3290    4.8737 C   0  0  1  0  0  0  0  0  0  0  0  0
   -1.2253    6.4192    3.6652 O   0  0  0  0  0  0  0  0  0  0  0  0
   -0.5696    3.7408    3.3986 C   0  0  1  0  0  0  0  0  0  0  0  0
   -0.2370    2.3050    2.9871 C   0  0  2  0  0  0  0  0  0  0  0  0
   -0.0025    2.2603    1.5922 O   0  0  0  0  0  0  0  0  0  0  0  0
   -1.5004    1.5403    3.4046 C   0  0  2  0  0  0  0  0  0  0  0  0
   -1.6498    0.2997    2.7138 O   0  0  0  0  0  0  0  0  0  0  0  0
   -2.5677    2.5922    3.0782 C   0  0  2  0  0  0  0  0  0  0  0  0
   -1.9870    3.8263    3.4758 O   0  0  0  0  0  0  0  0  0  0  0  0
   -3.8930    2.4020    3.8251 C   0  0  0  0  0  0  0  0  0  0  0  0
   -3.7083    2.4189    5.2246 O   0  0  0  0  0  0  0  0  0  0  0  0
   -2.8568   -0.4016    3.0060 C   0  0  2  0  0  0  0  0  0  0  0  0
   -2.6207   -1.9140    3.1370 C   0  0  2  0  0  0  0  0  0  0  0  0
   -1.5803   -2.1993    4.1390 N   0  0  0  0  0  0  0  0  0  0  0  0
   -2.2790   -2.5416    1.7772 C   0  0  1  0  0  0  0  0  0  0  0  0
   -2.1580   -3.9410    1.9434 O   0  0  0  0  0  0  0  0  0  0  0  0
   -3.4172   -2.2205    0.7936 C   0  0  2  0  0  0  0  0  0  0  0  0
   -3.1310   -2.7413   -0.4914 O   0  0  0  0  0  0  0  0  0  0  0  0
   -3.6680   -0.7005    0.7156 C   0  0  1  0  0  0  0  0  0  0  0  0
   -3.8460   -0.1321    2.0150 O   0  0  0  0  0  0  0  0  0  0  0  0
   -2.6042    0.0510   -0.0984 C   0  0  0  0  0  0  0  0  0  0  0  0
   -2.9954    1.4511   -0.3286 N   0  0  0  0  0  0  0  0  0  0  0  0
  1  3  1  0  0  0  0
  1  2  1  6  0  0  0
  3  4  1  6  0  0  0
  5  6  1  1  0  0  0
  5  3  1  0  0  0  0
  7  9  1  0  0  0  0
  7  5  1  0  0  0  0
  7  8  1  6  0  0  0
  9 10  1  0  0  0  0
  9 11  1  1  0  0  0
 10  1  1  0  0  0  0
 11 12  1  0  0  0  0
 13 14  1  6  0  0  0
 13 21  1  0  0  0  0
 15 13  1  0  0  0  0
 16 15  1  0  0  0  0
 16 18  1  0  0  0  0
 16 17  1  1  0  0  0
 18  2  1  1  0  0  0
 18 19  1  0  0  0  0
 19 21  1  0  0  0  0
 19 20  1  6  0  0  0
 21 22  1  6  0  0  0
 23 20  1  1  0  0  0
 23 29  1  0  0  0  0
 23 24  1  0  0  0  0
 24 26  1  0  0  0  0
 24 25  1  6  0  0  0
 26 27  1  6  0  0  0
 28 26  1  0  0  0  0
 28 30  1  1  0  0  0
 29 28  1  0  0  0  0
 30 31  1  0  0  0  0
 32 27  1  6  0  0  0
 32 40  1  0  0  0  0
 32 33  1  0  0  0  0
 33 35  1  0  0  0  0
 33 34  1  1  0  0  0
 35 37  1  0  0  0  0
 35 36  1  1  0  0  0
 37 38  1  6  0  0  0
 39 37  1  0  0  0  0
 39 41  1  1  0  0  0
 40 39  1  0  0  0  0
 42 41  1  0  0  0  0
M  END
>  <CHROM.1>
-87.23074036,-137.92132784,59.19100509,57.51071315,-60.12725285,59.94296389
177.82181176,-57.77085442,54.99345666,176.77659707,-154.39010340,73.07968497
-179.59262594,-176.00509931,-139.65272522,58.22224300,-57.30114300,74.42293994
-145.78811186,57.90618473,170.84281984,-66.79841071,-1.12096559,2.23805988
5.21006742,-0.35911344,1.26818991,2.88512000

>  <Name>
lig.pdb

>  <RI>
3.99633e+07

>  <Rbt.Current_Directory>
/home/itssahil/PROJECTS/Mol_Feturizer/New_Systems/rnas/2mxs

>  <Rbt.Executable>
rbdock ($Id: //depot/dev/client3/rdock/2013.1/src/exe/rbdock.cxx#4 $)

>  <Rbt.Library>
libRbt.so (2013.1, Build901 2013/11/27)

>  <Rbt.Parameter_File>
/export/apps/rDock/src/rDock_2013.1_src/data/scripts/dock_solv.prm

>  <Rbt.Receptor>
prm/pocket_docking_5.prm

>  <SCORE>
-20.738

>  <SCORE.INTER>
-22.4096

>  <SCORE.INTER.CONST>
1

>  <SCORE.INTER.POLAR>
-2.94586

>  <SCORE.INTER.ROT>
9

>  <SCORE.INTER.SOLV>
17.7049

>  <SCORE.INTER.VDW>
-20.6218

>  <SCORE.INTER.norm>
-0.533562

>  <SCORE.INTRA>
1.67157

>  <SCORE.INTRA.DIHEDRAL>
-5.98211

>  <SCORE.INTRA.DIHEDRAL.0>
30.1357

>  <SCORE.INTRA.POLAR>
0.245045

>  <SCORE.INTRA.POLAR.0>
-0.631696

>  <SCORE.INTRA.REPUL>
0.144119

>  <SCORE.INTRA.REPUL.0>
0

>  <SCORE.INTRA.SOLV>
0.57248

>  <SCORE.INTRA.SOLV.lig_0>
-55.904

>  <SCORE.INTRA.VDW>
2.82264

>  <SCORE.INTRA.VDW.0>
-8.21197

>  <SCORE.INTRA.norm>
0.0397994

>  <SCORE.RESTR>
0

>  <SCORE.RESTR.CAVITY>
0

>  <SCORE.RESTR.norm>
0

>  <SCORE.SYSTEM>
0

>  <SCORE.SYSTEM.CONST>
0

>  <SCORE.SYSTEM.DIHEDRAL>
0

>  <SCORE.SYSTEM.SOLV>
0

>  <SCORE.SYSTEM.norm>
0

>  <SCORE.heavy>
42

>  <SCORE.norm>
-0.493762

>  <RMSD>
9.173

$$$$
lig.pdb
 OpenBabel11021811453D
libRbt.so/2013.1/901 2013/11/27
 42 45  0  0  0  0  0  0  0  0999 V2000
   -1.6517    2.8471    2.5974 C   0  0  2  0  0  0  0  0  0  0  0  0
   -1.2766    3.2196    3.9248 O   0  0  0  0  0  0  0  0  0  0  0  0
   -3.1743    2.6761    2.4867 C   0  0  2  0  0  0  0  0  0  0  0  0
   -3.8775    3.8898    2.9415 N   0  0  0  0  0  0  0  0  0  0  0  0
   -3.6469    1.4414    3.2648 C   0  0  1  0  0  0  0  0  0  0  0  0
   -5.0233    1.2282    3.0164 O   0  0  0  0  0  0  0  0  0  0  0  0
   -2.8529    0.2010    2.8280 C   0  0  2  0  0  0  0  0  0  0  0  0
   -3.1904   -0.8895    3.6637 O   0  0  0  0  0  0  0  0  0  0  0  0
   -1.3326    0.4530    2.8870 C   0  0  2  0  0  0  0  0  0  0  0  0
   -0.9816    1.6536    2.1997 O   0  0  0  0  0  0  0  0  0  0  0  0
   -0.6224   -0.7475    2.2332 C   0  0  0  0  0  0  0  0  0  0  0  0
   -0.8099   -0.7770    0.7930 O   0  0  0  0  0  0  0  0  0  0  0  0
   -1.4287    7.5082    4.2653 C   0  0  2  0  0  0  0  0  0  0  0  0
   -0.8498    8.8152    4.6350 N   0  0  0  0  0  0  0  0  0  0  0  0
   -1.5351    6.6059    5.4973 C   0  0  0  0  0  0  0  0  0  0  0  0
   -1.9990    5.2091    5.1013 C   0  0  2  0  0  0  0  0  0  0  0  0
   -2.1923    4.3809    6.2982 N   0  0  0  0  0  0  0  0  0  0  0  0
   -0.9527    4.6012    4.1384 C   0  0  2  0  0  0  0  0  0  0  0  0
   -0.9639    5.3897    2.8681 C   0  0  2  0  0  0  0  0  0  0  0  0
   -0.0308    4.7921    1.9868 O   0  0  0  0  0  0  0  0  0  0  0  0
   -0.5960    6.8322    3.1598 C   0  0  1  0  0  0  0  0  0  0  0  0
   -0.6727    7.6446    2.0034 O   0  0  0  0  0  0  0  0  0  0  0  0
   -0.3894    4.6874    0.6130 C   0  0  1  0  0  0  0  0  0  0  0  0
    0.5712    5.5675   -0.1894 C   0  0  2  0  0  0  0  0  0  0  0  0
   -0.1262    6.1566   -1.2708 O   0  0  0  0  0  0  0  0  0  0  0  0
    1.6385    4.5628   -0.6442 C   0  0  2  0  0  0  0  0  0  0  0  0
    2.3732    5.0134   -1.7826 O   0  0  0  0  0  0  0  0  0  0  0  0
    0.7569    3.3326   -0.8920 C   0  0  2  0  0  0  0  0  0  0  0  0
   -0.1898    3.3519    0.1672 O   0  0  0  0  0  0  0  0  0  0  0  0
    1.5103    1.9976   -0.8621 C   0  0  0  0  0  0  0  0  0  0  0  0
    0.6595    0.9134   -1.1684 O   0  0  0  0  0  0  0  0  0  0  0  0
    3.1427    6.1942   -1.5641 C   0  0  2  0  0  0  0  0  0  0  0  0
    2.9010    7.2436   -2.6598 C   0  0  2  0  0  0  0  0  0  0  0  0
    1.4671    7.5547   -2.7835 N   0  0  0  0  0  0  0  0  0  0  0  0
    3.4960    6.7911   -4.0017 C   0  0  1  0  0  0  0  0  0  0  0  0
    3.3203    7.8290   -4.9465 O   0  0  0  0  0  0  0  0  0  0  0  0
    4.9939    6.5068   -3.7983 C   0  0  2  0  0  0  0  0  0  0  0  0
    5.5838    6.0435   -4.9991 O   0  0  0  0  0  0  0  0  0  0  0  0
    5.2137    5.4875   -2.6615 C   0  0  1  0  0  0  0  0  0  0  0  0
    4.5298    5.8785   -1.4687 O   0  0  0  0  0  0  0  0  0  0  0  0
    4.8819    4.0436   -3.0660 C   0  0  0  0  0  0  0  0  0  0  0  0
    5.9710    3.4436   -3.8536 N   0  0  0  0  0  0  0  0  0  0  0  0
  1  3  1  0  0  0  0
  1  2  1  1  0  0  0
  3  4  1  1  0  0  0
  5  6  1  6  0  0  0
  5  3  1  0  0  0  0
  7  9  1  0  0  0  0
  7  5  1  0  0  0  0
  7  8  1  1  0  0  0
  9 10  1  0  0  0  0
  9 11  1  6  0  0  0
 10  1  1  0  0  0  0
 11 12  1  0  0  0  0
 13 14  1  1  0  0  0
 13 21  1  0  0  0  0
 15 13  1  0  0  0  0
 16 15  1  0  0  0  0
 16 18  1  0  0  0  0
 16 17  1  1  0  0  0
 18  2  1  6  0  0  0
 18 19  1  0  0  0  0
 19 21  1  0  0  0  0
 19 20  1  6  0  0  0
 21 22  1  6  0  0  0
 23 20  1  1  0  0  0
 23 29  1  0  0  0  0
 23 24  1  0  0  0  0
 24 26  1  0  0  0  0
 24 25  1  6  0  0  0
 26 27  1  6  0  0  0
 28 26  1  0  0  0  0
 28 30  1  1  0  0  0
 29 28  1  0  0  0  0
 30 31  1  0  0  0  0
 32 27  1  6  0  0  0
 32 40  1  0  0  0  0
 32 33  1  0  0  0  0
 33 35  1  0  0  0  0
 33 34  1  6  0  0  0
 35 37  1  0  0  0  0
 35 36  1  6  0  0  0
 37 38  1  6  0  0  0
 39 37  1  0  0  0  0
 39 41  1  6  0  0  0
 40 39  1  0  0  0  0
 42 41  1  0  0  0  0
M  END
>  <CHROM.1>
115.18341518,-102.57917521,-74.67730147,-167.47626678,-63.29466158,-61.35224107
71.06147601,-47.83391639,-60.36870719,139.59378294,114.92827590,139.77688400
-67.80608185,63.51473545,-130.52595325,-176.78209207,-78.41672675,-167.86139499
163.83556902,-48.57239260,78.94629958,86.40854023,0.29294290,4.26105426,0.70866614
-3.02860136,0.86717092,0.27825073

>  <Name>
lig.pdb

>  <RI>
3.99633e+07

>  <Rbt.Current_Directory>
/home/itssahil/PROJECTS/Mol_Feturizer/New_Systems/rnas/2mxs

>  <Rbt.Executable>
rbdock ($Id: //depot/dev/client3/rdock/2013.1/src/exe/rbdock.cxx#4 $)

>  <Rbt.Library>
libRbt.so (2013.1, Build901 2013/11/27)

>  <Rbt.Parameter_File>
/export/apps/rDock/src/rDock_2013.1_src/data/scripts/dock_solv.prm

>  <Rbt.Receptor>
prm/pocket_docking_5.prm

>  <SCORE>
-23.8779

>  <SCORE.INTER>
-37.9468

>  <SCORE.INTER.CONST>
1

>  <SCORE.INTER.POLAR>
-4.61419

>  <SCORE.INTER.ROT>
9

>  <SCORE.INTER.SOLV>
18.2286

>  <SCORE.INTER.VDW>
-25.5935

>  <SCORE.INTER.norm>
-0.903496

>  <SCORE.INTRA>
14.0689

>  <SCORE.INTRA.DIHEDRAL>
16.5172

>  <SCORE.INTRA.DIHEDRAL.0>
30.1357

>  <SCORE.INTRA.POLAR>
-0.777518

>  <SCORE.INTRA.POLAR.0>
-0.631696

>  <SCORE.INTRA.REPUL>
0.575726

>  <SCORE.INTRA.REPUL.0>
0

>  <SCORE.INTRA.SOLV>
2.1135

>  <SCORE.INTRA.SOLV.lig_0>
-55.904

>  <SCORE.INTRA.VDW>
4.51851

>  <SCORE.INTRA.VDW.0>
-8.21197

>  <SCORE.INTRA.norm>
0.334975

>  <SCORE.RESTR>
0

>  <SCORE.RESTR.CAVITY>
0

>  <SCORE.RESTR.norm>
0

>  <SCORE.SYSTEM>
0

>  <SCORE.SYSTEM.CONST>
0

>  <SCORE.SYSTEM.DIHEDRAL>
0

>  <SCORE.SYSTEM.SOLV>
0

>  <SCORE.SYSTEM.norm>
0

>  <SCORE.heavy>
42

>  <SCORE.norm>
-0.568522

>  <RMSD>
9.176

$$$$
lig.pdb
 OpenBabel11021811453D
libRbt.so/2013.1/901 2013/11/27
 42 45  0  0  0  0  0  0  0  0999 V2000
   -1.1700    4.5984    5.4542 C   0  0  2  0  0  0  0  0  0  0  0  0
   -0.0274    5.2960    4.9551 O   0  0  0  0  0  0  0  0  0  0  0  0
   -1.0716    3.0966    5.1467 C   0  0  2  0  0  0  0  0  0  0  0  0
    0.1903    2.5329    5.6608 N   0  0  0  0  0  0  0  0  0  0  0  0
   -1.2207    2.8322    3.6429 C   0  0  1  0  0  0  0  0  0  0  0  0
   -1.2785    1.4372    3.4147 O   0  0  0  0  0  0  0  0  0  0  0  0
   -2.5042    3.4883    3.1120 C   0  0  2  0  0  0  0  0  0  0  0  0
   -2.5427    3.3696    1.7028 O   0  0  0  0  0  0  0  0  0  0  0  0
   -2.5870    4.9751    3.5131 C   0  0  2  0  0  0  0  0  0  0  0  0
   -2.3706    5.1445    4.9137 O   0  0  0  0  0  0  0  0  0  0  0  0
   -3.9871    5.4956    3.1363 C   0  0  0  0  0  0  0  0  0  0  0  0
   -3.9257    6.6019    2.1968 O   0  0  0  0  0  0  0  0  0  0  0  0
   -1.5804    9.2911    4.5567 C   0  0  2  0  0  0  0  0  0  0  0  0
   -1.4198   10.7533    4.4286 N   0  0  0  0  0  0  0  0  0  0  0  0
   -0.9657    8.8015    5.8703 C   0  0  0  0  0  0  0  0  0  0  0  0
   -1.0013    7.2797    5.9454 C   0  0  2  0  0  0  0  0  0  0  0  0
   -0.5006    6.8246    7.2485 N   0  0  0  0  0  0  0  0  0  0  0  0
   -0.1668    6.7127    4.7734 C   0  0  2  0  0  0  0  0  0  0  0  0
   -0.8565    7.0554    3.4919 C   0  0  2  0  0  0  0  0  0  0  0  0
   -0.0997    6.4922    2.4362 O   0  0  0  0  0  0  0  0  0  0  0  0
   -0.9544    8.5628    3.3524 C   0  0  1  0  0  0  0  0  0  0  0  0
   -1.6745    8.9439    2.1951 O   0  0  0  0  0  0  0  0  0  0  0  0
   -0.5526    6.7128    1.1046 C   0  0  1  0  0  0  0  0  0  0  0  0
    0.6800    6.8610    0.2100 C   0  0  2  0  0  0  0  0  0  0  0  0
    0.4142    7.8179   -0.7982 O   0  0  0  0  0  0  0  0  0  0  0  0
    0.8574    5.4418   -0.3462 C   0  0  2  0  0  0  0  0  0  0  0  0
    1.6213    5.4116   -1.5521 O   0  0  0  0  0  0  0  0  0  0  0  0
   -0.6122    5.0325   -0.5040 C   0  0  2  0  0  0  0  0  0  0  0  0
   -1.2574    5.5671    0.6433 O   0  0  0  0  0  0  0  0  0  0  0  0
   -0.8464    3.5180   -0.5465 C   0  0  0  0  0  0  0  0  0  0  0  0
    0.3687    2.8066   -0.6495 O   0  0  0  0  0  0  0  0  0  0  0  0
    2.9361    5.9521   -1.4366 C   0  0  2  0  0  0  0  0  0  0  0  0
    3.5475    6.2644   -2.8109 C   0  0  2  0  0  0  0  0  0  0  0  0
    2.6692    7.1552   -3.5875 N   0  0  0  0  0  0  0  0  0  0  0  0
    3.8644    4.9746   -3.5827 C   0  0  1  0  0  0  0  0  0  0  0  0
    4.5015    5.3202   -4.7974 O   0  0  0  0  0  0  0  0  0  0  0  0
    4.7995    4.1094   -2.7207 C   0  0  2  0  0  0  0  0  0  0  0  0
    5.0894    2.8850   -3.3697 O   0  0  0  0  0  0  0  0  0  0  0  0
    4.1859    3.8499   -1.3294 C   0  0  1  0  0  0  0  0  0  0  0  0
    3.7791    5.0679   -0.7014 O   0  0  0  0  0  0  0  0  0  0  0  0
    3.0573    2.8084   -1.3464 C   0  0  0  0  0  0  0  0  0  0  0  0
    3.5280    1.4997   -0.8645 N   0  0  0  0  0  0  0  0  0  0  0  0
  1  3  1  0  0  0  0
  1  2  1  6  0  0  0
  3  4  1  6  0  0  0
  5  6  1  1  0  0  0
  5  3  1  0  0  0  0
  7  9  1  0  0  0  0
  7  5  1  0  0  0  0
  7  8  1  6  0  0  0
  9 10  1  0  0  0  0
  9 11  1  1  0  0  0
 10  1  1  0  0  0  0
 11 12  1  0  0  0  0
 13 14  1  6  0  0  0
 13 21  1  0  0  0  0
 15 13  1  0  0  0  0
 16 15  1  0  0  0  0
 16 18  1  0  0  0  0
 16 17  1  1  0  0  0
 18  2  1  1  0  0  0
 18 19  1  0  0  0  0
 19 21  1  0  0  0  0
 19 20  1  6  0  0  0
 21 22  1  6  0  0  0
 23 20  1  1  0  0  0
 23 29  1  0  0  0  0
 23 24  1  0  0  0  0
 24 26  1  0  0  0  0
 24 25  1  6  0  0  0
 26 27  1  6  0  0  0
 28 26  1  0  0  0  0
 28 30  1  1  0  0  0
 29 28  1  0  0  0  0
 30 31  1  0  0  0  0
 32 27  1  6  0  0  0
 32 40  1  0  0  0  0
 32 33  1  0  0  0  0
 33 35  1  0  0  0  0
 33 34  1  6  0  0  0
 35 37  1  0  0  0  0
 35 36  1  6  0  0  0
 37 38  1  6  0  0  0
 39 37  1  0  0  0  0
 39 41  1  6  0  0  0
 40 39  1  0  0  0  0
 42 41  1  0  0  0  0
M  END
>  <CHROM.1>
38.81832704,160.29971813,-161.04637243,80.69111128,45.07765105,-157.88579987
-120.47923247,-176.57491086,173.86310486,-178.74876085,144.46596264,153.00704967
-178.98907701,58.75013825,-163.53782425,-9.63255927,-176.42077689,59.88485308
-43.22519822,79.41894692,101.69255412,-131.03766826,0.26902825,5.42448770
1.44674790,3.05870464,0.97243009,-0.14628489

>  <Name>
lig.pdb

>  <RI>
3.31443e+07

>  <Rbt.Current_Directory>
/home/itssahil/PROJECTS/Mol_Feturizer/New_Systems/rnas/2mxs

>  <Rbt.Executable>
rbdock ($Id: //depot/dev/client3/rdock/2013.1/src/exe/rbdock.cxx#4 $)

>  <Rbt.Library>
libRbt.so (2013.1, Build901 2013/11/27)

>  <Rbt.Parameter_File>
/export/apps/rDock/src/rDock_2013.1_src/data/scripts/dock_solv.prm

>  <Rbt.Receptor>
prm/blind_docking_40.prm

>  <SCORE>
74.3244

>  <SCORE.INTER>
24.9091

>  <SCORE.INTER.CONST>
1

>  <SCORE.INTER.POLAR>
-1.52418

>  <SCORE.INTER.ROT>
9

>  <SCORE.INTER.SOLV>
26.6784

>  <SCORE.INTER.VDW>
3.19387

>  <SCORE.INTER.norm>
0.593074

>  <SCORE.INTRA>
23.0218

>  <SCORE.INTRA.DIHEDRAL>
9.65832

>  <SCORE.INTRA.DIHEDRAL.0>
30.1357

>  <SCORE.INTRA.POLAR>
0.573563

>  <SCORE.INTRA.POLAR.0>
-0.631696

>  <SCORE.INTRA.REPUL>
0.701859

>  <SCORE.INTRA.REPUL.0>
0

>  <SCORE.INTRA.SOLV>
3.95505

>  <SCORE.INTRA.SOLV.lig_0>
-55.904

>  <SCORE.INTRA.VDW>
10.7557

>  <SCORE.INTRA.VDW.0>
-8.21197

>  <SCORE.INTRA.norm>
0.548138

>  <SCORE.RESTR>
26.3935

>  <SCORE.RESTR.CAVITY>
26.3935

>  <SCORE.RESTR.norm>
0.628417

>  <SCORE.SYSTEM>
0

>  <SCORE.SYSTEM.CONST>
0

>  <SCORE.SYSTEM.DIHEDRAL>
0

>  <SCORE.SYSTEM.SOLV>
0

>  <SCORE.SYSTEM.norm>
0

>  <SCORE.heavy>
42

>  <SCORE.norm>
1.76963

>  <RMSD>
9.177

$$$$
lig.pdb
 OpenBabel11021811453D
libRbt.so/2013.1/901 2013/11/27
 42 45  0  0  0  0  0  0  0  0999 V2000
   -1.1896    3.0141    7.7708 C   0  0  2  0  0  0  0  0  0  0  0  0
   -1.6308    4.3159    8.1609 O   0  0  0  0  0  0  0  0  0  0  0  0
   -2.2129    1.9441    8.1802 C   0  0  2  0  0  0  0  0  0  0  0  0
   -3.5506    2.2593    7.6458 N   0  0  0  0  0  0  0  0  0  0  0  0
   -2.2540    1.7773    9.7047 C   0  0  1  0  0  0  0  0  0  0  0  0
   -3.0893    0.6843   10.0352 O   0  0  0  0  0  0  0  0  0  0  0  0
   -0.8410    1.5211   10.2503 C   0  0  2  0  0  0  0  0  0  0  0  0
   -0.8765    1.5282   11.6645 O   0  0  0  0  0  0  0  0  0  0  0  0
    0.1600    2.5813    9.7478 C   0  0  2  0  0  0  0  0  0  0  0  0
    0.0897    2.7262    8.3297 O   0  0  0  0  0  0  0  0  0  0  0  0
    1.5765    2.1336   10.1555 C   0  0  0  0  0  0  0  0  0  0  0  0
    2.6053    2.9899    9.5909 O   0  0  0  0  0  0  0  0  0  0  0  0
    0.0647    8.1470    7.1714 C   0  0  2  0  0  0  0  0  0  0  0  0
    1.1943    9.0913    7.0600 N   0  0  0  0  0  0  0  0  0  0  0  0
   -0.1205    7.7084    8.6262 C   0  0  0  0  0  0  0  0  0  0  0  0
   -1.1910    6.6284    8.7293 C   0  0  2  0  0  0  0  0  0  0  0  0
   -1.4307    6.2849   10.1365 N   0  0  0  0  0  0  0  0  0  0  0  0
   -0.7314    5.4041    7.9038 C   0  0  2  0  0  0  0  0  0  0  0  0
   -0.7053    5.7897    6.4595 C   0  0  2  0  0  0  0  0  0  0  0  0
   -0.3231    4.6451    5.7191 O   0  0  0  0  0  0  0  0  0  0  0  0
    0.2755    6.9285    6.2530 C   0  0  1  0  0  0  0  0  0  0  0  0
    0.2791    7.3910    4.9155 O   0  0  0  0  0  0  0  0  0  0  0  0
   -0.8903    4.4729    4.4246 C   0  0  1  0  0  0  0  0  0  0  0  0
    0.0768    3.6208    3.6000 C   0  0  2  0  0  0  0  0  0  0  0  0
    0.0598    4.0622    2.2555 O   0  0  0  0  0  0  0  0  0  0  0  0
   -0.4982    2.2083    3.7716 C   0  0  2  0  0  0  0  0  0  0  0  0
   -0.0823    1.3126    2.7404 O   0  0  0  0  0  0  0  0  0  0  0  0
   -1.9975    2.5308    3.7789 C   0  0  2  0  0  0  0  0  0  0  0  0
   -2.1009    3.7339    4.5275 O   0  0  0  0  0  0  0  0  0  0  0  0
   -2.8726    1.4579    4.4375 C   0  0  0  0  0  0  0  0  0  0  0  0
   -3.2105    0.4323    3.5281 O   0  0  0  0  0  0  0  0  0  0  0  0
    0.0218   -0.0514    3.1442 C   0  0  2  0  0  0  0  0  0  0  0  0
    1.4850   -0.5125    3.2250 C   0  0  2  0  0  0  0  0  0  0  0  0
    2.2662    0.3683    4.1093 N   0  0  0  0  0  0  0  0  0  0  0  0
    2.1144   -0.6073    1.8270 C   0  0  1  0  0  0  0  0  0  0  0  0
    3.4275   -1.1169    1.9567 O   0  0  0  0  0  0  0  0  0  0  0  0
    1.2587   -1.5573    0.9719 C   0  0  2  0  0  0  0  0  0  0  0  0
    1.7725   -1.6470   -0.3443 O   0  0  0  0  0  0  0  0  0  0  0  0
   -0.2147   -1.1012    0.9453 C   0  0  1  0  0  0  0  0  0  0  0  0
   -0.7218   -0.8928    2.2655 O   0  0  0  0  0  0  0  0  0  0  0  0
   -0.4596    0.1137    0.0383 C   0  0  0  0  0  0  0  0  0  0  0  0
   -0.3174   -0.2410   -1.3831 N   0  0  0  0  0  0  0  0  0  0  0  0
  1  3  1  0  0  0  0
  1  2  1  1  0  0  0
  3  4  1  1  0  0  0
  5  6  1  6  0  0  0
  5  3  1  0  0  0  0
  7  9  1  0  0  0  0
  7  5  1  0  0  0  0
  7  8  1  1  0  0  0
  9 10  1  0  0  0  0
  9 11  1  6  0  0  0
 10  1  1  0  0  0  0
 11 12  1  0  0  0  0
 13 14  1  1  0  0  0
 13 21  1  0  0  0  0
 15 13  1  0  0  0  0
 16 15  1  0  0  0  0
 16 18  1  0  0  0  0
 16 17  1  1  0  0  0
 18  2  1  6  0  0  0
 18 19  1  0  0  0  0
 19 21  1  0  0  0  0
 19 20  1  6  0  0  0
 21 22  1  6  0  0  0
 23 20  1  1  0  0  0
 23 29  1  0  0  0  0
 23 24  1  0  0  0  0
 24 26  1  0  0  0  0
 24 25  1  6  0  0  0
 26 27  1  6  0  0  0
 28 26  1  0  0  0  0
 28 30  1  1  0  0  0
 29 28  1  0  0  0  0
 30 31  1  0  0  0  0
 32 27  1  6  0  0  0
 32 40  1  0  0  0  0
 32 33  1  0  0  0  0
 33 35  1  0  0  0  0
 33 34  1  1  0  0  0
 35 37  1  0  0  0  0
 35 36  1  1  0  0  0
 37 38  1  6  0  0  0
 39 37  1  0  0  0  0
 39 41  1  6  0  0  0
 40 39  1  0  0  0  0
 42 41  1  0  0  0  0
M  END
>  <CHROM.1>
-164.38567682,176.66271012,-52.75732902,56.42408116,-58.87348206,126.64128941
173.28772452,-97.20609098,64.93493056,146.03039982,154.47283294,47.17788846
-63.62230651,149.62812531,-108.86622247,-84.99237828,62.79745322,125.52804083
173.88901071,60.45217105,70.07968859,-30.59507354,-0.33723226,2.65425702
5.55594200,2.19097768,1.35367992,0.35622998

>  <Name>
lig.pdb

>  <RI>
0

>  <Rbt.Current_Directory>
/home/itssahil/PROJECTS/Mol_Feturizer/New_Systems/rnas/2mxs

>  <Rbt.Executable>
rbdock ($Id: //depot/dev/client3/rdock/2013.1/src/exe/rbdock.cxx#4 $)

>  <Rbt.Library>
libRbt.so (2013.1, Build901 2013/11/27)

>  <Rbt.Parameter_File>
/export/apps/rDock/src/rDock_2013.1_src/data/scripts/dock_solv.prm

>  <Rbt.Receptor>
prm/pocket_docking_7.prm

>  <SCORE>
-32.6015

>  <SCORE.INTER>
-37.5775

>  <SCORE.INTER.CONST>
1

>  <SCORE.INTER.POLAR>
-6.96096

>  <SCORE.INTER.ROT>
9

>  <SCORE.INTER.SOLV>
19.9492

>  <SCORE.INTER.VDW>
-18.0982

>  <SCORE.INTER.norm>
-0.894702

>  <SCORE.INTRA>
4.97601

>  <SCORE.INTRA.DIHEDRAL>
7.42363

>  <SCORE.INTRA.DIHEDRAL.0>
30.1357

>  <SCORE.INTRA.POLAR>
-1.06133

>  <SCORE.INTRA.POLAR.0>
-0.631696

>  <SCORE.INTRA.REPUL>
0

>  <SCORE.INTRA.REPUL.0>
0

>  <SCORE.INTRA.SOLV>
-0.955984

>  <SCORE.INTRA.SOLV.lig_0>
-55.904

>  <SCORE.INTRA.VDW>
5.3507

>  <SCORE.INTRA.VDW.0>
-8.21197

>  <SCORE.INTRA.norm>
0.118476

>  <SCORE.RESTR>
0

>  <SCORE.RESTR.CAVITY>
0

>  <SCORE.RESTR.norm>
0

>  <SCORE.SYSTEM>
0

>  <SCORE.SYSTEM.CONST>
0

>  <SCORE.SYSTEM.DIHEDRAL>
0

>  <SCORE.SYSTEM.SOLV>
0

>  <SCORE.SYSTEM.norm>
0

>  <SCORE.heavy>
42

>  <SCORE.norm>
-0.776226

>  <RMSD>
9.205

$$$$
lig.pdb
 OpenBabel11021811453D
libRbt.so/2013.1/901 2013/11/27
 42 45  0  0  0  0  0  0  0  0999 V2000
   -1.8924    3.3377    6.5624 C   0  0  2  0  0  0  0  0  0  0  0  0
   -2.0552    4.5272    7.3371 O   0  0  0  0  0  0  0  0  0  0  0  0
   -3.1358    2.4419    6.6674 C   0  0  2  0  0  0  0  0  0  0  0  0
   -4.3549    3.1832    6.2952 N   0  0  0  0  0  0  0  0  0  0  0  0
   -3.2638    1.8414    8.0733 C   0  0  1  0  0  0  0  0  0  0  0  0
   -4.3261    0.9071    8.0900 O   0  0  0  0  0  0  0  0  0  0  0  0
   -1.9588    1.1355    8.4713 C   0  0  2  0  0  0  0  0  0  0  0  0
   -2.0401    0.7283    9.8238 O   0  0  0  0  0  0  0  0  0  0  0  0
   -0.7361    2.0547    8.2754 C   0  0  2  0  0  0  0  0  0  0  0  0
   -0.7252    2.6272    6.9680 O   0  0  0  0  0  0  0  0  0  0  0  0
    0.5358    1.2110    8.4846 C   0  0  0  0  0  0  0  0  0  0  0  0
    0.6372    0.7002    9.8408 O   0  0  0  0  0  0  0  0  0  0  0  0
    0.0763    8.2478    6.9561 C   0  0  2  0  0  0  0  0  0  0  0  0
    1.3152    9.0495    6.9046 N   0  0  0  0  0  0  0  0  0  0  0  0
   -0.0349    7.5263    8.3016 C   0  0  0  0  0  0  0  0  0  0  0  0
   -1.2358    6.5879    8.3099 C   0  0  2  0  0  0  0  0  0  0  0  0
   -1.3915    5.9756    9.6353 N   0  0  0  0  0  0  0  0  0  0  0  0
   -1.0359    5.5282    7.2015 C   0  0  2  0  0  0  0  0  0  0  0  0
   -1.0881    6.2153    5.8746 C   0  0  2  0  0  0  0  0  0  0  0  0
   -0.9451    5.2234    4.8745 O   0  0  0  0  0  0  0  0  0  0  0  0
    0.0234    7.2442    5.7888 C   0  0  1  0  0  0  0  0  0  0  0  0
   -0.0300    7.9851    4.5841 O   0  0  0  0  0  0  0  0  0  0  0  0
   -1.7588    5.3324    3.7114 C   0  0  1  0  0  0  0  0  0  0  0  0
   -0.9828    4.7275    2.5396 C   0  0  2  0  0  0  0  0  0  0  0  0
   -1.2606    5.4645    1.3639 O   0  0  0  0  0  0  0  0  0  0  0  0
   -1.5273    3.2936    2.4875 C   0  0  2  0  0  0  0  0  0  0  0  0
   -1.3329    2.6737    1.2160 O   0  0  0  0  0  0  0  0  0  0  0  0
   -2.9921    3.5519    2.8612 C   0  0  2  0  0  0  0  0  0  0  0  0
   -2.9328    4.5467    3.8737 O   0  0  0  0  0  0  0  0  0  0  0  0
   -3.7309    2.3259    3.4103 C   0  0  0  0  0  0  0  0  0  0  0  0
   -5.0530    2.6427    3.7910 O   0  0  0  0  0  0  0  0  0  0  0  0
    0.0213    2.6455    0.7693 C   0  0  2  0  0  0  0  0  0  0  0  0
    0.1261    2.8585   -0.7485 C   0  0  2  0  0  0  0  0  0  0  0  0
   -0.5447    4.1055   -1.1525 N   0  0  0  0  0  0  0  0  0  0  0  0
   -0.4257    1.6486   -1.5174 C   0  0  1  0  0  0  0  0  0  0  0  0
   -0.2248    1.8631   -2.9011 O   0  0  0  0  0  0  0  0  0  0  0  0
    0.3354    0.3929   -1.0593 C   0  0  2  0  0  0  0  0  0  0  0  0
   -0.1653   -0.7614   -1.7083 O   0  0  0  0  0  0  0  0  0  0  0  0
    0.2566    0.2270    0.4723 C   0  0  1  0  0  0  0  0  0  0  0  0
    0.6495    1.4232    1.1492 O   0  0  0  0  0  0  0  0  0  0  0  0
   -1.1063   -0.2867    0.9597 C   0  0  0  0  0  0  0  0  0  0  0  0
   -1.3683   -1.6523    0.4772 N   0  0  0  0  0  0  0  0  0  0  0  0
  1  3  1  0  0  0  0
  1  2  1  1  0  0  0
  3  4  1  1  0  0  0
  5  6  1  6  0  0  0
  5  3  1  0  0  0  0
  7  9  1  0  0  0  0
  7  5  1  0  0  0  0
  7  8  1  1  0  0  0
  9 10  1  0  0  0  0
  9 11  1  6  0  0  0
 10  1  1  0  0  0  0
 11 12  1  0  0  0  0
 13 14  1  1  0  0  0
 13 21  1  0  0  0  0
 15 13  1  0  0  0  0
 16 15  1  0  0  0  0
 16 18  1  0  0  0  0
 16 17  1  1  0  0  0
 18  2  1  6  0  0  0
 18 19  1  0  0  0  0
 19 21  1  0  0  0  0
 19 20  1  6  0  0  0
 21 22  1  6  0  0  0
 23 20  1  1  0  0  0
 23 29  1  0  0  0  0
 23 24  1  0  0  0  0
 24 26  1  0  0  0  0
 24 25  1  6  0  0  0
 26 27  1  6  0  0  0
 28 26  1  0  0  0  0
 28 30  1  1  0  0  0
 29 28  1  0  0  0  0
 30 31  1  0  0  0  0
 32 27  1  6  0  0  0
 32 40  1  0  0  0  0
 32 33  1  0  0  0  0
 33 35  1  0  0  0  0
 33 34  1  6  0  0  0
 35 37  1  0  0  0  0
 35 36  1  6  0  0  0
 37 38  1  6  0  0  0
 39 37  1  0  0  0  0
 39 41  1  6  0  0  0
 40 39  1  0  0  0  0
 42 41  1  0  0  0  0
M  END
>  <CHROM.1>
-168.75317392,-172.73679580,171.70464835,-171.76164645,76.36146008,-61.68056940
-63.69977464,-87.83573143,57.53901022,139.31349365,149.61334869,-177.47983703
62.31272521,55.94208597,-143.00825484,177.33949084,58.73475543,160.84550243
177.77544592,157.86779329,65.02452124,-169.09919598,-1.24941534,3.34023488
4.35595142,1.83055061,1.29858366,0.96866946

>  <Name>
lig.pdb

>  <RI>
4.11275e+07

>  <Rbt.Current_Directory>
/home/itssahil/PROJECTS/Mol_Feturizer/New_Systems/rnas/2mxs

>  <Rbt.Executable>
rbdock ($Id: //depot/dev/client3/rdock/2013.1/src/exe/rbdock.cxx#4 $)

>  <Rbt.Library>
libRbt.so (2013.1, Build901 2013/11/27)

>  <Rbt.Parameter_File>
/export/apps/rDock/src/rDock_2013.1_src/data/scripts/dock_solv.prm

>  <Rbt.Receptor>
prm/pocket_docking_8.prm

>  <SCORE>
-41.717

>  <SCORE.INTER>
-35.4667

>  <SCORE.INTER.CONST>
1

>  <SCORE.INTER.POLAR>
-6.42573

>  <SCORE.INTER.ROT>
9

>  <SCORE.INTER.SOLV>
18.3448

>  <SCORE.INTER.VDW>
-17.9403

>  <SCORE.INTER.norm>
-0.844444

>  <SCORE.INTRA>
-6.25032

>  <SCORE.INTRA.DIHEDRAL>
-7.51151

>  <SCORE.INTRA.DIHEDRAL.0>
30.1357

>  <SCORE.INTRA.POLAR>
-1.68883

>  <SCORE.INTRA.POLAR.0>
-0.631696

>  <SCORE.INTRA.REPUL>
0

>  <SCORE.INTRA.REPUL.0>
0

>  <SCORE.INTRA.SOLV>
1.84237

>  <SCORE.INTRA.SOLV.lig_0>
-55.904

>  <SCORE.INTRA.VDW>
2.32626

>  <SCORE.INTRA.VDW.0>
-8.21197

>  <SCORE.INTRA.norm>
-0.148817

>  <SCORE.RESTR>
0

>  <SCORE.RESTR.CAVITY>
0

>  <SCORE.RESTR.norm>
0

>  <SCORE.SYSTEM>
0

>  <SCORE.SYSTEM.CONST>
0

>  <SCORE.SYSTEM.DIHEDRAL>
0

>  <SCORE.SYSTEM.SOLV>
0

>  <SCORE.SYSTEM.norm>
0

>  <SCORE.heavy>
42

>  <SCORE.norm>
-0.993261

>  <RMSD>
9.263

$$$$
lig.pdb
 OpenBabel11021811453D
libRbt.so/2013.1/901 2013/11/27
 42 45  0  0  0  0  0  0  0  0999 V2000
   -0.7494    2.0337    0.2157 C   0  0  2  0  0  0  0  0  0  0  0  0
   -1.8270    2.9705    0.2688 O   0  0  0  0  0  0  0  0  0  0  0  0
   -1.0871    0.8638   -0.7209 C   0  0  2  0  0  0  0  0  0  0  0  0
   -1.4650    1.3506   -2.0605 N   0  0  0  0  0  0  0  0  0  0  0  0
   -2.1913   -0.0178   -0.1234 C   0  0  1  0  0  0  0  0  0  0  0  0
   -2.3683   -1.1632   -0.9348 O   0  0  0  0  0  0  0  0  0  0  0  0
   -1.8113   -0.4556    1.2992 C   0  0  2  0  0  0  0  0  0  0  0  0
   -2.9051   -1.1317    1.8891 O   0  0  0  0  0  0  0  0  0  0  0  0
   -1.4095    0.7497    2.1734 C   0  0  2  0  0  0  0  0  0  0  0  0
   -0.4303    1.5571    1.5205 O   0  0  0  0  0  0  0  0  0  0  0  0
   -0.8395    0.2107    3.4993 C   0  0  0  0  0  0  0  0  0  0  0  0
    0.3898   -0.5380    3.3029 O   0  0  0  0  0  0  0  0  0  0  0  0
   -1.8965    6.9804    1.8328 C   0  0  2  0  0  0  0  0  0  0  0  0
   -1.5841    7.9916    2.8625 N   0  0  0  0  0  0  0  0  0  0  0  0
   -2.7836    5.8798    2.4199 C   0  0  0  0  0  0  0  0  0  0  0  0
   -2.9943    4.7619    1.4056 C   0  0  2  0  0  0  0  0  0  0  0  0
   -3.9245    3.7600    1.9413 N   0  0  0  0  0  0  0  0  0  0  0  0
   -1.6172    4.1486    1.0608 C   0  0  2  0  0  0  0  0  0  0  0  0
   -0.8068    5.1790    0.3417 C   0  0  2  0  0  0  0  0  0  0  0  0
    0.4318    4.5848   -0.0010 O   0  0  0  0  0  0  0  0  0  0  0  0
   -0.6060    6.3866    1.2376 C   0  0  1  0  0  0  0  0  0  0  0  0
    0.0848    7.4300    0.5763 O   0  0  0  0  0  0  0  0  0  0  0  0
    0.7975    4.5608   -1.3767 C   0  0  1  0  0  0  0  0  0  0  0  0
    1.2771    5.9631   -1.7575 C   0  0  2  0  0  0  0  0  0  0  0  0
    0.8792    6.2494   -3.0851 O   0  0  0  0  0  0  0  0  0  0  0  0
    2.7994    5.8452   -1.6031 C   0  0  2  0  0  0  0  0  0  0  0  0
    3.5092    6.8391   -2.3426 O   0  0  0  0  0  0  0  0  0  0  0  0
    3.0057    4.4070   -2.0941 C   0  0  2  0  0  0  0  0  0  0  0  0
    1.9031    3.6859   -1.5623 O   0  0  0  0  0  0  0  0  0  0  0  0
    4.3065    3.7541   -1.6123 C   0  0  0  0  0  0  0  0  0  0  0  0
    4.4723    2.4618   -2.1560 O   0  0  0  0  0  0  0  0  0  0  0  0
    3.4973    8.1387   -1.7551 C   0  0  2  0  0  0  0  0  0  0  0  0
    3.7003    9.2416   -2.8051 C   0  0  2  0  0  0  0  0  0  0  0  0
    2.7027    9.1324   -3.8825 N   0  0  0  0  0  0  0  0  0  0  0  0
    5.1323    9.2214   -3.3605 C   0  0  1  0  0  0  0  0  0  0  0  0
    5.2853   10.3071   -4.2541 O   0  0  0  0  0  0  0  0  0  0  0  0
    6.1125    9.3610   -2.1833 C   0  0  2  0  0  0  0  0  0  0  0  0
    7.4523    9.3049   -2.6373 O   0  0  0  0  0  0  0  0  0  0  0  0
    5.8577    8.2729   -1.1200 C   0  0  1  0  0  0  0  0  0  0  0  0
    4.4832    8.2345   -0.7295 O   0  0  0  0  0  0  0  0  0  0  0  0
    6.3762    6.8868   -1.5309 C   0  0  0  0  0  0  0  0  0  0  0  0
    7.8475    6.8458   -1.5398 N   0  0  0  0  0  0  0  0  0  0  0  0
  1  3  1  0  0  0  0
  1  2  1  1  0  0  0
  3  4  1  6  0  0  0
  5  6  1  6  0  0  0
  5  3  1  0  0  0  0
  7  9  1  0  0  0  0
  7  5  1  0  0  0  0
  7  8  1  1  0  0  0
  9 10  1  0  0  0  0
  9 11  1  1  0  0  0
 10  1  1  0  0  0  0
 11 12  1  0  0  0  0
 13 14  1  1  0  0  0
 13 21  1  0  0  0  0
 15 13  1  0  0  0  0
 16 15  1  0  0  0  0
 16 18  1  0  0  0  0
 16 17  1  1  0  0  0
 18  2  1  6  0  0  0
 18 19  1  0  0  0  0
 19 21  1  0  0  0  0
 19 20  1  1  0  0  0
 21 22  1  6  0  0  0
 23 20  1  1  0  0  0
 23 29  1  0  0  0  0
 23 24  1  0  0  0  0
 24 26  1  0  0  0  0
 24 25  1  6  0  0  0
 26 27  1  6  0  0  0
 28 26  1  0  0  0  0
 28 30  1  1  0  0  0
 29 28  1  0  0  0  0
 30 31  1  0  0  0  0
 32 27  1  6  0  0  0
 32 40  1  0  0  0  0
 32 33  1  0  0  0  0
 33 35  1  0  0  0  0
 33 34  1  6  0  0  0
 35 37  1  0  0  0  0
 35 36  1  6  0  0  0
 37 38  1  6  0  0  0
 39 37  1  0  0  0  0
 39 41  1  6  0  0  0
 40 39  1  0  0  0  0
 42 41  1  0  0  0  0
M  END
>  <CHROM.1>
-160.18205808,-177.11905222,79.72415253,-174.73738048,64.50309039,-179.04298381
64.70595725,79.68392212,-166.46528468,122.38976012,76.79389416,74.00562733
-178.84996888,76.30933744,-154.96038972,-176.77553635,175.51289674,69.32893448
-178.90752045,68.83444867,69.89076814,-46.94649609,1.18967175,4.80333655
-0.48008913,-2.41801389,0.49015653,0.00758178

>  <Name>
lig.pdb

>  <RI>
0

>  <Rbt.Current_Directory>
/home/itssahil/PROJECTS/Mol_Feturizer/New_Systems/rnas/2mxs

>  <Rbt.Executable>
rbdock ($Id: //depot/dev/client3/rdock/2013.1/src/exe/rbdock.cxx#4 $)

>  <Rbt.Library>
libRbt.so (2013.1, Build901 2013/11/27)

>  <Rbt.Parameter_File>
/export/apps/rDock/src/rDock_2013.1_src/data/scripts/dock_solv.prm

>  <Rbt.Receptor>
prm/pocket_docking_7.prm

>  <SCORE>
-47.2309

>  <SCORE.INTER>
-42.6933

>  <SCORE.INTER.CONST>
1

>  <SCORE.INTER.POLAR>
-5.07723

>  <SCORE.INTER.ROT>
9

>  <SCORE.INTER.SOLV>
22.5714

>  <SCORE.INTER.VDW>
-28.6619

>  <SCORE.INTER.norm>
-1.01651

>  <SCORE.INTRA>
-4.5748

>  <SCORE.INTRA.DIHEDRAL>
-10.3619

>  <SCORE.INTRA.DIHEDRAL.0>
30.1357

>  <SCORE.INTRA.POLAR>
-0.221165

>  <SCORE.INTRA.POLAR.0>
-0.631696

>  <SCORE.INTRA.REPUL>
0

>  <SCORE.INTRA.REPUL.0>
0

>  <SCORE.INTRA.SOLV>
-0.284109

>  <SCORE.INTRA.SOLV.lig_0>
-55.904

>  <SCORE.INTRA.VDW>
1.50018

>  <SCORE.INTRA.VDW.0>
-8.21197

>  <SCORE.INTRA.norm>
-0.108924

>  <SCORE.RESTR>
0.0372667

>  <SCORE.RESTR.CAVITY>
0.0372667

>  <SCORE.RESTR.norm>
0.000887303

>  <SCORE.SYSTEM>
0

>  <SCORE.SYSTEM.CONST>
0

>  <SCORE.SYSTEM.DIHEDRAL>
0

>  <SCORE.SYSTEM.SOLV>
0

>  <SCORE.SYSTEM.norm>
0

>  <SCORE.heavy>
42

>  <SCORE.norm>
-1.12454

>  <RMSD>
9.264

$$$$
lig.pdb
 OpenBabel11021811453D
libRbt.so/2013.1/901 2013/11/27
 42 45  0  0  0  0  0  0  0  0999 V2000
   -0.1456    5.6489    8.0800 C   0  0  2  0  0  0  0  0  0  0  0  0
    0.6377    6.3221    9.0672 O   0  0  0  0  0  0  0  0  0  0  0  0
    0.3293    6.0106    6.6646 C   0  0  2  0  0  0  0  0  0  0  0  0
    1.7706    5.7431    6.5056 N   0  0  0  0  0  0  0  0  0  0  0  0
   -0.0000    7.4713    6.3306 C   0  0  1  0  0  0  0  0  0  0  0  0
    0.3110    7.7244    4.9739 O   0  0  0  0  0  0  0  0  0  0  0  0
   -1.4916    7.7489    6.5713 C   0  0  2  0  0  0  0  0  0  0  0  0
   -1.7424    9.1320    6.4111 O   0  0  0  0  0  0  0  0  0  0  0  0
   -1.9308    7.2982    7.9792 C   0  0  2  0  0  0  0  0  0  0  0  0
   -1.5289    5.9537    8.2394 O   0  0  0  0  0  0  0  0  0  0  0  0
   -3.4653    7.4075    8.0601 C   0  0  0  0  0  0  0  0  0  0  0  0
   -4.1253    6.6241    7.0301 O   0  0  0  0  0  0  0  0  0  0  0  0
    0.6413    5.6076   13.3123 C   0  0  2  0  0  0  0  0  0  0  0  0
   -0.0204    5.5376   14.6304 N   0  0  0  0  0  0  0  0  0  0  0  0
    0.5424    7.0247   12.7420 C   0  0  0  0  0  0  0  0  0  0  0  0
    1.0974    7.0725   11.3233 C   0  0  2  0  0  0  0  0  0  0  0  0
    1.0888    8.4524   10.8218 N   0  0  0  0  0  0  0  0  0  0  0  0
    0.2534    6.1279   10.4361 C   0  0  2  0  0  0  0  0  0  0  0  0
    0.4771    4.7224   10.8945 C   0  0  2  0  0  0  0  0  0  0  0  0
   -0.2704    3.8723   10.0442 O   0  0  0  0  0  0  0  0  0  0  0  0
    0.0343    4.5801   12.3385 C   0  0  1  0  0  0  0  0  0  0  0  0
    0.3015    3.2884   12.8514 O   0  0  0  0  0  0  0  0  0  0  0  0
    0.1520    2.5182    9.9227 C   0  0  1  0  0  0  0  0  0  0  0  0
   -0.8970    1.7737    9.0940 C   0  0  2  0  0  0  0  0  0  0  0  0
   -1.0290    0.4525    9.5836 O   0  0  0  0  0  0  0  0  0  0  0  0
   -0.3022    1.8296    7.6805 C   0  0  2  0  0  0  0  0  0  0  0  0
   -0.8258    0.8181    6.8194 O   0  0  0  0  0  0  0  0  0  0  0  0
    1.1878    1.6845    8.0132 C   0  0  2  0  0  0  0  0  0  0  0  0
    1.3689    2.4608    9.1892 O   0  0  0  0  0  0  0  0  0  0  0  0
    2.1332    2.2037    6.9235 C   0  0  0  0  0  0  0  0  0  0  0  0
    2.2769    1.2720    5.8726 O   0  0  0  0  0  0  0  0  0  0  0  0
   -0.6129    1.0525    5.4288 C   0  0  2  0  0  0  0  0  0  0  0  0
   -1.8745    1.5976    4.7422 C   0  0  2  0  0  0  0  0  0  0  0  0
   -2.3606    2.8105    5.4209 N   0  0  0  0  0  0  0  0  0  0  0  0
   -2.9688    0.5228    4.6592 C   0  0  1  0  0  0  0  0  0  0  0  0
   -4.0685    1.0524    3.9444 O   0  0  0  0  0  0  0  0  0  0  0  0
   -2.3953   -0.6991    3.9217 C   0  0  2  0  0  0  0  0  0  0  0  0
   -3.3532   -1.7395    3.8553 O   0  0  0  0  0  0  0  0  0  0  0  0
   -1.1034   -1.1984    4.6007 C   0  0  1  0  0  0  0  0  0  0  0  0
   -0.1639   -0.1366    4.7827 O   0  0  0  0  0  0  0  0  0  0  0  0
   -1.3594   -1.9677    5.9051 C   0  0  0  0  0  0  0  0  0  0  0  0
   -0.1268   -2.5955    6.4080 N   0  0  0  0  0  0  0  0  0  0  0  0
  1  3  1  0  0  0  0
  1  2  1  1  0  0  0
  3  4  1  1  0  0  0
  5  6  1  6  0  0  0
  5  3  1  0  0  0  0
  7  9  1  0  0  0  0
  7  5  1  0  0  0  0
  7  8  1  1  0  0  0
  9 10  1  0  0  0  0
  9 11  1  6  0  0  0
 10  1  1  0  0  0  0
 11 12  1  0  0  0  0
 13 14  1  1  0  0  0
 13 21  1  0  0  0  0
 15 13  1  0  0  0  0
 16 15  1  0  0  0  0
 16 18  1  0  0  0  0
 16 17  1  6  0  0  0
 18  2  1  6  0  0  0
 18 19  1  0  0  0  0
 19 21  1  0  0  0  0
 19 20  1  6  0  0  0
 21 22  1  1  0  0  0
 23 20  1  6  0  0  0
 23 29  1  0  0  0  0
 23 24  1  0  0  0  0
 24 26  1  0  0  0  0
 24 25  1  1  0  0  0
 26 27  1  6  0  0  0
 28 26  1  0  0  0  0
 28 30  1  6  0  0  0
 29 28  1  0  0  0  0
 30 31  1  0  0  0  0
 32 27  1  1  0  0  0
 32 40  1  0  0  0  0
 32 33  1  0  0  0  0
 33 35  1  0  0  0  0
 33 34  1  1  0  0  0
 35 37  1  0  0  0  0
 35 36  1  6  0  0  0
 37 38  1  1  0  0  0
 39 37  1  0  0  0  0
 39 41  1  1  0  0  0
 40 39  1  0  0  0  0
 42 41  1  0  0  0  0
M  END
>  <CHROM.1>
-172.79373838,176.78991942,-80.14815106,63.74202466,58.72792481,-64.87140847
57.14896310,-53.08400593,65.87572638,156.19100112,173.41414924,73.62991067
173.13734468,162.79201859,-101.23692444,-79.64373618,-61.91585256,-55.92082181
177.41835886,-54.52707211,171.43657725,59.44795901,-0.57424943,3.63311264
7.88511306,1.09033402,-1.20048430,0.19861086

>  <Name>
lig.pdb

>  <RI>
4.11275e+07

>  <Rbt.Current_Directory>
/home/itssahil/PROJECTS/Mol_Feturizer/New_Systems/rnas/2mxs

>  <Rbt.Executable>
rbdock ($Id: //depot/dev/client3/rdock/2013.1/src/exe/rbdock.cxx#4 $)

>  <Rbt.Library>
libRbt.so (2013.1, Build901 2013/11/27)

>  <Rbt.Parameter_File>
/export/apps/rDock/src/rDock_2013.1_src/data/scripts/dock_solv.prm

>  <Rbt.Receptor>
prm/pocket_docking_8.prm

>  <SCORE>
-28.8856

>  <SCORE.INTER>
-24.5322

>  <SCORE.INTER.CONST>
1

>  <SCORE.INTER.POLAR>
-4.46067

>  <SCORE.INTER.ROT>
9

>  <SCORE.INTER.SOLV>
17.5646

>  <SCORE.INTER.VDW>
-16.9408

>  <SCORE.INTER.norm>
-0.584101

>  <SCORE.INTRA>
-4.35332

>  <SCORE.INTRA.DIHEDRAL>
-15.2644

>  <SCORE.INTRA.DIHEDRAL.0>
30.1357

>  <SCORE.INTRA.POLAR>
0.60876

>  <SCORE.INTRA.POLAR.0>
-0.631696

>  <SCORE.INTRA.REPUL>
0.0182074

>  <SCORE.INTRA.REPUL.0>
0

>  <SCORE.INTRA.SOLV>
-0.71892

>  <SCORE.INTRA.SOLV.lig_0>
-55.904

>  <SCORE.INTRA.VDW>
1.47752

>  <SCORE.INTRA.VDW.0>
-8.21197

>  <SCORE.INTRA.norm>
-0.10365

>  <SCORE.RESTR>
0

>  <SCORE.RESTR.CAVITY>
0

>  <SCORE.RESTR.norm>
0

>  <SCORE.SYSTEM>
0

>  <SCORE.SYSTEM.CONST>
0

>  <SCORE.SYSTEM.DIHEDRAL>
0

>  <SCORE.SYSTEM.SOLV>
0

>  <SCORE.SYSTEM.norm>
0

>  <SCORE.heavy>
42

>  <SCORE.norm>
-0.687752

>  <RMSD>
9.268

$$$$
lig.pdb
 OpenBabel11021811453D
libRbt.so/2013.1/901 2013/11/27
 42 45  0  0  0  0  0  0  0  0999 V2000
   -2.3211    2.7544    7.6145 C   0  0  2  0  0  0  0  0  0  0  0  0
   -2.2952    4.0722    8.1660 O   0  0  0  0  0  0  0  0  0  0  0  0
   -3.3377    1.8716    8.3540 C   0  0  2  0  0  0  0  0  0  0  0  0
   -4.6737    2.4958    8.3615 N   0  0  0  0  0  0  0  0  0  0  0  0
   -2.8647    1.5654    9.7809 C   0  0  1  0  0  0  0  0  0  0  0  0
   -3.7442    0.6311   10.3769 O   0  0  0  0  0  0  0  0  0  0  0  0
   -1.4435    0.9830    9.7570 C   0  0  2  0  0  0  0  0  0  0  0  0
   -0.9667    0.8563   11.0829 O   0  0  0  0  0  0  0  0  0  0  0  0
   -0.4826    1.8697    8.9392 C   0  0  2  0  0  0  0  0  0  0  0  0
   -1.0233    2.1660    7.6520 O   0  0  0  0  0  0  0  0  0  0  0  0
    0.8503    1.1135    8.7822 C   0  0  0  0  0  0  0  0  0  0  0  0
    0.6732   -0.1838    8.1530 O   0  0  0  0  0  0  0  0  0  0  0  0
   -0.1960    7.5925    6.8499 C   0  0  2  0  0  0  0  0  0  0  0  0
    0.9890    8.2858    6.3064 N   0  0  0  0  0  0  0  0  0  0  0  0
    0.1500    6.9055    8.1733 C   0  0  0  0  0  0  0  0  0  0  0  0
   -1.0258    6.0721    8.6691 C   0  0  2  0  0  0  0  0  0  0  0  0
   -0.7204    5.4972    9.9852 N   0  0  0  0  0  0  0  0  0  0  0  0
   -1.3302    4.9811    7.6163 C   0  0  2  0  0  0  0  0  0  0  0  0
   -1.8230    5.6480    6.3722 C   0  0  2  0  0  0  0  0  0  0  0  0
   -2.1349    4.6311    5.4378 O   0  0  0  0  0  0  0  0  0  0  0  0
   -0.7523    6.5778    5.8333 C   0  0  1  0  0  0  0  0  0  0  0  0
   -1.1969    7.3004    4.7006 O   0  0  0  0  0  0  0  0  0  0  0  0
   -1.0605    3.8522    4.9222 C   0  0  1  0  0  0  0  0  0  0  0  0
   -1.6636    2.6704    4.1600 C   0  0  2  0  0  0  0  0  0  0  0  0
   -0.8454    1.5300    4.3411 O   0  0  0  0  0  0  0  0  0  0  0  0
   -1.6672    3.1782    2.7118 C   0  0  2  0  0  0  0  0  0  0  0  0
   -1.7270    2.1204    1.7547 O   0  0  0  0  0  0  0  0  0  0  0  0
   -0.3585    3.9779    2.7073 C   0  0  2  0  0  0  0  0  0  0  0  0
   -0.3262    4.6179    3.9753 O   0  0  0  0  0  0  0  0  0  0  0  0
   -0.2720    5.0441    1.6091 C   0  0  0  0  0  0  0  0  0  0  0  0
    1.0671    5.3858    1.3203 O   0  0  0  0  0  0  0  0  0  0  0  0
   -2.0964    2.5292    0.4392 C   0  0  2  0  0  0  0  0  0  0  0  0
   -2.8553    1.4234   -0.3101 C   0  0  2  0  0  0  0  0  0  0  0  0
   -4.0276    0.9751    0.4598 N   0  0  0  0  0  0  0  0  0  0  0  0
   -1.9265    0.2495   -0.6548 C   0  0  1  0  0  0  0  0  0  0  0  0
   -2.6552   -0.6944   -1.4156 O   0  0  0  0  0  0  0  0  0  0  0  0
   -0.7424    0.7905   -1.4740 C   0  0  2  0  0  0  0  0  0  0  0  0
    0.1697   -0.2475   -1.7824 O   0  0  0  0  0  0  0  0  0  0  0  0
   -0.0262    1.9317   -0.7228 C   0  0  1  0  0  0  0  0  0  0  0  0
   -0.9479    2.9391   -0.2998 O   0  0  0  0  0  0  0  0  0  0  0  0
    0.8563    1.4395    0.4338 C   0  0  0  0  0  0  0  0  0  0  0  0
    1.9088    2.4158    0.7583 N   0  0  0  0  0  0  0  0  0  0  0  0
  1  3  1  0  0  0  0
  1  2  1  1  0  0  0
  3  4  1  1  0  0  0
  5  6  1  6  0  0  0
  5  3  1  0  0  0  0
  7  9  1  0  0  0  0
  7  5  1  0  0  0  0
  7  8  1  1  0  0  0
  9 10  1  0  0  0  0
  9 11  1  6  0  0  0
 10  1  1  0  0  0  0
 11 12  1  0  0  0  0
 13 14  1  6  0  0  0
 13 21  1  0  0  0  0
 15 13  1  0  0  0  0
 16 15  1  0  0  0  0
 16 18  1  0  0  0  0
 16 17  1  1  0  0  0
 18  2  1  1  0  0  0
 18 19  1  0  0  0  0
 19 21  1  0  0  0  0
 19 20  1  6  0  0  0
 21 22  1  6  0  0  0
 23 20  1  6  0  0  0
 23 29  1  0  0  0  0
 23 24  1  0  0  0  0
 24 26  1  0  0  0  0
 24 25  1  6  0  0  0
 26 27  1  6  0  0  0
 28 26  1  0  0  0  0
 28 30  1  6  0  0  0
 29 28  1  0  0  0  0
 30 31  1  0  0  0  0
 32 27  1  1  0  0  0
 32 40  1  0  0  0  0
 32 33  1  0  0  0  0
 33 35  1  0  0  0  0
 33 34  1  1  0  0  0
 35 37  1  0  0  0  0
 35 36  1  6  0  0  0
 37 38  1  1  0  0  0
 39 37  1  0  0  0  0
 39 41  1  1  0  0  0
 40 39  1  0  0  0  0
 42 41  1  0  0  0  0
M  END
>  <CHROM.1>
-156.04123023,176.52525112,74.22400894,69.95714547,86.01153094,175.93612430
57.19123620,-52.74917241,-173.21308695,-66.84277866,169.32925463,-70.77847164
-173.49099474,163.71080376,-149.35606160,-157.81039578,-121.47352927,-178.53511721
-66.71515877,170.74968593,156.77546791,177.38687720,-1.15398086,3.06477480
4.75668657,1.72701740,1.24991861,1.22631056

>  <Name>
lig.pdb

>  <RI>
0

>  <Rbt.Current_Directory>
/home/itssahil/PROJECTS/Mol_Feturizer/New_Systems/rnas/2mxs

>  <Rbt.Executable>
rbdock ($Id: //depot/dev/client3/rdock/2013.1/src/exe/rbdock.cxx#4 $)

>  <Rbt.Library>
libRbt.so (2013.1, Build901 2013/11/27)

>  <Rbt.Parameter_File>
/export/apps/rDock/src/rDock_2013.1_src/data/scripts/dock_solv.prm

>  <Rbt.Receptor>
prm/pocket_docking_6.prm

>  <SCORE>
-38.2928

>  <SCORE.INTER>
-36.4094

>  <SCORE.INTER.CONST>
1

>  <SCORE.INTER.POLAR>
-5.81158

>  <SCORE.INTER.ROT>
9

>  <SCORE.INTER.SOLV>
19.2536

>  <SCORE.INTER.VDW>
-20.9188

>  <SCORE.INTER.norm>
-0.86689

>  <SCORE.INTRA>
-1.88344

>  <SCORE.INTRA.DIHEDRAL>
-5.14035

>  <SCORE.INTRA.DIHEDRAL.0>
30.1357

>  <SCORE.INTRA.POLAR>
-0.423629

>  <SCORE.INTRA.POLAR.0>
-0.631696

>  <SCORE.INTRA.REPUL>
0

>  <SCORE.INTRA.REPUL.0>
0

>  <SCORE.INTRA.SOLV>
0.242751

>  <SCORE.INTRA.SOLV.lig_0>
-55.904

>  <SCORE.INTRA.VDW>
2.00569

>  <SCORE.INTRA.VDW.0>
-8.21197

>  <SCORE.INTRA.norm>
-0.0448439

>  <SCORE.RESTR>
0

>  <SCORE.RESTR.CAVITY>
0

>  <SCORE.RESTR.norm>
0

>  <SCORE.SYSTEM>
0

>  <SCORE.SYSTEM.CONST>
0

>  <SCORE.SYSTEM.DIHEDRAL>
0

>  <SCORE.SYSTEM.SOLV>
0

>  <SCORE.SYSTEM.norm>
0

>  <SCORE.heavy>
42

>  <SCORE.norm>
-0.911734

>  <RMSD>
9.284

$$$$
lig.pdb
 OpenBabel11021811453D
libRbt.so/2013.1/901 2013/11/27
 42 45  0  0  0  0  0  0  0  0999 V2000
   -0.3899    2.5643    7.6365 C   0  0  2  0  0  0  0  0  0  0  0  0
   -1.3583    3.6147    7.6533 O   0  0  0  0  0  0  0  0  0  0  0  0
   -0.8972    1.3399    8.4131 C   0  0  2  0  0  0  0  0  0  0  0  0
   -2.2068    0.8946    7.9021 N   0  0  0  0  0  0  0  0  0  0  0  0
   -0.9632    1.6317    9.9177 C   0  0  1  0  0  0  0  0  0  0  0  0
   -1.2855    0.4425   10.6131 O   0  0  0  0  0  0  0  0  0  0  0  0
    0.3893    2.1624   10.4167 C   0  0  2  0  0  0  0  0  0  0  0  0
    0.2629    2.5733   11.7645 O   0  0  0  0  0  0  0  0  0  0  0  0
    0.8865    3.3415    9.5559 C   0  0  2  0  0  0  0  0  0  0  0  0
    0.8538    3.0160    8.1667 O   0  0  0  0  0  0  0  0  0  0  0  0
    2.3310    3.6682    9.9799 C   0  0  0  0  0  0  0  0  0  0  0  0
    2.3923    4.2605   11.3049 O   0  0  0  0  0  0  0  0  0  0  0  0
   -1.3681    7.5462    5.9000 C   0  0  2  0  0  0  0  0  0  0  0  0
   -0.6929    8.7285    5.3286 N   0  0  0  0  0  0  0  0  0  0  0  0
   -0.9099    7.3172    7.3424 C   0  0  0  0  0  0  0  0  0  0  0  0
   -1.4932    6.0208    7.8917 C   0  0  2  0  0  0  0  0  0  0  0  0
   -1.1289    5.8596    9.3049 N   0  0  0  0  0  0  0  0  0  0  0  0
   -0.9813    4.8478    7.0236 C   0  0  2  0  0  0  0  0  0  0  0  0
   -1.5612    4.9855    5.6524 C   0  0  2  0  0  0  0  0  0  0  0  0
   -1.1144    3.8811    4.8873 O   0  0  0  0  0  0  0  0  0  0  0  0
   -1.1105    6.2967    5.0370 C   0  0  1  0  0  0  0  0  0  0  0  0
   -1.6986    6.5187    3.7689 O   0  0  0  0  0  0  0  0  0  0  0  0
   -2.0724    2.8899    4.5315 C   0  0  1  0  0  0  0  0  0  0  0  0
   -2.0795    2.7729    3.0058 C   0  0  2  0  0  0  0  0  0  0  0  0
   -3.3990    2.5188    2.5620 O   0  0  0  0  0  0  0  0  0  0  0  0
   -1.1297    1.5927    2.7604 C   0  0  2  0  0  0  0  0  0  0  0  0
   -1.3288    0.9779    1.4872 O   0  0  0  0  0  0  0  0  0  0  0  0
   -1.4846    0.7112    3.9641 C   0  0  2  0  0  0  0  0  0  0  0  0
   -1.6625    1.6255    5.0368 O   0  0  0  0  0  0  0  0  0  0  0  0
   -0.4000   -0.3021    4.3482 C   0  0  0  0  0  0  0  0  0  0  0  0
    0.8006    0.3386    4.7241 O   0  0  0  0  0  0  0  0  0  0  0  0
   -0.4112   -0.0710    1.1837 C   0  0  2  0  0  0  0  0  0  0  0  0
    0.9848    0.4727    0.8437 C   0  0  2  0  0  0  0  0  0  0  0  0
    1.4931    1.3315    1.9263 N   0  0  0  0  0  0  0  0  0  0  0  0
    0.9795    1.2103   -0.5037 C   0  0  1  0  0  0  0  0  0  0  0  0
    2.3022    1.6115   -0.8041 O   0  0  0  0  0  0  0  0  0  0  0  0
    0.4593    0.2465   -1.5837 C   0  0  2  0  0  0  0  0  0  0  0  0
    0.3934    0.8920   -2.8420 O   0  0  0  0  0  0  0  0  0  0  0  0
   -0.9211   -0.3234   -1.1974 C   0  0  1  0  0  0  0  0  0  0  0  0
   -0.9078   -0.8795    0.1194 O   0  0  0  0  0  0  0  0  0  0  0  0
   -2.0682    0.6806   -1.3844 C   0  0  0  0  0  0  0  0  0  0  0  0
   -1.7232    1.9988   -0.8279 N   0  0  0  0  0  0  0  0  0  0  0  0
  1  3  1  0  0  0  0
  1  2  1  1  0  0  0
  3  4  1  6  0  0  0
  5  6  1  1  0  0  0
  5  3  1  0  0  0  0
  7  9  1  0  0  0  0
  7  5  1  0  0  0  0
  7  8  1  1  0  0  0
  9 10  1  0  0  0  0
  9 11  1  1  0  0  0
 10  1  1  0  0  0  0
 11 12  1  0  0  0  0
 13 14  1  6  0  0  0
 13 21  1  0  0  0  0
 15 13  1  0  0  0  0
 16 15  1  0  0  0  0
 16 18  1  0  0  0  0
 16 17  1  1  0  0  0
 18  2  1  1  0  0  0
 18 19  1  0  0  0  0
 19 21  1  0  0  0  0
 19 20  1  6  0  0  0
 21 22  1  6  0  0  0
 23 20  1  6  0  0  0
 23 29  1  0  0  0  0
 23 24  1  0  0  0  0
 24 26  1  0  0  0  0
 24 25  1  1  0  0  0
 26 27  1  6  0  0  0
 28 26  1  0  0  0  0
 28 30  1  1  0  0  0
 29 28  1  0  0  0  0
 30 31  1  0  0  0  0
 32 27  1  6  0  0  0
 32 40  1  0  0  0  0
 32 33  1  0  0  0  0
 33 35  1  0  0  0  0
 33 34  1  1  0  0  0
 35 37  1  0  0  0  0
 35 36  1  6  0  0  0
 37 38  1  6  0  0  0
 39 37  1  0  0  0  0
 39 41  1  1  0  0  0
 40 39  1  0  0  0  0
 42 41  1  0  0  0  0
M  END
>  <CHROM.1>
-139.65533890,176.72880093,168.45744991,-56.41637626,64.04699491,54.80422916
-70.00611666,-177.82783231,60.46753524,109.79614607,122.65661380,-53.40070814
-176.49854640,176.29541625,-73.72242761,61.75193901,68.26060040,43.33549372
-60.95327796,-44.63769228,-46.33246936,-63.41667045,-0.56877179,2.67091620
4.84025412,-1.47401098,1.39032540,-1.97352409

>  <Name>
lig.pdb

>  <RI>
0

>  <Rbt.Current_Directory>
/home/itssahil/PROJECTS/Mol_Feturizer/New_Systems/rnas/2mxs

>  <Rbt.Executable>
rbdock ($Id: //depot/dev/client3/rdock/2013.1/src/exe/rbdock.cxx#4 $)

>  <Rbt.Library>
libRbt.so (2013.1, Build901 2013/11/27)

>  <Rbt.Parameter_File>
/export/apps/rDock/src/rDock_2013.1_src/data/scripts/dock_solv.prm

>  <Rbt.Receptor>
prm/pocket_docking_4.prm

>  <SCORE>
-27.2867

>  <SCORE.INTER>
-20.1587

>  <SCORE.INTER.CONST>
1

>  <SCORE.INTER.POLAR>
-3.32258

>  <SCORE.INTER.ROT>
9

>  <SCORE.INTER.SOLV>
15.3357

>  <SCORE.INTER.VDW>
-17.0758

>  <SCORE.INTER.norm>
-0.47997

>  <SCORE.INTRA>
-7.12793

>  <SCORE.INTRA.DIHEDRAL>
-5.13079

>  <SCORE.INTRA.DIHEDRAL.0>
30.1357

>  <SCORE.INTRA.POLAR>
-2.70822

>  <SCORE.INTRA.POLAR.0>
-0.631696

>  <SCORE.INTRA.REPUL>
0.07225

>  <SCORE.INTRA.REPUL.0>
0

>  <SCORE.INTRA.SOLV>
2.47557

>  <SCORE.INTRA.SOLV.lig_0>
-55.904

>  <SCORE.INTRA.VDW>
3.04639

>  <SCORE.INTRA.VDW.0>
-8.21197

>  <SCORE.INTRA.norm>
-0.169713

>  <SCORE.RESTR>
0

>  <SCORE.RESTR.CAVITY>
0

>  <SCORE.RESTR.norm>
0

>  <SCORE.SYSTEM>
0

>  <SCORE.SYSTEM.CONST>
0

>  <SCORE.SYSTEM.DIHEDRAL>
0

>  <SCORE.SYSTEM.SOLV>
0

>  <SCORE.SYSTEM.norm>
0

>  <SCORE.heavy>
42

>  <SCORE.norm>
-0.649683

>  <RMSD>
9.292

$$$$
lig.pdb
 OpenBabel11021811453D
libRbt.so/2013.1/901 2013/11/27
 42 45  0  0  0  0  0  0  0  0999 V2000
    1.0244    1.1591    1.6784 C   0  0  2  0  0  0  0  0  0  0  0  0
   -0.1703    1.9428    1.6700 O   0  0  0  0  0  0  0  0  0  0  0  0
    1.0386    0.1707    0.5026 C   0  0  2  0  0  0  0  0  0  0  0  0
    0.8444    0.8715   -0.7801 N   0  0  0  0  0  0  0  0  0  0  0  0
   -0.0147   -0.9280    0.6951 C   0  0  1  0  0  0  0  0  0  0  0  0
    0.1293   -1.9001   -0.3226 O   0  0  0  0  0  0  0  0  0  0  0  0
    0.1592   -1.5975    2.0667 C   0  0  2  0  0  0  0  0  0  0  0  0
   -0.9127   -2.4934    2.2900 O   0  0  0  0  0  0  0  0  0  0  0  0
    0.2136   -0.5551    3.2020 C   0  0  2  0  0  0  0  0  0  0  0  0
    1.1664    0.4687    2.9173 O   0  0  0  0  0  0  0  0  0  0  0  0
    0.6047   -1.2830    4.5021 C   0  0  0  0  0  0  0  0  0  0  0  0
   -0.4288   -2.2014    4.9480 O   0  0  0  0  0  0  0  0  0  0  0  0
   -0.9142    6.0511    2.7185 C   0  0  2  0  0  0  0  0  0  0  0  0
   -0.5882    7.3014    3.4333 N   0  0  0  0  0  0  0  0  0  0  0  0
   -1.1590    4.9163    3.7163 C   0  0  0  0  0  0  0  0  0  0  0  0
   -1.3569    3.5931    2.9864 C   0  0  2  0  0  0  0  0  0  0  0  0
   -1.6881    2.5305    3.9440 N   0  0  0  0  0  0  0  0  0  0  0  0
   -0.0691    3.2760    2.1911 C   0  0  2  0  0  0  0  0  0  0  0  0
    0.0834    4.2978    1.1102 C   0  0  2  0  0  0  0  0  0  0  0  0
    1.2434    3.9655    0.3695 O   0  0  0  0  0  0  0  0  0  0  0  0
    0.2038    5.6787    1.7267 C   0  0  1  0  0  0  0  0  0  0  0  0
    0.2664    6.6956    0.7444 O   0  0  0  0  0  0  0  0  0  0  0  0
    1.2352    4.2301   -1.0293 C   0  0  1  0  0  0  0  0  0  0  0  0
    1.6776    5.6806   -1.2334 C   0  0  2  0  0  0  0  0  0  0  0  0
    0.9638    6.2392   -2.3202 O   0  0  0  0  0  0  0  0  0  0  0  0
    3.1781    5.5317   -1.5185 C   0  0  2  0  0  0  0  0  0  0  0  0
    3.7255    6.6580   -2.2045 O   0  0  0  0  0  0  0  0  0  0  0  0
    3.1670    4.2282   -2.3265 C   0  0  2  0  0  0  0  0  0  0  0  0
    2.2024    3.4126   -1.6762 O   0  0  0  0  0  0  0  0  0  0  0  0
    4.5093    3.4877   -2.3519 C   0  0  0  0  0  0  0  0  0  0  0  0
    4.8097    2.9126   -1.0980 O   0  0  0  0  0  0  0  0  0  0  0  0
    3.5412    7.9061   -1.5395 C   0  0  2  0  0  0  0  0  0  0  0  0
    3.2330    9.0400   -2.5291 C   0  0  2  0  0  0  0  0  0  0  0  0
    2.0708    8.7044   -3.3686 N   0  0  0  0  0  0  0  0  0  0  0  0
    4.4637    9.3805   -3.3829 C   0  0  1  0  0  0  0  0  0  0  0  0
    4.1480   10.4832   -4.2106 O   0  0  0  0  0  0  0  0  0  0  0  0
    5.6250    9.7399   -2.4404 C   0  0  2  0  0  0  0  0  0  0  0  0
    6.8003   10.0215   -3.1778 O   0  0  0  0  0  0  0  0  0  0  0  0
    5.8839    8.6075   -1.4255 C   0  0  1  0  0  0  0  0  0  0  0  0
    4.6836    8.2267   -0.7489 O   0  0  0  0  0  0  0  0  0  0  0  0
    6.6074    7.3975   -2.0348 C   0  0  0  0  0  0  0  0  0  0  0  0
    6.8825    6.3694   -1.0181 N   0  0  0  0  0  0  0  0  0  0  0  0
  1  3  1  0  0  0  0
  1  2  1  1  0  0  0
  3  4  1  6  0  0  0
  5  6  1  6  0  0  0
  5  3  1  0  0  0  0
  7  9  1  0  0  0  0
  7  5  1  0  0  0  0
  7  8  1  1  0  0  0
  9 10  1  0  0  0  0
  9 11  1  1  0  0  0
 10  1  1  0  0  0  0
 11 12  1  0  0  0  0
 13 14  1  1  0  0  0
 13 21  1  0  0  0  0
 15 13  1  0  0  0  0
 16 15  1  0  0  0  0
 16 18  1  0  0  0  0
 16 17  1  1  0  0  0
 18  2  1  6  0  0  0
 18 19  1  0  0  0  0
 19 21  1  0  0  0  0
 19 20  1  1  0  0  0
 21 22  1  6  0  0  0
 23 20  1  1  0  0  0
 23 29  1  0  0  0  0
 23 24  1  0  0  0  0
 24 26  1  0  0  0  0
 24 25  1  6  0  0  0
 26 27  1  6  0  0  0
 28 26  1  0  0  0  0
 28 30  1  1  0  0  0
 29 28  1  0  0  0  0
 30 31  1  0  0  0  0
 32 27  1  6  0  0  0
 32 40  1  0  0  0  0
 32 33  1  0  0  0  0
 33 35  1  0  0  0  0
 33 34  1  6  0  0  0
 35 37  1  0  0  0  0
 35 36  1  6  0  0  0
 37 38  1  6  0  0  0
 39 37  1  0  0  0  0
 39 41  1  6  0  0  0
 40 39  1  0  0  0  0
 42 41  1  0  0  0  0
M  END
>  <CHROM.1>
-141.48266064,-148.93101884,-87.86760792,-177.12349779,-175.71144543,-69.61286191
-67.02299528,-89.51252214,56.93429518,145.61797920,86.04037397,73.94843132
6.33002502,56.75309361,-141.44364555,71.02627620,166.78438196,23.15155268
-54.18506949,174.06089171,177.59845705,-63.66767652,1.88461708,4.27780002
0.10293992,-2.21223880,0.75714808,-0.05836512

>  <Name>
lig.pdb

>  <RI>
0

>  <Rbt.Current_Directory>
/home/itssahil/PROJECTS/Mol_Feturizer/New_Systems/rnas/2mxs

>  <Rbt.Executable>
rbdock ($Id: //depot/dev/client3/rdock/2013.1/src/exe/rbdock.cxx#4 $)

>  <Rbt.Library>
libRbt.so (2013.1, Build901 2013/11/27)

>  <Rbt.Parameter_File>
/export/apps/rDock/src/rDock_2013.1_src/data/scripts/dock_solv.prm

>  <Rbt.Receptor>
prm/pocket_docking_7.prm

>  <SCORE>
-46.7265

>  <SCORE.INTER>
-49.1017

>  <SCORE.INTER.CONST>
1

>  <SCORE.INTER.POLAR>
-6.22093

>  <SCORE.INTER.ROT>
9

>  <SCORE.INTER.SOLV>
23.3497

>  <SCORE.INTER.VDW>
-29.3813

>  <SCORE.INTER.norm>
-1.16909

>  <SCORE.INTRA>
2.36007

>  <SCORE.INTRA.DIHEDRAL>
7.7842

>  <SCORE.INTRA.DIHEDRAL.0>
30.1357

>  <SCORE.INTRA.POLAR>
-1.95279

>  <SCORE.INTRA.POLAR.0>
-0.631696

>  <SCORE.INTRA.REPUL>
0.0491396

>  <SCORE.INTRA.REPUL.0>
0

>  <SCORE.INTRA.SOLV>
1.45194

>  <SCORE.INTRA.SOLV.lig_0>
-55.904

>  <SCORE.INTRA.VDW>
4.13579

>  <SCORE.INTRA.VDW.0>
-8.21197

>  <SCORE.INTRA.norm>
0.0561922

>  <SCORE.RESTR>
0.0151139

>  <SCORE.RESTR.CAVITY>
0.0151139

>  <SCORE.RESTR.norm>
0.000359855

>  <SCORE.SYSTEM>
0

>  <SCORE.SYSTEM.CONST>
0

>  <SCORE.SYSTEM.DIHEDRAL>
0

>  <SCORE.SYSTEM.SOLV>
0

>  <SCORE.SYSTEM.norm>
0

>  <SCORE.heavy>
42

>  <SCORE.norm>
-1.11254

>  <RMSD>
9.301

$$$$
lig.pdb
 OpenBabel11021811453D
libRbt.so/2013.1/901 2013/11/27
 42 45  0  0  0  0  0  0  0  0999 V2000
   -2.1702    2.7015    7.3405 C   0  0  2  0  0  0  0  0  0  0  0  0
   -2.2578    3.9968    7.9372 O   0  0  0  0  0  0  0  0  0  0  0  0
   -3.3201    1.8010    7.8166 C   0  0  2  0  0  0  0  0  0  0  0  0
   -4.6273    2.4375    7.5705 N   0  0  0  0  0  0  0  0  0  0  0  0
   -3.1554    1.4355    9.2974 C   0  0  1  0  0  0  0  0  0  0  0  0
   -4.1412    0.4876    9.6596 O   0  0  0  0  0  0  0  0  0  0  0  0
   -1.7613    0.8405    9.5468 C   0  0  2  0  0  0  0  0  0  0  0  0
   -1.5716    0.6581   10.9368 O   0  0  0  0  0  0  0  0  0  0  0  0
   -0.6497    1.7486    8.9829 C   0  0  2  0  0  0  0  0  0  0  0  0
   -0.9097    2.0994    7.6241 O   0  0  0  0  0  0  0  0  0  0  0  0
    0.6855    0.9859    9.0769 C   0  0  0  0  0  0  0  0  0  0  0  0
    1.5125    1.1820    7.8988 O   0  0  0  0  0  0  0  0  0  0  0  0
   -0.3003    7.6734    6.8500 C   0  0  2  0  0  0  0  0  0  0  0  0
    0.8774    8.4551    6.4230 N   0  0  0  0  0  0  0  0  0  0  0  0
   -0.0277    6.9915    8.1930 C   0  0  0  0  0  0  0  0  0  0  0  0
   -1.1822    6.0715    8.5721 C   0  0  2  0  0  0  0  0  0  0  0  0
   -0.9572    5.4987    9.9052 N   0  0  0  0  0  0  0  0  0  0  0  0
   -1.3132    4.9785    7.4861 C   0  0  2  0  0  0  0  0  0  0  0  0
   -1.7374    5.6291    6.2084 C   0  0  2  0  0  0  0  0  0  0  0  0
   -1.8918    4.6077    5.2402 O   0  0  0  0  0  0  0  0  0  0  0  0
   -0.6902    6.6386    5.7778 C   0  0  1  0  0  0  0  0  0  0  0  0
   -1.0804    7.3464    4.6159 O   0  0  0  0  0  0  0  0  0  0  0  0
   -0.7123    4.0029    4.7206 C   0  0  1  0  0  0  0  0  0  0  0  0
   -1.1403    2.9287    3.7184 C   0  0  2  0  0  0  0  0  0  0  0  0
   -0.2482    1.8329    3.7972 O   0  0  0  0  0  0  0  0  0  0  0  0
   -1.0542    3.6731    2.3791 C   0  0  2  0  0  0  0  0  0  0  0  0
   -0.9359    2.7910    1.2625 O   0  0  0  0  0  0  0  0  0  0  0  0
    0.1766    4.5498    2.6409 C   0  0  2  0  0  0  0  0  0  0  0  0
    0.0380    4.9664    3.9920 O   0  0  0  0  0  0  0  0  0  0  0  0
    0.2725    5.7900    1.7447 C   0  0  0  0  0  0  0  0  0  0  0  0
   -0.8316    6.6506    1.9279 O   0  0  0  0  0  0  0  0  0  0  0  0
    0.3774    2.6993    0.7140 C   0  0  2  0  0  0  0  0  0  0  0  0
    0.3728    2.8818   -0.8113 C   0  0  2  0  0  0  0  0  0  0  0  0
   -0.2769    4.1483   -1.1879 N   0  0  0  0  0  0  0  0  0  0  0  0
   -0.2846    1.6828   -1.5111 C   0  0  1  0  0  0  0  0  0  0  0  0
   -0.1829    1.8651   -2.9101 O   0  0  0  0  0  0  0  0  0  0  0  0
    0.4590    0.4047   -1.0873 C   0  0  2  0  0  0  0  0  0  0  0  0
   -0.1360   -0.7389   -1.6726 O   0  0  0  0  0  0  0  0  0  0  0  0
    0.4924    0.2684    0.4489 C   0  0  1  0  0  0  0  0  0  0  0  0
    0.9838    1.4587    1.0693 O   0  0  0  0  0  0  0  0  0  0  0  0
   -0.8481   -0.1802    1.0495 C   0  0  0  0  0  0  0  0  0  0  0  0
   -1.1812   -1.5567    0.6490 N   0  0  0  0  0  0  0  0  0  0  0  0
  1  3  1  0  0  0  0
  1  2  1  1  0  0  0
  3  4  1  1  0  0  0
  5  6  1  6  0  0  0
  5  3  1  0  0  0  0
  7  9  1  0  0  0  0
  7  5  1  0  0  0  0
  7  8  1  1  0  0  0
  9 10  1  0  0  0  0
  9 11  1  6  0  0  0
 10  1  1  0  0  0  0
 11 12  1  0  0  0  0
 13 14  1  6  0  0  0
 13 21  1  0  0  0  0
 15 13  1  0  0  0  0
 16 15  1  0  0  0  0
 16 18  1  0  0  0  0
 16 17  1  1  0  0  0
 18  2  1  1  0  0  0
 18 19  1  0  0  0  0
 19 21  1  0  0  0  0
 19 20  1  6  0  0  0
 21 22  1  6  0  0  0
 23 20  1  6  0  0  0
 23 29  1  0  0  0  0
 23 24  1  0  0  0  0
 24 26  1  0  0  0  0
 24 25  1  6  0  0  0
 26 27  1  6  0  0  0
 28 26  1  0  0  0  0
 28 30  1  6  0  0  0
 29 28  1  0  0  0  0
 30 31  1  0  0  0  0
 32 27  1  6  0  0  0
 32 40  1  0  0  0  0
 32 33  1  0  0  0  0
 33 35  1  0  0  0  0
 33 34  1  1  0  0  0
 35 37  1  0  0  0  0
 35 36  1  6  0  0  0
 37 38  1  6  0  0  0
 39 37  1  0  0  0  0
 39 41  1  1  0  0  0
 40 39  1  0  0  0  0
 42 41  1  0  0  0  0
M  END
>  <CHROM.1>
-158.08465274,-174.54284888,61.31977568,76.94019926,156.76180395,-154.61562313
139.47796144,58.65664117,169.85280351,-72.88316665,179.22137141,-73.42773408
-58.98492800,-103.42368230,-130.49393097,61.10838943,53.75354791,44.98653230
173.23490203,161.73529985,66.74223007,64.96951987,-0.84547929,3.17927168
4.60087512,2.31887954,1.34259911,0.65167164

>  <Name>
lig.pdb

>  <RI>
3.99633e+07

>  <Rbt.Current_Directory>
/home/itssahil/PROJECTS/Mol_Feturizer/New_Systems/rnas/2mxs

>  <Rbt.Executable>
rbdock ($Id: //depot/dev/client3/rdock/2013.1/src/exe/rbdock.cxx#4 $)

>  <Rbt.Library>
libRbt.so (2013.1, Build901 2013/11/27)

>  <Rbt.Parameter_File>
/export/apps/rDock/src/rDock_2013.1_src/data/scripts/dock_solv.prm

>  <Rbt.Receptor>
prm/pocket_docking_5.prm

>  <SCORE>
-37.118

>  <SCORE.INTER>
-41.3704

>  <SCORE.INTER.CONST>
1

>  <SCORE.INTER.POLAR>
-7.01337

>  <SCORE.INTER.ROT>
9

>  <SCORE.INTER.SOLV>
19.6469

>  <SCORE.INTER.VDW>
-20.3513

>  <SCORE.INTER.norm>
-0.985009

>  <SCORE.INTRA>
4.22029

>  <SCORE.INTRA.DIHEDRAL>
0.25493

>  <SCORE.INTRA.DIHEDRAL.0>
30.1357

>  <SCORE.INTRA.POLAR>
-0.830113

>  <SCORE.INTRA.POLAR.0>
-0.631696

>  <SCORE.INTRA.REPUL>
0

>  <SCORE.INTRA.REPUL.0>
0

>  <SCORE.INTRA.SOLV>
1.75475

>  <SCORE.INTRA.SOLV.lig_0>
-55.904

>  <SCORE.INTRA.VDW>
6.03784

>  <SCORE.INTRA.VDW.0>
-8.21197

>  <SCORE.INTRA.norm>
0.100483

>  <SCORE.RESTR>
0.0321461

>  <SCORE.RESTR.CAVITY>
0.0321461

>  <SCORE.RESTR.norm>
0.000765382

>  <SCORE.SYSTEM>
0

>  <SCORE.SYSTEM.CONST>
0

>  <SCORE.SYSTEM.DIHEDRAL>
0

>  <SCORE.SYSTEM.SOLV>
0

>  <SCORE.SYSTEM.norm>
0

>  <SCORE.heavy>
42

>  <SCORE.norm>
-0.883761

>  <RMSD>
9.319

$$$$
lig.pdb
 OpenBabel11021811453D
libRbt.so/2013.1/901 2013/11/27
 42 45  0  0  0  0  0  0  0  0999 V2000
   -3.5117    4.5935    6.2361 C   0  0  2  0  0  0  0  0  0  0  0  0
   -3.1572    5.5654    7.2216 O   0  0  0  0  0  0  0  0  0  0  0  0
   -5.0376    4.4932    6.0905 C   0  0  2  0  0  0  0  0  0  0  0  0
   -5.6298    5.8131    5.8054 N   0  0  0  0  0  0  0  0  0  0  0  0
   -5.6689    3.8643    7.3394 C   0  0  1  0  0  0  0  0  0  0  0  0
   -7.0480    3.6477    7.1100 O   0  0  0  0  0  0  0  0  0  0  0  0
   -4.9900    2.5245    7.6616 C   0  0  2  0  0  0  0  0  0  0  0  0
   -5.4744    2.0396    8.8992 O   0  0  0  0  0  0  0  0  0  0  0  0
   -3.4557    2.6681    7.7216 C   0  0  2  0  0  0  0  0  0  0  0  0
   -2.9526    3.3222    6.5571 O   0  0  0  0  0  0  0  0  0  0  0  0
   -2.8466    1.2572    7.8299 C   0  0  0  0  0  0  0  0  0  0  0  0
   -3.1149    0.6421    9.1183 O   0  0  0  0  0  0  0  0  0  0  0  0
    0.5457    7.7195    7.6454 C   0  0  2  0  0  0  0  0  0  0  0  0
    2.0164    7.7893    7.7559 N   0  0  0  0  0  0  0  0  0  0  0  0
   -0.0361    6.8984    8.7989 C   0  0  0  0  0  0  0  0  0  0  0  0
   -1.5364    6.7030    8.6156 C   0  0  2  0  0  0  0  0  0  0  0  0
   -2.1014    6.0001    9.7743 N   0  0  0  0  0  0  0  0  0  0  0  0
   -1.7712    5.9294    7.2973 C   0  0  2  0  0  0  0  0  0  0  0  0
   -1.3497    6.7992    6.1565 C   0  0  2  0  0  0  0  0  0  0  0  0
   -1.6115    6.0897    4.9596 O   0  0  0  0  0  0  0  0  0  0  0  0
    0.1249    7.1310    6.2856 C   0  0  1  0  0  0  0  0  0  0  0  0
    0.5595    8.0225    5.2759 O   0  0  0  0  0  0  0  0  0  0  0  0
   -1.9399    6.8459    3.7989 C   0  0  1  0  0  0  0  0  0  0  0  0
   -0.6907    6.9166    2.9180 C   0  0  2  0  0  0  0  0  0  0  0  0
   -0.6360    8.1805    2.2838 O   0  0  0  0  0  0  0  0  0  0  0  0
   -0.9162    5.7631    1.9312 C   0  0  2  0  0  0  0  0  0  0  0  0
   -0.1576    5.9061    0.7301 O   0  0  0  0  0  0  0  0  0  0  0  0
   -2.4358    5.8624    1.7492 C   0  0  2  0  0  0  0  0  0  0  0  0
   -2.9327    6.1601    3.0464 O   0  0  0  0  0  0  0  0  0  0  0  0
   -3.0984    4.5749    1.2455 C   0  0  0  0  0  0  0  0  0  0  0  0
   -2.6914    3.4518    1.9979 O   0  0  0  0  0  0  0  0  0  0  0  0
   -0.3293    4.8483   -0.2109 C   0  0  2  0  0  0  0  0  0  0  0  0
    0.4213    3.5775    0.2158 C   0  0  2  0  0  0  0  0  0  0  0  0
    0.0210    3.1595    1.5697 N   0  0  0  0  0  0  0  0  0  0  0  0
    1.9417    3.7711    0.1136 C   0  0  1  0  0  0  0  0  0  0  0  0
    2.5752    2.5476    0.4340 O   0  0  0  0  0  0  0  0  0  0  0  0
    2.2836    4.1838   -1.3282 C   0  0  2  0  0  0  0  0  0  0  0  0
    3.6731    4.4176   -1.4666 O   0  0  0  0  0  0  0  0  0  0  0  0
    1.4823    5.4326   -1.7503 C   0  0  1  0  0  0  0  0  0  0  0  0
    0.0833    5.2620   -1.5115 O   0  0  0  0  0  0  0  0  0  0  0  0
    2.0149    6.7347   -1.1341 C   0  0  0  0  0  0  0  0  0  0  0  0
    0.9917    7.7926   -1.1491 N   0  0  0  0  0  0  0  0  0  0  0  0
  1  3  1  0  0  0  0
  1  2  1  1  0  0  0
  3  4  1  1  0  0  0
  5  6  1  6  0  0  0
  5  3  1  0  0  0  0
  7  9  1  0  0  0  0
  7  5  1  0  0  0  0
  7  8  1  1  0  0  0
  9 10  1  0  0  0  0
  9 11  1  6  0  0  0
 10  1  1  0  0  0  0
 11 12  1  0  0  0  0
 13 14  1  6  0  0  0
 13 21  1  0  0  0  0
 15 13  1  0  0  0  0
 16 15  1  0  0  0  0
 16 18  1  0  0  0  0
 16 17  1  1  0  0  0
 18  2  1  6  0  0  0
 18 19  1  0  0  0  0
 19 21  1  0  0  0  0
 19 20  1  6  0  0  0
 21 22  1  6  0  0  0
 23 20  1  1  0  0  0
 23 29  1  0  0  0  0
 23 24  1  0  0  0  0
 24 26  1  0  0  0  0
 24 25  1  6  0  0  0
 26 27  1  6  0  0  0
 28 26  1  0  0  0  0
 28 30  1  1  0  0  0
 29 28  1  0  0  0  0
 30 31  1  0  0  0  0
 32 27  1  1  0  0  0
 32 40  1  0  0  0  0
 32 33  1  0  0  0  0
 33 35  1  0  0  0  0
 33 34  1  1  0  0  0
 35 37  1  0  0  0  0
 35 36  1  6  0  0  0
 37 38  1  1  0  0  0
 39 37  1  0  0  0  0
 39 41  1  1  0  0  0
 40 39  1  0  0  0  0
 42 41  1  0  0  0  0
M  END
>  <CHROM.1>
-166.28465863,-169.52932298,162.38771060,-61.95264289,-177.81260520,-77.54711508
-69.66767190,-58.66174632,168.94176615,149.31279187,101.65972536,49.37757927
60.52472251,179.48931860,-75.47188882,49.26391845,175.02681818,166.22045606
61.55773000,-52.43236145,-159.58976664,-165.19056261,-1.39072063,5.10569320
4.14489331,2.31494449,0.73923961,1.15390536

>  <Name>
lig.pdb

>  <RI>
0

>  <Rbt.Current_Directory>
/home/itssahil/PROJECTS/Mol_Feturizer/New_Systems/rnas/2mxs

>  <Rbt.Executable>
rbdock ($Id: //depot/dev/client3/rdock/2013.1/src/exe/rbdock.cxx#4 $)

>  <Rbt.Library>
libRbt.so (2013.1, Build901 2013/11/27)

>  <Rbt.Parameter_File>
/export/apps/rDock/src/rDock_2013.1_src/data/scripts/dock_solv.prm

>  <Rbt.Receptor>
prm/pocket_docking_6.prm

>  <SCORE>
-34.1632

>  <SCORE.INTER>
-28.4102

>  <SCORE.INTER.CONST>
1

>  <SCORE.INTER.POLAR>
-3.34018

>  <SCORE.INTER.ROT>
9

>  <SCORE.INTER.SOLV>
19.819

>  <SCORE.INTER.VDW>
-24.0125

>  <SCORE.INTER.norm>
-0.676433

>  <SCORE.INTRA>
-5.75304

>  <SCORE.INTRA.DIHEDRAL>
-11.0569

>  <SCORE.INTRA.DIHEDRAL.0>
30.1357

>  <SCORE.INTRA.POLAR>
-1.60987

>  <SCORE.INTRA.POLAR.0>
-0.631696

>  <SCORE.INTRA.REPUL>
0.00939762

>  <SCORE.INTRA.REPUL.0>
0

>  <SCORE.INTRA.SOLV>
1.45525

>  <SCORE.INTRA.SOLV.lig_0>
-55.904

>  <SCORE.INTRA.VDW>
4.47438

>  <SCORE.INTRA.VDW.0>
-8.21197

>  <SCORE.INTRA.norm>
-0.136977

>  <SCORE.RESTR>
0

>  <SCORE.RESTR.CAVITY>
0

>  <SCORE.RESTR.norm>
0

>  <SCORE.SYSTEM>
0

>  <SCORE.SYSTEM.CONST>
0

>  <SCORE.SYSTEM.DIHEDRAL>
0

>  <SCORE.SYSTEM.SOLV>
0

>  <SCORE.SYSTEM.norm>
0

>  <SCORE.heavy>
42

>  <SCORE.norm>
-0.81341

>  <RMSD>
9.329

$$$$
lig.pdb
 OpenBabel11021811453D
libRbt.so/2013.1/901 2013/11/27
 42 45  0  0  0  0  0  0  0  0999 V2000
   -4.2543    2.8766    7.3857 C   0  0  2  0  0  0  0  0  0  0  0  0
   -2.9879    3.2097    7.9575 O   0  0  0  0  0  0  0  0  0  0  0  0
   -5.3375    3.8660    7.8412 C   0  0  2  0  0  0  0  0  0  0  0  0
   -4.9435    5.2556    7.5443 N   0  0  0  0  0  0  0  0  0  0  0  0
   -5.6518    3.6892    9.3324 C   0  0  1  0  0  0  0  0  0  0  0  0
   -6.7541    4.5050    9.6800 O   0  0  0  0  0  0  0  0  0  0  0  0
   -5.9896    2.2214    9.6346 C   0  0  2  0  0  0  0  0  0  0  0  0
   -6.1202    2.0491   11.0327 O   0  0  0  0  0  0  0  0  0  0  0  0
   -4.9066    1.2681    9.0900 C   0  0  2  0  0  0  0  0  0  0  0  0
   -4.6222    1.5402    7.7181 O   0  0  0  0  0  0  0  0  0  0  0  0
   -5.4216   -0.1763    9.2380 C   0  0  0  0  0  0  0  0  0  0  0  0
   -6.5619   -0.4420    8.3781 O   0  0  0  0  0  0  0  0  0  0  0  0
    0.9162    2.0475    6.5655 C   0  0  2  0  0  0  0  0  0  0  0  0
    1.9240    1.0398    6.1792 N   0  0  0  0  0  0  0  0  0  0  0  0
    0.4980    1.8494    8.0246 C   0  0  0  0  0  0  0  0  0  0  0  0
   -0.6418    2.7932    8.3893 C   0  0  2  0  0  0  0  0  0  0  0  0
   -0.9694    2.6654    9.8148 N   0  0  0  0  0  0  0  0  0  0  0  0
   -1.8534    2.4691    7.4846 C   0  0  2  0  0  0  0  0  0  0  0  0
   -1.4973    2.8155    6.0743 C   0  0  2  0  0  0  0  0  0  0  0  0
   -2.6323    2.5510    5.2704 O   0  0  0  0  0  0  0  0  0  0  0  0
   -0.3064    1.9871    5.6306 C   0  0  1  0  0  0  0  0  0  0  0  0
    0.1274    2.3344    4.3290 O   0  0  0  0  0  0  0  0  0  0  0  0
   -3.0521    3.5638    4.3622 C   0  0  1  0  0  0  0  0  0  0  0  0
   -1.8241    4.0221    3.5727 C   0  0  2  0  0  0  0  0  0  0  0  0
   -1.9196    5.4119    3.3237 O   0  0  0  0  0  0  0  0  0  0  0  0
   -1.9196    3.1788    2.2940 C   0  0  2  0  0  0  0  0  0  0  0  0
   -1.1889    3.7418    1.2041 O   0  0  0  0  0  0  0  0  0  0  0  0
   -3.4414    3.1541    2.1050 C   0  0  2  0  0  0  0  0  0  0  0  0
   -3.9626    3.0129    3.4191 O   0  0  0  0  0  0  0  0  0  0  0  0
   -3.9529    1.9967    1.2394 C   0  0  0  0  0  0  0  0  0  0  0  0
   -3.3936    2.0298   -0.0565 O   0  0  0  0  0  0  0  0  0  0  0  0
    0.1950    3.9642    1.4681 C   0  0  2  0  0  0  0  0  0  0  0  0
    0.6763    5.3066    0.8968 C   0  0  2  0  0  0  0  0  0  0  0  0
   -0.1493    6.4181    1.3979 N   0  0  0  0  0  0  0  0  0  0  0  0
    0.7070    5.2766   -0.6387 C   0  0  1  0  0  0  0  0  0  0  0  0
    1.2375    6.5026   -1.1037 O   0  0  0  0  0  0  0  0  0  0  0  0
    1.6023    4.1081   -1.0844 C   0  0  2  0  0  0  0  0  0  0  0  0
    1.6307    4.0086   -2.4964 O   0  0  0  0  0  0  0  0  0  0  0  0
    1.1286    2.7794   -0.4600 C   0  0  1  0  0  0  0  0  0  0  0  0
    0.9819    2.8904    0.9576 O   0  0  0  0  0  0  0  0  0  0  0  0
   -0.1337    2.2103   -1.1245 C   0  0  0  0  0  0  0  0  0  0  0  0
    0.1217    1.8302   -2.5233 N   0  0  0  0  0  0  0  0  0  0  0  0
  1  3  1  0  0  0  0
  1  2  1  1  0  0  0
  3  4  1  1  0  0  0
  5  6  1  6  0  0  0
  5  3  1  0  0  0  0
  7  9  1  0  0  0  0
  7  5  1  0  0  0  0
  7  8  1  1  0  0  0
  9 10  1  0  0  0  0
  9 11  1  6  0  0  0
 10  1  1  0  0  0  0
 11 12  1  0  0  0  0
 13 14  1  6  0  0  0
 13 21  1  0  0  0  0
 15 13  1  0  0  0  0
 16 15  1  0  0  0  0
 16 18  1  0  0  0  0
 16 17  1  1  0  0  0
 18  2  1  1  0  0  0
 18 19  1  0  0  0  0
 19 21  1  0  0  0  0
 19 20  1  6  0  0  0
 21 22  1  6  0  0  0
 23 20  1  1  0  0  0
 23 29  1  0  0  0  0
 23 24  1  0  0  0  0
 24 26  1  0  0  0  0
 24 25  1  6  0  0  0
 26 27  1  6  0  0  0
 28 26  1  0  0  0  0
 28 30  1  6  0  0  0
 29 28  1  0  0  0  0
 30 31  1  0  0  0  0
 32 27  1  6  0  0  0
 32 40  1  0  0  0  0
 32 33  1  0  0  0  0
 33 35  1  0  0  0  0
 33 34  1  6  0  0  0
 35 37  1  0  0  0  0
 35 36  1  1  0  0  0
 37 38  1  6  0  0  0
 39 37  1  0  0  0  0
 39 41  1  6  0  0  0
 40 39  1  0  0  0  0
 42 41  1  0  0  0  0
M  END
>  <CHROM.1>
-170.05738163,-172.42172590,-57.20761496,-179.38577520,68.69500474,52.52510301
66.83498086,175.92608140,-42.43010555,131.20444456,49.37775203,69.18624976
-62.07213654,56.56012087,-138.68346447,-59.29019218,48.84578504,-91.84112254
-63.57544402,175.61717233,65.10325281,57.33740430,-2.02468747,3.05420036
4.48372225,2.05704720,-0.04649775,1.75821817

>  <Name>
lig.pdb

>  <RI>
0

>  <Rbt.Current_Directory>
/home/itssahil/PROJECTS/Mol_Feturizer/New_Systems/rnas/2mxs

>  <Rbt.Executable>
rbdock ($Id: //depot/dev/client3/rdock/2013.1/src/exe/rbdock.cxx#4 $)

>  <Rbt.Library>
libRbt.so (2013.1, Build901 2013/11/27)

>  <Rbt.Parameter_File>
/export/apps/rDock/src/rDock_2013.1_src/data/scripts/dock_solv.prm

>  <Rbt.Receptor>
prm/pocket_docking_7.prm

>  <SCORE>
-22.7331

>  <SCORE.INTER>
-19.6762

>  <SCORE.INTER.CONST>
1

>  <SCORE.INTER.POLAR>
-2.34055

>  <SCORE.INTER.ROT>
9

>  <SCORE.INTER.SOLV>
13.7289

>  <SCORE.INTER.VDW>
-19.4919

>  <SCORE.INTER.norm>
-0.468481

>  <SCORE.INTRA>
-3.05693

>  <SCORE.INTRA.DIHEDRAL>
-10.9898

>  <SCORE.INTRA.DIHEDRAL.0>
30.1357

>  <SCORE.INTRA.POLAR>
-0.96526

>  <SCORE.INTRA.POLAR.0>
-0.631696

>  <SCORE.INTRA.REPUL>
0.119683

>  <SCORE.INTRA.REPUL.0>
0

>  <SCORE.INTRA.SOLV>
1.25776

>  <SCORE.INTRA.SOLV.lig_0>
-55.904

>  <SCORE.INTRA.VDW>
4.49255

>  <SCORE.INTRA.VDW.0>
-8.21197

>  <SCORE.INTRA.norm>
-0.072784

>  <SCORE.RESTR>
0

>  <SCORE.RESTR.CAVITY>
0

>  <SCORE.RESTR.norm>
0

>  <SCORE.SYSTEM>
0

>  <SCORE.SYSTEM.CONST>
0

>  <SCORE.SYSTEM.DIHEDRAL>
0

>  <SCORE.SYSTEM.SOLV>
0

>  <SCORE.SYSTEM.norm>
0

>  <SCORE.heavy>
42

>  <SCORE.norm>
-0.541265

>  <RMSD>
9.341

$$$$
lig.pdb
 OpenBabel11021811453D
libRbt.so/2013.1/901 2013/11/27
 42 45  0  0  0  0  0  0  0  0999 V2000
   -4.9661   -1.7136    5.4616 C   0  0  2  0  0  0  0  0  0  0  0  0
   -5.9446   -2.6920    5.1057 O   0  0  0  0  0  0  0  0  0  0  0  0
   -4.7341   -1.6990    6.9800 C   0  0  2  0  0  0  0  0  0  0  0  0
   -4.3799   -3.0424    7.4741 N   0  0  0  0  0  0  0  0  0  0  0  0
   -5.9599   -1.1461    7.7183 C   0  0  1  0  0  0  0  0  0  0  0  0
   -5.6559   -1.0043    9.0928 O   0  0  0  0  0  0  0  0  0  0  0  0
   -6.3568    0.2211    7.1412 C   0  0  2  0  0  0  0  0  0  0  0  0
   -7.5762    0.6395    7.7238 O   0  0  0  0  0  0  0  0  0  0  0  0
   -6.5028    0.1665    5.6069 C   0  0  2  0  0  0  0  0  0  0  0  0
   -5.3529   -0.4217    4.9997 O   0  0  0  0  0  0  0  0  0  0  0  0
   -6.6839    1.6069    5.0915 C   0  0  0  0  0  0  0  0  0  0  0  0
   -7.9250    2.2027    5.5553 O   0  0  0  0  0  0  0  0  0  0  0  0
   -7.1766   -3.9203    1.1681 C   0  0  2  0  0  0  0  0  0  0  0  0
   -7.6733   -3.6463   -0.1952 N   0  0  0  0  0  0  0  0  0  0  0  0
   -8.1926   -3.4455    2.2099 C   0  0  0  0  0  0  0  0  0  0  0  0
   -7.6281   -3.5954    3.6176 C   0  0  2  0  0  0  0  0  0  0  0  0
   -8.6441   -3.2305    4.6128 N   0  0  0  0  0  0  0  0  0  0  0  0
   -6.3616   -2.7155    3.7327 C   0  0  2  0  0  0  0  0  0  0  0  0
   -5.3107   -3.2779    2.8300 C   0  0  2  0  0  0  0  0  0  0  0  0
   -4.1483   -2.4839    2.9817 O   0  0  0  0  0  0  0  0  0  0  0  0
   -5.8053   -3.2568    1.3960 C   0  0  1  0  0  0  0  0  0  0  0  0
   -4.8821   -3.8563    0.5065 O   0  0  0  0  0  0  0  0  0  0  0  0
   -2.9123   -3.0242    2.5266 C   0  0  1  0  0  0  0  0  0  0  0  0
   -2.2665   -1.9950    1.5965 C   0  0  2  0  0  0  0  0  0  0  0  0
   -1.5916   -2.6680    0.5504 O   0  0  0  0  0  0  0  0  0  0  0  0
   -1.3125   -1.2497    2.5396 C   0  0  2  0  0  0  0  0  0  0  0  0
   -0.2608   -0.5782    1.8455 O   0  0  0  0  0  0  0  0  0  0  0  0
   -0.8572   -2.4123    3.4303 C   0  0  2  0  0  0  0  0  0  0  0  0
   -2.0288   -3.1911    3.6283 O   0  0  0  0  0  0  0  0  0  0  0  0
   -0.3064   -1.9854    4.7959 C   0  0  0  0  0  0  0  0  0  0  0  0
    0.8806   -1.2322    4.6655 O   0  0  0  0  0  0  0  0  0  0  0  0
   -0.0336    0.7653    2.2667 C   0  0  2  0  0  0  0  0  0  0  0  0
   -0.5930    1.7814    1.2593 C   0  0  2  0  0  0  0  0  0  0  0  0
   -2.0218    1.5356    1.0022 N   0  0  0  0  0  0  0  0  0  0  0  0
    0.2216    1.7768   -0.0431 C   0  0  1  0  0  0  0  0  0  0  0  0
   -0.2830    2.7871   -0.8948 O   0  0  0  0  0  0  0  0  0  0  0  0
    1.6932    2.0607    0.3028 C   0  0  2  0  0  0  0  0  0  0  0  0
    2.4977    2.0251   -0.8616 O   0  0  0  0  0  0  0  0  0  0  0  0
    2.2179    1.0582    1.3513 C   0  0  1  0  0  0  0  0  0  0  0  0
    1.3561    0.9929    2.4899 O   0  0  0  0  0  0  0  0  0  0  0  0
    2.5081   -0.3338    0.7708 C   0  0  0  0  0  0  0  0  0  0  0  0
    3.5840   -0.2827   -0.2323 N   0  0  0  0  0  0  0  0  0  0  0  0
  1  3  1  0  0  0  0
  1  2  1  1  0  0  0
  3  4  1  1  0  0  0
  5  6  1  1  0  0  0
  5  3  1  0  0  0  0
  7  9  1  0  0  0  0
  7  5  1  0  0  0  0
  7  8  1  1  0  0  0
  9 10  1  0  0  0  0
  9 11  1  6  0  0  0
 10  1  1  0  0  0  0
 11 12  1  0  0  0  0
 13 14  1  6  0  0  0
 13 21  1  0  0  0  0
 15 13  1  0  0  0  0
 16 15  1  0  0  0  0
 16 18  1  0  0  0  0
 16 17  1  1  0  0  0
 18  2  1  1  0  0  0
 18 19  1  0  0  0  0
 19 21  1  0  0  0  0
 19 20  1  6  0  0  0
 21 22  1  6  0  0  0
 23 20  1  1  0  0  0
 23 29  1  0  0  0  0
 23 24  1  0  0  0  0
 24 26  1  0  0  0  0
 24 25  1  6  0  0  0
 26 27  1  6  0  0  0
 28 26  1  0  0  0  0
 28 30  1  1  0  0  0
 29 28  1  0  0  0  0
 30 31  1  0  0  0  0
 32 27  1  6  0  0  0
 32 40  1  0  0  0  0
 32 33  1  0  0  0  0
 33 35  1  0  0  0  0
 33 34  1  6  0  0  0
 35 37  1  0  0  0  0
 35 36  1  6  0  0  0
 37 38  1  6  0  0  0
 39 37  1  0  0  0  0
 39 41  1  6  0  0  0
 40 39  1  0  0  0  0
 42 41  1  0  0  0  0
M  END
>  <CHROM.1>
-167.20751024,173.62126138,144.65486128,-166.79487757,-171.14637597,177.28715761
-65.25568526,-158.74317499,66.64128179,162.69939875,127.78180538,62.80839617
177.44044687,133.46814557,-104.18260048,-64.80132264,57.57185525,168.72208612
-62.14231880,164.91975769,63.49834736,179.95418064,-3.26611108,-1.03809945
3.17464779,-2.82500045,-0.47607372,-2.04130712

>  <Name>
lig.pdb

>  <RI>
4.11275e+07

>  <Rbt.Current_Directory>
/home/itssahil/PROJECTS/Mol_Feturizer/New_Systems/rnas/2mxs

>  <Rbt.Executable>
rbdock ($Id: //depot/dev/client3/rdock/2013.1/src/exe/rbdock.cxx#4 $)

>  <Rbt.Library>
libRbt.so (2013.1, Build901 2013/11/27)

>  <Rbt.Parameter_File>
/export/apps/rDock/src/rDock_2013.1_src/data/scripts/dock_solv.prm

>  <Rbt.Receptor>
prm/pocket_docking_8.prm

>  <SCORE>
-38.0504

>  <SCORE.INTER>
-36.2345

>  <SCORE.INTER.CONST>
1

>  <SCORE.INTER.POLAR>
-4.88354

>  <SCORE.INTER.ROT>
9

>  <SCORE.INTER.SOLV>
21.7482

>  <SCORE.INTER.VDW>
-24.7272

>  <SCORE.INTER.norm>
-0.862725

>  <SCORE.INTRA>
-1.8159

>  <SCORE.INTRA.DIHEDRAL>
-1.723

>  <SCORE.INTRA.DIHEDRAL.0>
30.1357

>  <SCORE.INTRA.POLAR>
-1.23871

>  <SCORE.INTRA.POLAR.0>
-0.631696

>  <SCORE.INTRA.REPUL>
0

>  <SCORE.INTRA.REPUL.0>
0

>  <SCORE.INTRA.SOLV>
-0.0318856

>  <SCORE.INTRA.SOLV.lig_0>
-55.904

>  <SCORE.INTRA.VDW>
3.27316

>  <SCORE.INTRA.VDW.0>
-8.21197

>  <SCORE.INTRA.norm>
-0.0432358

>  <SCORE.RESTR>
0

>  <SCORE.RESTR.CAVITY>
0

>  <SCORE.RESTR.norm>
0

>  <SCORE.SYSTEM>
0

>  <SCORE.SYSTEM.CONST>
0

>  <SCORE.SYSTEM.DIHEDRAL>
0

>  <SCORE.SYSTEM.SOLV>
0

>  <SCORE.SYSTEM.norm>
0

>  <SCORE.heavy>
42

>  <SCORE.norm>
-0.905961

>  <RMSD>
9.343

$$$$
lig.pdb
 OpenBabel11021811453D
libRbt.so/2013.1/901 2013/11/27
 42 45  0  0  0  0  0  0  0  0999 V2000
   -1.9872    2.8138    8.4122 C   0  0  2  0  0  0  0  0  0  0  0  0
   -1.5436    4.0593    8.9539 O   0  0  0  0  0  0  0  0  0  0  0  0
   -2.7689    2.0085    9.4611 C   0  0  2  0  0  0  0  0  0  0  0  0
   -3.8828    2.8007   10.0142 N   0  0  0  0  0  0  0  0  0  0  0  0
   -1.8402    1.5105   10.5762 C   0  0  1  0  0  0  0  0  0  0  0  0
   -2.5602    0.6495   11.4374 O   0  0  0  0  0  0  0  0  0  0  0  0
   -0.6484    0.7497    9.9759 C   0  0  2  0  0  0  0  0  0  0  0  0
    0.2734    0.4377   11.0028 O   0  0  0  0  0  0  0  0  0  0  0  0
    0.0532    1.5737    8.8772 C   0  0  2  0  0  0  0  0  0  0  0  0
   -0.8851    2.0577    7.9168 O   0  0  0  0  0  0  0  0  0  0  0  0
    1.0862    0.6654    8.1834 C   0  0  0  0  0  0  0  0  0  0  0  0
    0.4905   -0.5640    7.6896 O   0  0  0  0  0  0  0  0  0  0  0  0
   -0.1763    7.4054    6.6160 C   0  0  2  0  0  0  0  0  0  0  0  0
    0.8027    8.0804    5.7407 N   0  0  0  0  0  0  0  0  0  0  0  0
    0.4644    7.0578    7.9621 C   0  0  0  0  0  0  0  0  0  0  0  0
   -0.4942    6.2375    8.8171 C   0  0  2  0  0  0  0  0  0  0  0  0
    0.0904    5.9931   10.1416 N   0  0  0  0  0  0  0  0  0  0  0  0
   -0.8100    4.9203    8.0708 C   0  0  2  0  0  0  0  0  0  0  0  0
   -1.5790    5.2508    6.8319 C   0  0  2  0  0  0  0  0  0  0  0  0
   -1.8934    4.0305    6.1866 O   0  0  0  0  0  0  0  0  0  0  0  0
   -0.7431    6.1450    5.9358 C   0  0  1  0  0  0  0  0  0  0  0  0
   -1.4549    6.5584    4.7845 O   0  0  0  0  0  0  0  0  0  0  0  0
   -2.6523    4.0929    4.9837 C   0  0  1  0  0  0  0  0  0  0  0  0
   -1.6688    4.1527    3.8130 C   0  0  2  0  0  0  0  0  0  0  0  0
   -2.1985    4.9856    2.7988 O   0  0  0  0  0  0  0  0  0  0  0  0
   -1.5720    2.6816    3.3870 C   0  0  2  0  0  0  0  0  0  0  0  0
   -1.1096    2.5234    2.0453 O   0  0  0  0  0  0  0  0  0  0  0  0
   -3.0212    2.2400    3.6254 C   0  0  2  0  0  0  0  0  0  0  0  0
   -3.4011    2.8940    4.8279 O   0  0  0  0  0  0  0  0  0  0  0  0
   -3.2010    0.7278    3.8028 C   0  0  0  0  0  0  0  0  0  0  0  0
   -4.5589    0.3823    3.9757 O   0  0  0  0  0  0  0  0  0  0  0  0
    0.3082    2.4491    1.9101 C   0  0  2  0  0  0  0  0  0  0  0  0
    0.8627    3.6082    1.0680 C   0  0  2  0  0  0  0  0  0  0  0  0
    0.4454    4.9073    1.6214 N   0  0  0  0  0  0  0  0  0  0  0  0
    0.4540    3.4675   -0.4060 C   0  0  1  0  0  0  0  0  0  0  0  0
    1.0617    4.5097   -1.1444 O   0  0  0  0  0  0  0  0  0  0  0  0
    0.9412    2.1011   -0.9174 C   0  0  2  0  0  0  0  0  0  0  0  0
    0.5516    1.9019   -2.2639 O   0  0  0  0  0  0  0  0  0  0  0  0
    0.4116    0.9573   -0.0282 C   0  0  1  0  0  0  0  0  0  0  0  0
    0.6939    1.1946    1.3529 O   0  0  0  0  0  0  0  0  0  0  0  0
   -1.0725    0.6401   -0.2640 C   0  0  0  0  0  0  0  0  0  0  0  0
   -1.2969    0.0977   -1.6138 N   0  0  0  0  0  0  0  0  0  0  0  0
  1  3  1  0  0  0  0
  1  2  1  1  0  0  0
  3  4  1  1  0  0  0
  5  6  1  1  0  0  0
  5  3  1  0  0  0  0
  7  9  1  0  0  0  0
  7  5  1  0  0  0  0
  7  8  1  1  0  0  0
  9 10  1  0  0  0  0
  9 11  1  6  0  0  0
 10  1  1  0  0  0  0
 11 12  1  0  0  0  0
 13 14  1  6  0  0  0
 13 21  1  0  0  0  0
 15 13  1  0  0  0  0
 16 15  1  0  0  0  0
 16 18  1  0  0  0  0
 16 17  1  1  0  0  0
 18  2  1  1  0  0  0
 18 19  1  0  0  0  0
 19 21  1  0  0  0  0
 19 20  1  6  0  0  0
 21 22  1  6  0  0  0
 23 20  1  1  0  0  0
 23 29  1  0  0  0  0
 23 24  1  0  0  0  0
 24 26  1  0  0  0  0
 24 25  1  6  0  0  0
 26 27  1  6  0  0  0
 28 26  1  0  0  0  0
 28 30  1  1  0  0  0
 29 28  1  0  0  0  0
 30 31  1  0  0  0  0
 32 27  1  6  0  0  0
 32 40  1  0  0  0  0
 32 33  1  0  0  0  0
 33 35  1  0  0  0  0
 33 34  1  1  0  0  0
 35 37  1  0  0  0  0
 35 36  1  6  0  0  0
 37 38  1  6  0  0  0
 39 37  1  0  0  0  0
 39 41  1  1  0  0  0
 40 39  1  0  0  0  0
 42 41  1  0  0  0  0
M  END
>  <CHROM.1>
176.84135900,-179.32469939,-49.35733937,-172.34220525,77.33241334,-174.53153265
54.29200573,-75.45705430,69.32604960,178.90405093,92.03408426,-62.83156340
-50.43002407,88.46010933,-117.78844466,-178.12634523,-175.49642256,-173.66078134
-175.67885526,69.71377465,66.02311089,-45.46230176,-0.96323089,3.10401936
5.12938508,2.04317605,1.33620521,1.05453709

>  <Name>
lig.pdb

>  <RI>
0

>  <Rbt.Current_Directory>
/home/itssahil/PROJECTS/Mol_Feturizer/New_Systems/rnas/2mxs

>  <Rbt.Executable>
rbdock ($Id: //depot/dev/client3/rdock/2013.1/src/exe/rbdock.cxx#4 $)

>  <Rbt.Library>
libRbt.so (2013.1, Build901 2013/11/27)

>  <Rbt.Parameter_File>
/export/apps/rDock/src/rDock_2013.1_src/data/scripts/dock_solv.prm

>  <Rbt.Receptor>
prm/pocket_docking_3.prm

>  <SCORE>
-24.0373

>  <SCORE.INTER>
-22.4545

>  <SCORE.INTER.CONST>
1

>  <SCORE.INTER.POLAR>
-3.36307

>  <SCORE.INTER.ROT>
9

>  <SCORE.INTER.SOLV>
16.023

>  <SCORE.INTER.VDW>
-18.7005

>  <SCORE.INTER.norm>
-0.534632

>  <SCORE.INTRA>
-2.45273

>  <SCORE.INTRA.DIHEDRAL>
-10.2153

>  <SCORE.INTRA.DIHEDRAL.0>
30.1357

>  <SCORE.INTRA.POLAR>
-1.18354

>  <SCORE.INTRA.POLAR.0>
-0.631696

>  <SCORE.INTRA.REPUL>
0

>  <SCORE.INTRA.REPUL.0>
0

>  <SCORE.INTRA.SOLV>
1.00776

>  <SCORE.INTRA.SOLV.lig_0>
-55.904

>  <SCORE.INTRA.VDW>
6.1751

>  <SCORE.INTRA.VDW.0>
-8.21197

>  <SCORE.INTRA.norm>
-0.0583983

>  <SCORE.RESTR>
0.869964

>  <SCORE.RESTR.CAVITY>
0.869964

>  <SCORE.RESTR.norm>
0.0207134

>  <SCORE.SYSTEM>
0

>  <SCORE.SYSTEM.CONST>
0

>  <SCORE.SYSTEM.DIHEDRAL>
0

>  <SCORE.SYSTEM.SOLV>
0

>  <SCORE.SYSTEM.norm>
0

>  <SCORE.heavy>
42

>  <SCORE.norm>
-0.572317

>  <RMSD>
9.350

$$$$
lig.pdb
 OpenBabel11021811453D
libRbt.so/2013.1/901 2013/11/27
 42 45  0  0  0  0  0  0  0  0999 V2000
   -1.0337    2.5643    9.4875 C   0  0  2  0  0  0  0  0  0  0  0  0
   -1.1211    3.7517    8.6977 O   0  0  0  0  0  0  0  0  0  0  0  0
   -0.7493    1.3397    8.6048 C   0  0  2  0  0  0  0  0  0  0  0  0
    0.4570    1.5487    7.7828 N   0  0  0  0  0  0  0  0  0  0  0  0
   -1.9615    1.0005    7.7278 C   0  0  1  0  0  0  0  0  0  0  0  0
   -1.7218   -0.2152    7.0451 O   0  0  0  0  0  0  0  0  0  0  0  0
   -3.2218    0.8576    8.5944 C   0  0  2  0  0  0  0  0  0  0  0  0
   -4.3513    0.7028    7.7566 O   0  0  0  0  0  0  0  0  0  0  0  0
   -3.4174    2.0800    9.5140 C   0  0  2  0  0  0  0  0  0  0  0  0
   -2.2264    2.3724   10.2441 O   0  0  0  0  0  0  0  0  0  0  0  0
   -4.5638    1.7640   10.4934 C   0  0  0  0  0  0  0  0  0  0  0  0
   -4.6850    2.7674   11.5369 O   0  0  0  0  0  0  0  0  0  0  0  0
    1.7161    6.9425    8.1498 C   0  0  2  0  0  0  0  0  0  0  0  0
    3.0875    7.4898    8.1385 N   0  0  0  0  0  0  0  0  0  0  0  0
    1.3638    6.4191    9.5445 C   0  0  0  0  0  0  0  0  0  0  0  0
    0.0063    5.7264    9.5308 C   0  0  2  0  0  0  0  0  0  0  0  0
   -0.3668    5.3152   10.8901 N   0  0  0  0  0  0  0  0  0  0  0  0
    0.0807    4.5239    8.5613 C   0  0  2  0  0  0  0  0  0  0  0  0
    0.2652    5.0462    7.1725 C   0  0  2  0  0  0  0  0  0  0  0  0
    0.2888    3.9332    6.2977 O   0  0  0  0  0  0  0  0  0  0  0  0
    1.5588    5.8345    7.0915 C   0  0  1  0  0  0  0  0  0  0  0  0
    1.7431    6.4240    5.8181 O   0  0  0  0  0  0  0  0  0  0  0  0
   -0.2948    4.0905    5.0088 C   0  0  1  0  0  0  0  0  0  0  0  0
   -0.6623    2.6991    4.4890 C   0  0  2  0  0  0  0  0  0  0  0  0
   -0.4536    2.6518    3.0900 O   0  0  0  0  0  0  0  0  0  0  0  0
   -2.1428    2.5820    4.8757 C   0  0  2  0  0  0  0  0  0  0  0  0
   -2.8416    1.6073    4.1010 O   0  0  0  0  0  0  0  0  0  0  0  0
   -2.5926    4.0302    4.6467 C   0  0  2  0  0  0  0  0  0  0  0  0
   -1.5105    4.8198    5.1201 O   0  0  0  0  0  0  0  0  0  0  0  0
   -3.8657    4.4249    5.4043 C   0  0  0  0  0  0  0  0  0  0  0  0
   -4.9395    3.5593    5.1032 O   0  0  0  0  0  0  0  0  0  0  0  0
   -2.8165    0.2881    4.6426 C   0  0  2  0  0  0  0  0  0  0  0  0
   -2.0744   -0.6927    3.7220 C   0  0  2  0  0  0  0  0  0  0  0  0
   -0.7153   -0.2102    3.4253 N   0  0  0  0  0  0  0  0  0  0  0  0
   -2.8710   -0.9560    2.4353 C   0  0  1  0  0  0  0  0  0  0  0  0
   -2.1843   -1.9273    1.6699 O   0  0  0  0  0  0  0  0  0  0  0  0
   -4.2654   -1.4758    2.8243 C   0  0  2  0  0  0  0  0  0  0  0  0
   -5.0583   -1.6945    1.6720 O   0  0  0  0  0  0  0  0  0  0  0  0
   -4.9710   -0.4982    3.7866 C   0  0  1  0  0  0  0  0  0  0  0  0
   -4.1405   -0.1724    4.9034 O   0  0  0  0  0  0  0  0  0  0  0  0
   -5.5129    0.7581    3.0888 C   0  0  0  0  0  0  0  0  0  0  0  0
   -6.3098    1.5824    4.0117 N   0  0  0  0  0  0  0  0  0  0  0  0
  1  3  1  0  0  0  0
  1  2  1  6  0  0  0
  3  4  1  6  0  0  0
  5  6  1  1  0  0  0
  5  3  1  0  0  0  0
  7  9  1  0  0  0  0
  7  5  1  0  0  0  0
  7  8  1  6  0  0  0
  9 10  1  0  0  0  0
  9 11  1  1  0  0  0
 10  1  1  0  0  0  0
 11 12  1  0  0  0  0
 13 14  1  1  0  0  0
 13 21  1  0  0  0  0
 15 13  1  0  0  0  0
 16 15  1  0  0  0  0
 16 18  1  0  0  0  0
 16 17  1  1  0  0  0
 18  2  1  6  0  0  0
 18 19  1  0  0  0  0
 19 21  1  0  0  0  0
 19 20  1  6  0  0  0
 21 22  1  6  0  0  0
 23 20  1  1  0  0  0
 23 29  1  0  0  0  0
 23 24  1  0  0  0  0
 24 26  1  0  0  0  0
 24 25  1  6  0  0  0
 26 27  1  6  0  0  0
 28 26  1  0  0  0  0
 28 30  1  1  0  0  0
 29 28  1  0  0  0  0
 30 31  1  0  0  0  0
 32 27  1  6  0  0  0
 32 40  1  0  0  0  0
 32 33  1  0  0  0  0
 33 35  1  0  0  0  0
 33 34  1  6  0  0  0
 35 37  1  0  0  0  0
 35 36  1  6  0  0  0
 37 38  1  6  0  0  0
 39 37  1  0  0  0  0
 39 41  1  6  0  0  0
 40 39  1  0  0  0  0
 42 41  1  0  0  0  0
M  END
>  <CHROM.1>
-100.87082903,-94.08505326,170.36496935,71.76405289,41.20472744,55.77036135
170.88773008,65.80674175,53.23703476,144.69601022,-157.49070204,170.01449712
54.83399003,89.16163395,-115.98187729,-55.78272454,-175.29137378,57.66425881
63.95444894,177.34325927,173.41258508,-164.49221700,-1.89643829,2.45390855
6.33299900,0.87736340,0.70556662,1.25040135

>  <Name>
lig.pdb

>  <RI>
3.99633e+07

>  <Rbt.Current_Directory>
/home/itssahil/PROJECTS/Mol_Feturizer/New_Systems/rnas/2mxs

>  <Rbt.Executable>
rbdock ($Id: //depot/dev/client3/rdock/2013.1/src/exe/rbdock.cxx#4 $)

>  <Rbt.Library>
libRbt.so (2013.1, Build901 2013/11/27)

>  <Rbt.Parameter_File>
/export/apps/rDock/src/rDock_2013.1_src/data/scripts/dock_solv.prm

>  <Rbt.Receptor>
prm/pocket_docking_5.prm

>  <SCORE>
-16.6644

>  <SCORE.INTER>
-8.23918

>  <SCORE.INTER.CONST>
1

>  <SCORE.INTER.POLAR>
-2.97854

>  <SCORE.INTER.ROT>
9

>  <SCORE.INTER.SOLV>
8.4057

>  <SCORE.INTER.VDW>
-7.96622

>  <SCORE.INTER.norm>
-0.196171

>  <SCORE.INTRA>
-8.43048

>  <SCORE.INTRA.DIHEDRAL>
2.40688

>  <SCORE.INTRA.DIHEDRAL.0>
30.1357

>  <SCORE.INTRA.POLAR>
-2.93175

>  <SCORE.INTRA.POLAR.0>
-0.631696

>  <SCORE.INTRA.REPUL>
0

>  <SCORE.INTRA.REPUL.0>
0

>  <SCORE.INTRA.SOLV>
3.55006

>  <SCORE.INTRA.SOLV.lig_0>
-55.904

>  <SCORE.INTRA.VDW>
-1.44101

>  <SCORE.INTRA.VDW.0>
-8.21197

>  <SCORE.INTRA.norm>
-0.200726

>  <SCORE.RESTR>
0.00525283

>  <SCORE.RESTR.CAVITY>
0.00525283

>  <SCORE.RESTR.norm>
0.000125067

>  <SCORE.SYSTEM>
0

>  <SCORE.SYSTEM.CONST>
0

>  <SCORE.SYSTEM.DIHEDRAL>
0

>  <SCORE.SYSTEM.SOLV>
0

>  <SCORE.SYSTEM.norm>
0

>  <SCORE.heavy>
42

>  <SCORE.norm>
-0.396772

>  <RMSD>
9.371

$$$$
lig.pdb
 OpenBabel11021811453D
libRbt.so/2013.1/901 2013/11/27
 42 45  0  0  0  0  0  0  0  0999 V2000
    1.1387    2.7879    7.5747 C   0  0  2  0  0  0  0  0  0  0  0  0
   -0.0715    3.5467    7.6087 O   0  0  0  0  0  0  0  0  0  0  0  0
    0.8665    1.3094    7.8905 C   0  0  2  0  0  0  0  0  0  0  0  0
   -0.1603    0.7560    6.9884 N   0  0  0  0  0  0  0  0  0  0  0  0
    0.4655    1.1258    9.3599 C   0  0  1  0  0  0  0  0  0  0  0  0
    0.3724   -0.2553    9.6522 O   0  0  0  0  0  0  0  0  0  0  0  0
    1.5111    1.7716   10.2815 C   0  0  2  0  0  0  0  0  0  0  0  0
    1.0469    1.7313   11.6173 O   0  0  0  0  0  0  0  0  0  0  0  0
    1.8008    3.2303    9.8732 C   0  0  2  0  0  0  0  0  0  0  0  0
    2.0981    3.3270    8.4806 O   0  0  0  0  0  0  0  0  0  0  0  0
    3.0030    3.7286   10.6977 C   0  0  0  0  0  0  0  0  0  0  0  0
    2.6488    3.9845   12.0831 O   0  0  0  0  0  0  0  0  0  0  0  0
   -1.0629    7.4834    6.1767 C   0  0  2  0  0  0  0  0  0  0  0  0
   -0.7078    8.8023    5.6158 N   0  0  0  0  0  0  0  0  0  0  0  0
   -0.3723    7.2762    7.5270 C   0  0  0  0  0  0  0  0  0  0  0  0
   -0.6197    5.8646    8.0456 C   0  0  2  0  0  0  0  0  0  0  0  0
   -0.0372    5.7069    9.3842 N   0  0  0  0  0  0  0  0  0  0  0  0
   -0.0241    4.8599    7.0321 C   0  0  2  0  0  0  0  0  0  0  0  0
   -0.8058    4.9502    5.7608 C   0  0  2  0  0  0  0  0  0  0  0  0
   -0.2719    3.9948    4.8628 O   0  0  0  0  0  0  0  0  0  0  0  0
   -0.6994    6.3537    5.1949 C   0  0  1  0  0  0  0  0  0  0  0  0
   -1.4904    6.5197    4.0331 O   0  0  0  0  0  0  0  0  0  0  0  0
   -0.4476    4.2243    3.4687 C   0  0  1  0  0  0  0  0  0  0  0  0
    0.4383    3.2295    2.7158 C   0  0  2  0  0  0  0  0  0  0  0  0
    0.9531    3.8488    1.5520 O   0  0  0  0  0  0  0  0  0  0  0  0
   -0.5387    2.0884    2.4020 C   0  0  2  0  0  0  0  0  0  0  0  0
   -0.1048    1.2720    1.3139 O   0  0  0  0  0  0  0  0  0  0  0  0
   -1.8138    2.8968    2.1324 C   0  0  2  0  0  0  0  0  0  0  0  0
   -1.7907    3.9349    3.1021 O   0  0  0  0  0  0  0  0  0  0  0  0
   -3.1138    2.0991    2.2879 C   0  0  0  0  0  0  0  0  0  0  0  0
   -3.3300    1.7132    3.6286 O   0  0  0  0  0  0  0  0  0  0  0  0
   -1.1591    0.6747    0.5617 C   0  0  2  0  0  0  0  0  0  0  0  0
   -0.6249   -0.3264   -0.4740 C   0  0  2  0  0  0  0  0  0  0  0  0
    0.2193   -1.3477    0.1680 N   0  0  0  0  0  0  0  0  0  0  0  0
    0.1250    0.3932   -1.6051 C   0  0  1  0  0  0  0  0  0  0  0  0
    0.5170   -0.5656   -2.5684 O   0  0  0  0  0  0  0  0  0  0  0  0
   -0.8242    1.4244   -2.2387 C   0  0  2  0  0  0  0  0  0  0  0  0
   -0.1666    2.1483   -3.2625 O   0  0  0  0  0  0  0  0  0  0  0  0
   -1.3851    2.3878   -1.1725 C   0  0  1  0  0  0  0  0  0  0  0  0
   -1.9533    1.6756   -0.0710 O   0  0  0  0  0  0  0  0  0  0  0  0
   -0.3691    3.4429   -0.7106 C   0  0  0  0  0  0  0  0  0  0  0  0
   -0.7333    4.7850   -1.1926 N   0  0  0  0  0  0  0  0  0  0  0  0
  1  3  1  0  0  0  0
  1  2  1  1  0  0  0
  3  4  1  6  0  0  0
  5  6  1  1  0  0  0
  5  3  1  0  0  0  0
  7  9  1  0  0  0  0
  7  5  1  0  0  0  0
  7  8  1  1  0  0  0
  9 10  1  0  0  0  0
  9 11  1  1  0  0  0
 10  1  1  0  0  0  0
 11 12  1  0  0  0  0
 13 14  1  6  0  0  0
 13 21  1  0  0  0  0
 15 13  1  0  0  0  0
 16 15  1  0  0  0  0
 16 18  1  0  0  0  0
 16 17  1  1  0  0  0
 18  2  1  1  0  0  0
 18 19  1  0  0  0  0
 19 21  1  0  0  0  0
 19 20  1  6  0  0  0
 21 22  1  6  0  0  0
 23 20  1  1  0  0  0
 23 29  1  0  0  0  0
 23 24  1  0  0  0  0
 24 26  1  0  0  0  0
 24 25  1  6  0  0  0
 26 27  1  6  0  0  0
 28 26  1  0  0  0  0
 28 30  1  1  0  0  0
 29 28  1  0  0  0  0
 30 31  1  0  0  0  0
 32 27  1  6  0  0  0
 32 40  1  0  0  0  0
 32 33  1  0  0  0  0
 33 35  1  0  0  0  0
 33 34  1  1  0  0  0
 35 37  1  0  0  0  0
 35 36  1  6  0  0  0
 37 38  1  6  0  0  0
 39 37  1  0  0  0  0
 39 41  1  1  0  0  0
 40 39  1  0  0  0  0
 42 41  1  0  0  0  0
M  END
>  <CHROM.1>
-129.95070834,-165.75732646,172.59942280,65.01075132,-176.34914648,-66.78050915
-73.57436204,-170.84063134,68.96715684,-155.28241253,168.92687321,-46.08681153
-25.42401886,-150.36187369,-172.72485400,66.63682644,-176.52195641,-61.43173390
100.10538929,74.25198747,109.73547153,-86.93887929,-0.17657034,3.06067733
4.42081288,-0.96702714,1.29972785,-2.35640313

>  <Name>
lig.pdb

>  <RI>
0

>  <Rbt.Current_Directory>
/home/itssahil/PROJECTS/Mol_Feturizer/New_Systems/rnas/2mxs

>  <Rbt.Executable>
rbdock ($Id: //depot/dev/client3/rdock/2013.1/src/exe/rbdock.cxx#4 $)

>  <Rbt.Library>
libRbt.so (2013.1, Build901 2013/11/27)

>  <Rbt.Parameter_File>
/export/apps/rDock/src/rDock_2013.1_src/data/scripts/dock_solv.prm

>  <Rbt.Receptor>
prm/pocket_docking_3.prm

>  <SCORE>
-14.0696

>  <SCORE.INTER>
-30.6837

>  <SCORE.INTER.CONST>
1

>  <SCORE.INTER.POLAR>
-5.45815

>  <SCORE.INTER.ROT>
9

>  <SCORE.INTER.SOLV>
20.2532

>  <SCORE.INTER.VDW>
-18.6131

>  <SCORE.INTER.norm>
-0.730564

>  <SCORE.INTRA>
15.9541

>  <SCORE.INTRA.DIHEDRAL>
4.73641

>  <SCORE.INTRA.DIHEDRAL.0>
30.1357

>  <SCORE.INTRA.POLAR>
0.16419

>  <SCORE.INTRA.POLAR.0>
-0.631696

>  <SCORE.INTRA.REPUL>
0

>  <SCORE.INTRA.REPUL.0>
0

>  <SCORE.INTRA.SOLV>
1.09649

>  <SCORE.INTRA.SOLV.lig_0>
-55.904

>  <SCORE.INTRA.VDW>
12.4794

>  <SCORE.INTRA.VDW.0>
-8.21197

>  <SCORE.INTRA.norm>
0.379858

>  <SCORE.RESTR>
0.660068

>  <SCORE.RESTR.CAVITY>
0.660068

>  <SCORE.RESTR.norm>
0.0157159

>  <SCORE.SYSTEM>
0

>  <SCORE.SYSTEM.CONST>
0

>  <SCORE.SYSTEM.DIHEDRAL>
0

>  <SCORE.SYSTEM.SOLV>
0

>  <SCORE.SYSTEM.norm>
0

>  <SCORE.heavy>
42

>  <SCORE.norm>
-0.33499

>  <RMSD>
9.373

$$$$
lig.pdb
 OpenBabel11021811453D
libRbt.so/2013.1/901 2013/11/27
 42 45  0  0  0  0  0  0  0  0999 V2000
    0.6573    1.4578    2.8237 C   0  0  2  0  0  0  0  0  0  0  0  0
   -0.5307    2.2468    2.7363 O   0  0  0  0  0  0  0  0  0  0  0  0
    0.7259    0.4428    1.6727 C   0  0  2  0  0  0  0  0  0  0  0  0
    0.6020    1.1152    0.3662 N   0  0  0  0  0  0  0  0  0  0  0  0
   -0.3424   -0.6462    1.8353 C   0  0  1  0  0  0  0  0  0  0  0  0
   -0.1521   -1.6419    0.8484 O   0  0  0  0  0  0  0  0  0  0  0  0
   -0.2430   -1.2851    3.2288 C   0  0  2  0  0  0  0  0  0  0  0  0
   -1.3303   -2.1706    3.4166 O   0  0  0  0  0  0  0  0  0  0  0  0
   -0.2409   -0.2175    4.3416 C   0  0  2  0  0  0  0  0  0  0  0  0
    0.7314    0.7950    4.0835 O   0  0  0  0  0  0  0  0  0  0  0  0
    0.0787   -0.9175    5.6762 C   0  0  0  0  0  0  0  0  0  0  0  0
   -0.9353   -1.8920    6.0402 O   0  0  0  0  0  0  0  0  0  0  0  0
   -1.2386    6.4661    3.2126 C   0  0  2  0  0  0  0  0  0  0  0  0
   -0.8486    7.8188    3.6581 N   0  0  0  0  0  0  0  0  0  0  0  0
   -1.2936    5.5084    4.4055 C   0  0  0  0  0  0  0  0  0  0  0  0
   -1.5571    4.0822    3.9372 C   0  0  2  0  0  0  0  0  0  0  0  0
   -1.7057    3.1885    5.0927 N   0  0  0  0  0  0  0  0  0  0  0  0
   -0.3947    3.6480    3.0143 C   0  0  2  0  0  0  0  0  0  0  0  0
   -0.4398    4.4800    1.7728 C   0  0  2  0  0  0  0  0  0  0  0  0
    0.6050    4.0388    0.9253 O   0  0  0  0  0  0  0  0  0  0  0  0
   -0.2719    5.9439    2.1332 C   0  0  1  0  0  0  0  0  0  0  0  0
   -0.3908    6.7867    1.0024 O   0  0  0  0  0  0  0  0  0  0  0  0
    0.5638    4.4377   -0.4408 C   0  0  1  0  0  0  0  0  0  0  0  0
    1.3940    5.7155   -0.5799 C   0  0  2  0  0  0  0  0  0  0  0  0
    0.7912    6.5631   -1.5396 O   0  0  0  0  0  0  0  0  0  0  0  0
    2.7576    5.1763   -1.0326 C   0  0  2  0  0  0  0  0  0  0  0  0
    3.5546    6.1650   -1.6853 O   0  0  0  0  0  0  0  0  0  0  0  0
    2.3012    4.0204   -1.9314 C   0  0  2  0  0  0  0  0  0  0  0  0
    1.1948    3.4503   -1.2465 O   0  0  0  0  0  0  0  0  0  0  0  0
    3.3613    2.9356   -2.1547 C   0  0  0  0  0  0  0  0  0  0  0  0
    3.7466    2.3273   -0.9404 O   0  0  0  0  0  0  0  0  0  0  0  0
    4.2714    5.6935   -2.8246 C   0  0  2  0  0  0  0  0  0  0  0  0
    5.7614    6.0608   -2.7535 C   0  0  2  0  0  0  0  0  0  0  0  0
    6.3646    5.5726   -1.5022 N   0  0  0  0  0  0  0  0  0  0  0  0
    5.9683    7.5733   -2.9248 C   0  0  1  0  0  0  0  0  0  0  0  0
    7.3573    7.8404   -2.9374 O   0  0  0  0  0  0  0  0  0  0  0  0
    5.3333    8.0030   -4.2582 C   0  0  2  0  0  0  0  0  0  0  0  0
    5.4587    9.4007   -4.4457 O   0  0  0  0  0  0  0  0  0  0  0  0
    3.8512    7.5809   -4.3260 C   0  0  1  0  0  0  0  0  0  0  0  0
    3.6882    6.1928   -4.0261 O   0  0  0  0  0  0  0  0  0  0  0  0
    2.9271    8.4641   -3.4746 C   0  0  0  0  0  0  0  0  0  0  0  0
    2.5663    9.7024   -4.1837 N   0  0  0  0  0  0  0  0  0  0  0  0
  1  3  1  0  0  0  0
  1  2  1  1  0  0  0
  3  4  1  6  0  0  0
  5  6  1  6  0  0  0
  5  3  1  0  0  0  0
  7  9  1  0  0  0  0
  7  5  1  0  0  0  0
  7  8  1  1  0  0  0
  9 10  1  0  0  0  0
  9 11  1  1  0  0  0
 10  1  1  0  0  0  0
 11 12  1  0  0  0  0
 13 14  1  1  0  0  0
 13 21  1  0  0  0  0
 15 13  1  0  0  0  0
 16 15  1  0  0  0  0
 16 18  1  0  0  0  0
 16 17  1  1  0  0  0
 18  2  1  6  0  0  0
 18 19  1  0  0  0  0
 19 21  1  0  0  0  0
 19 20  1  6  0  0  0
 21 22  1  6  0  0  0
 23 20  1  1  0  0  0
 23 29  1  0  0  0  0
 23 24  1  0  0  0  0
 24 26  1  0  0  0  0
 24 25  1  6  0  0  0
 26 27  1  6  0  0  0
 28 26  1  0  0  0  0
 28 30  1  1  0  0  0
 29 28  1  0  0  0  0
 30 31  1  0  0  0  0
 32 27  1  1  0  0  0
 32 40  1  0  0  0  0
 32 33  1  0  0  0  0
 33 35  1  0  0  0  0
 33 34  1  1  0  0  0
 35 37  1  0  0  0  0
 35 36  1  6  0  0  0
 37 38  1  1  0  0  0
 39 37  1  0  0  0  0
 39 41  1  1  0  0  0
 40 39  1  0  0  0  0
 42 41  1  0  0  0  0
M  END
>  <CHROM.1>
-135.15092953,-138.58877837,150.72734124,62.18712283,61.35608029,54.81209892
-62.84203154,137.42168596,-68.97040357,164.51233005,93.55638168,79.11679575
73.21173578,-139.46590150,-128.98697142,60.84055212,63.58958326,72.89423815
-171.64658373,-48.30486325,82.07310748,-71.68404105,1.54777927,4.10077787
0.40127965,-2.31105284,0.82666693,-0.19359880

>  <Name>
lig.pdb

>  <RI>
0

>  <Rbt.Current_Directory>
/home/itssahil/PROJECTS/Mol_Feturizer/New_Systems/rnas/2mxs

>  <Rbt.Executable>
rbdock ($Id: //depot/dev/client3/rdock/2013.1/src/exe/rbdock.cxx#4 $)

>  <Rbt.Library>
libRbt.so (2013.1, Build901 2013/11/27)

>  <Rbt.Parameter_File>
/export/apps/rDock/src/rDock_2013.1_src/data/scripts/dock_solv.prm

>  <Rbt.Receptor>
prm/pocket_docking_6.prm

>  <SCORE>
-36.7856

>  <SCORE.INTER>
-42.9626

>  <SCORE.INTER.CONST>
1

>  <SCORE.INTER.POLAR>
-4.58285

>  <SCORE.INTER.ROT>
9

>  <SCORE.INTER.SOLV>
17.5555

>  <SCORE.INTER.VDW>
-28.8174

>  <SCORE.INTER.norm>
-1.02292

>  <SCORE.INTRA>
6.02512

>  <SCORE.INTRA.DIHEDRAL>
10.3813

>  <SCORE.INTRA.DIHEDRAL.0>
30.1357

>  <SCORE.INTRA.POLAR>
-1.51113

>  <SCORE.INTRA.POLAR.0>
-0.631696

>  <SCORE.INTRA.REPUL>
0

>  <SCORE.INTRA.REPUL.0>
0

>  <SCORE.INTRA.SOLV>
2.32999

>  <SCORE.INTRA.SOLV.lig_0>
-55.904

>  <SCORE.INTRA.VDW>
4.80728

>  <SCORE.INTRA.VDW.0>
-8.21197

>  <SCORE.INTRA.norm>
0.143455

>  <SCORE.RESTR>
0.151865

>  <SCORE.RESTR.CAVITY>
0.151865

>  <SCORE.RESTR.norm>
0.00361583

>  <SCORE.SYSTEM>
0

>  <SCORE.SYSTEM.CONST>
0

>  <SCORE.SYSTEM.DIHEDRAL>
0

>  <SCORE.SYSTEM.SOLV>
0

>  <SCORE.SYSTEM.norm>
0

>  <SCORE.heavy>
42

>  <SCORE.norm>
-0.875848

>  <RMSD>
9.463

$$$$
lig.pdb
 OpenBabel11021811453D
libRbt.so/2013.1/901 2013/11/27
 42 45  0  0  0  0  0  0  0  0999 V2000
    1.3452    2.3794    1.0675 C   0  0  2  0  0  0  0  0  0  0  0  0
   -0.0051    2.8244    1.2094 O   0  0  0  0  0  0  0  0  0  0  0  0
    1.4930    1.4609   -0.1548 C   0  0  2  0  0  0  0  0  0  0  0  0
    0.9958    2.1211   -1.3760 N   0  0  0  0  0  0  0  0  0  0  0  0
    0.7825    0.1208    0.0752 C   0  0  1  0  0  0  0  0  0  0  0  0
    1.0670   -0.7524   -1.0010 O   0  0  0  0  0  0  0  0  0  0  0  0
    1.2613   -0.5168    1.3882 C   0  0  2  0  0  0  0  0  0  0  0  0
    0.4840   -1.6669    1.6612 O   0  0  0  0  0  0  0  0  0  0  0  0
    1.1614    0.4727    2.5668 C   0  0  2  0  0  0  0  0  0  0  0  0
    1.7852    1.7168    2.2504 O   0  0  0  0  0  0  0  0  0  0  0  0
    1.8567   -0.1627    3.7859 C   0  0  0  0  0  0  0  0  0  0  0  0
    1.0885   -1.2628    4.3428 O   0  0  0  0  0  0  0  0  0  0  0  0
   -1.5851    6.7084    2.1837 C   0  0  2  0  0  0  0  0  0  0  0  0
   -1.5532    7.9909    2.9147 N   0  0  0  0  0  0  0  0  0  0  0  0
   -1.6819    5.5385    3.1661 C   0  0  0  0  0  0  0  0  0  0  0  0
   -1.5733    4.2086    2.4296 C   0  0  2  0  0  0  0  0  0  0  0  0
   -1.7655    3.0936    3.3655 N   0  0  0  0  0  0  0  0  0  0  0  0
   -0.1952    4.1478    1.7306 C   0  0  2  0  0  0  0  0  0  0  0  0
   -0.1616    5.1901    0.6591 C   0  0  2  0  0  0  0  0  0  0  0  0
    1.0903    5.0897    0.0054 O   0  0  0  0  0  0  0  0  0  0  0  0
   -0.3487    6.5630    1.2766 C   0  0  1  0  0  0  0  0  0  0  0  0
   -0.4092    7.5827    0.2970 O   0  0  0  0  0  0  0  0  0  0  0  0
    1.2127    5.6759   -1.2862 C   0  0  1  0  0  0  0  0  0  0  0  0
    1.8660    7.0491   -1.1164 C   0  0  2  0  0  0  0  0  0  0  0  0
    1.3114    7.9507   -2.0558 O   0  0  0  0  0  0  0  0  0  0  0  0
    3.3467    6.7461   -1.3824 C   0  0  2  0  0  0  0  0  0  0  0  0
    4.0906    7.9063   -1.7555 O   0  0  0  0  0  0  0  0  0  0  0  0
    3.2077    5.6881   -2.4839 C   0  0  2  0  0  0  0  0  0  0  0  0
    2.0974    4.8978   -2.0826 O   0  0  0  0  0  0  0  0  0  0  0  0
    4.4320    4.7799   -2.6473 C   0  0  0  0  0  0  0  0  0  0  0  0
    4.6153    4.3911   -3.9921 O   0  0  0  0  0  0  0  0  0  0  0  0
    5.2753    7.6379   -2.5028 C   0  0  2  0  0  0  0  0  0  0  0  0
    6.5307    8.1638   -1.7905 C   0  0  2  0  0  0  0  0  0  0  0  0
    6.6261    7.6232   -0.4243 N   0  0  0  0  0  0  0  0  0  0  0  0
    6.5662    9.6995   -1.7913 C   0  0  1  0  0  0  0  0  0  0  0  0
    7.7802   10.1234   -1.2020 O   0  0  0  0  0  0  0  0  0  0  0  0
    6.4849   10.1871   -3.2479 C   0  0  2  0  0  0  0  0  0  0  0  0
    6.4706   11.6017   -3.3030 O   0  0  0  0  0  0  0  0  0  0  0  0
    5.2432    9.6075   -3.9563 C   0  0  1  0  0  0  0  0  0  0  0  0
    5.1757    8.1867   -3.8151 O   0  0  0  0  0  0  0  0  0  0  0  0
    3.9312   10.2884   -3.5392 C   0  0  0  0  0  0  0  0  0  0  0  0
    2.7662    9.6252   -4.1468 N   0  0  0  0  0  0  0  0  0  0  0  0
  1  3  1  0  0  0  0
  1  2  1  1  0  0  0
  3  4  1  6  0  0  0
  5  6  1  6  0  0  0
  5  3  1  0  0  0  0
  7  9  1  0  0  0  0
  7  5  1  0  0  0  0
  7  8  1  1  0  0  0
  9 10  1  0  0  0  0
  9 11  1  1  0  0  0
 10  1  1  0  0  0  0
 11 12  1  0  0  0  0
 13 14  1  1  0  0  0
 13 21  1  0  0  0  0
 15 13  1  0  0  0  0
 16 15  1  0  0  0  0
 16 18  1  0  0  0  0
 16 17  1  1  0  0  0
 18  2  1  6  0  0  0
 18 19  1  0  0  0  0
 19 21  1  0  0  0  0
 19 20  1  1  0  0  0
 21 22  1  6  0  0  0
 23 20  1  1  0  0  0
 23 29  1  0  0  0  0
 23 24  1  0  0  0  0
 24 26  1  0  0  0  0
 24 25  1  6  0  0  0
 26 27  1  6  0  0  0
 28 26  1  0  0  0  0
 28 30  1  1  0  0  0
 29 28  1  0  0  0  0
 30 31  1  0  0  0  0
 32 27  1  1  0  0  0
 32 40  1  0  0  0  0
 32 33  1  0  0  0  0
 33 35  1  0  0  0  0
 33 34  1  1  0  0  0
 35 37  1  0  0  0  0
 35 36  1  6  0  0  0
 37 38  1  1  0  0  0
 39 37  1  0  0  0  0
 39 41  1  1  0  0  0
 40 39  1  0  0  0  0
 42 41  1  0  0  0  0
M  END
>  <CHROM.1>
-153.23507412,-146.13474558,47.04158295,-33.53498004,-179.74731844,-168.44405166
-71.73863915,-49.48313533,-44.85263768,161.19888407,98.20651860,-52.47179165
-59.98962562,-156.41115368,-120.47121108,-147.01444446,91.38582411,32.57303944
-55.90957493,-42.25946416,-174.91080318,47.68901997,2.24510464,5.24934749
-0.35576882,-2.18861202,0.61771152,-0.14675676

>  <Name>
lig.pdb

>  <RI>
4.11275e+07

>  <Rbt.Current_Directory>
/home/itssahil/PROJECTS/Mol_Feturizer/New_Systems/rnas/2mxs

>  <Rbt.Executable>
rbdock ($Id: //depot/dev/client3/rdock/2013.1/src/exe/rbdock.cxx#4 $)

>  <Rbt.Library>
libRbt.so (2013.1, Build901 2013/11/27)

>  <Rbt.Parameter_File>
/export/apps/rDock/src/rDock_2013.1_src/data/scripts/dock_solv.prm

>  <Rbt.Receptor>
prm/pocket_docking_8.prm

>  <SCORE>
-50.6969

>  <SCORE.INTER>
-56.5216

>  <SCORE.INTER.CONST>
1

>  <SCORE.INTER.POLAR>
-7.46331

>  <SCORE.INTER.ROT>
9

>  <SCORE.INTER.SOLV>
23.8052

>  <SCORE.INTER.VDW>
-30.3385

>  <SCORE.INTER.norm>
-1.34575

>  <SCORE.INTRA>
5.78191

>  <SCORE.INTRA.DIHEDRAL>
9.94113

>  <SCORE.INTRA.DIHEDRAL.0>
30.1357

>  <SCORE.INTRA.POLAR>
-1.08818

>  <SCORE.INTRA.POLAR.0>
-0.631696

>  <SCORE.INTRA.REPUL>
0

>  <SCORE.INTRA.REPUL.0>
0

>  <SCORE.INTRA.SOLV>
0.537417

>  <SCORE.INTRA.SOLV.lig_0>
-55.904

>  <SCORE.INTRA.VDW>
4.24245

>  <SCORE.INTRA.VDW.0>
-8.21197

>  <SCORE.INTRA.norm>
0.137665

>  <SCORE.RESTR>
0.0427863

>  <SCORE.RESTR.CAVITY>
0.0427863

>  <SCORE.RESTR.norm>
0.00101872

>  <SCORE.SYSTEM>
0

>  <SCORE.SYSTEM.CONST>
0

>  <SCORE.SYSTEM.DIHEDRAL>
0

>  <SCORE.SYSTEM.SOLV>
0

>  <SCORE.SYSTEM.norm>
0

>  <SCORE.heavy>
42

>  <SCORE.norm>
-1.20707

>  <RMSD>
9.486

$$$$
lig.pdb
 OpenBabel11021811453D
libRbt.so/2013.1/901 2013/11/27
 42 45  0  0  0  0  0  0  0  0999 V2000
   -0.8748    1.8934    0.1777 C   0  0  2  0  0  0  0  0  0  0  0  0
   -1.8556    2.9323    0.1879 O   0  0  0  0  0  0  0  0  0  0  0  0
   -1.2786    0.7692   -0.7882 C   0  0  2  0  0  0  0  0  0  0  0  0
   -1.5379    1.3001   -2.1392 N   0  0  0  0  0  0  0  0  0  0  0  0
   -2.4936   -0.0022   -0.2569 C   0  0  1  0  0  0  0  0  0  0  0  0
   -2.7417   -1.1189   -1.0894 O   0  0  0  0  0  0  0  0  0  0  0  0
   -2.2316   -0.4851    1.1777 C   0  0  2  0  0  0  0  0  0  0  0  0
   -3.4155   -1.0530    1.7044 O   0  0  0  0  0  0  0  0  0  0  0  0
   -1.7574    0.6683    2.0849 C   0  0  2  0  0  0  0  0  0  0  0  0
   -0.6711    1.3786    1.4912 O   0  0  0  0  0  0  0  0  0  0  0  0
   -1.3116    0.0664    3.4311 C   0  0  0  0  0  0  0  0  0  0  0  0
   -1.1063    1.0857    4.4457 O   0  0  0  0  0  0  0  0  0  0  0  0
   -1.4854    7.0215    1.4810 C   0  0  2  0  0  0  0  0  0  0  0  0
   -1.0602    8.0594    2.4413 N   0  0  0  0  0  0  0  0  0  0  0  0
   -2.4818    6.0639    2.1392 C   0  0  0  0  0  0  0  0  0  0  0  0
   -2.8173    4.9102    1.2015 C   0  0  2  0  0  0  0  0  0  0  0  0
   -3.8463    4.0519    1.8017 N   0  0  0  0  0  0  0  0  0  0  0  0
   -1.5160    4.1311    0.8998 C   0  0  2  0  0  0  0  0  0  0  0  0
   -0.6041    5.0184    0.1146 C   0  0  2  0  0  0  0  0  0  0  0  0
    0.5615    4.2733   -0.1863 O   0  0  0  0  0  0  0  0  0  0  0  0
   -0.2696    6.2544    0.9282 C   0  0  1  0  0  0  0  0  0  0  0  0
    0.5251    7.1713    0.1996 O   0  0  0  0  0  0  0  0  0  0  0  0
    1.0678    4.3420   -1.5151 C   0  0  1  0  0  0  0  0  0  0  0  0
    1.9365    5.5972   -1.6202 C   0  0  2  0  0  0  0  0  0  0  0  0
    1.7858    6.1644   -2.9079 O   0  0  0  0  0  0  0  0  0  0  0  0
    3.3468    5.0449   -1.3727 C   0  0  2  0  0  0  0  0  0  0  0  0
    4.3724    5.8986   -1.8809 O   0  0  0  0  0  0  0  0  0  0  0  0
    3.2287    3.6887   -2.0789 C   0  0  2  0  0  0  0  0  0  0  0  0
    1.9220    3.2317   -1.7594 O   0  0  0  0  0  0  0  0  0  0  0  0
    4.2492    2.6427   -1.6153 C   0  0  0  0  0  0  0  0  0  0  0  0
    3.6474    1.6485   -0.8138 O   0  0  0  0  0  0  0  0  0  0  0  0
    5.5980    5.2372   -2.1885 C   0  0  2  0  0  0  0  0  0  0  0  0
    6.8114    6.1537   -1.9701 C   0  0  2  0  0  0  0  0  0  0  0  0
    6.8237    6.6930   -0.6000 N   0  0  0  0  0  0  0  0  0  0  0  0
    6.8533    7.2771   -3.0170 C   0  0  1  0  0  0  0  0  0  0  0  0
    8.0321    8.0336   -2.8205 O   0  0  0  0  0  0  0  0  0  0  0  0
    6.8601    6.6379   -4.4160 C   0  0  2  0  0  0  0  0  0  0  0  0
    6.8549    7.6339   -5.4222 O   0  0  0  0  0  0  0  0  0  0  0  0
    5.6599    5.6854   -4.5944 C   0  0  1  0  0  0  0  0  0  0  0  0
    5.5783    4.7405   -3.5249 O   0  0  0  0  0  0  0  0  0  0  0  0
    4.3285    6.4185   -4.8151 C   0  0  0  0  0  0  0  0  0  0  0  0
    4.3257    7.1527   -6.0907 N   0  0  0  0  0  0  0  0  0  0  0  0
  1  3  1  0  0  0  0
  1  2  1  1  0  0  0
  3  4  1  6  0  0  0
  5  6  1  6  0  0  0
  5  3  1  0  0  0  0
  7  9  1  0  0  0  0
  7  5  1  0  0  0  0
  7  8  1  1  0  0  0
  9 10  1  0  0  0  0
  9 11  1  1  0  0  0
 10  1  1  0  0  0  0
 11 12  1  0  0  0  0
 13 14  1  1  0  0  0
 13 21  1  0  0  0  0
 15 13  1  0  0  0  0
 16 15  1  0  0  0  0
 16 18  1  0  0  0  0
 16 17  1  1  0  0  0
 18  2  1  6  0  0  0
 18 19  1  0  0  0  0
 19 21  1  0  0  0  0
 19 20  1  1  0  0  0
 21 22  1  6  0  0  0
 23 20  1  1  0  0  0
 23 29  1  0  0  0  0
 23 24  1  0  0  0  0
 24 26  1  0  0  0  0
 24 25  1  6  0  0  0
 26 27  1  6  0  0  0
 28 26  1  0  0  0  0
 28 30  1  1  0  0  0
 29 28  1  0  0  0  0
 30 31  1  0  0  0  0
 32 27  1  6  0  0  0
 32 40  1  0  0  0  0
 32 33  1  0  0  0  0
 33 35  1  0  0  0  0
 33 34  1  1  0  0  0
 35 37  1  0  0  0  0
 35 36  1  1  0  0  0
 37 38  1  6  0  0  0
 39 37  1  0  0  0  0
 39 41  1  1  0  0  0
 40 39  1  0  0  0  0
 42 41  1  0  0  0  0
M  END
>  <CHROM.1>
-161.31336367,-171.38865342,76.31577164,-177.16729370,66.87119130,-60.50459475
-168.24741558,-83.64290821,-51.03786440,134.87674350,83.72794479,-60.27227651
174.77766164,-155.13633546,-148.36664543,106.61033121,79.31948349,32.95523047
57.75973843,81.47199242,65.78172750,72.82935453,1.41127502,4.15672273,-0.80823847
-2.78787070,0.62227978,0.23221325

>  <Name>
lig.pdb

>  <RI>
0

>  <Rbt.Current_Directory>
/home/itssahil/PROJECTS/Mol_Feturizer/New_Systems/rnas/2mxs

>  <Rbt.Executable>
rbdock ($Id: //depot/dev/client3/rdock/2013.1/src/exe/rbdock.cxx#4 $)

>  <Rbt.Library>
libRbt.so (2013.1, Build901 2013/11/27)

>  <Rbt.Parameter_File>
/export/apps/rDock/src/rDock_2013.1_src/data/scripts/dock_solv.prm

>  <Rbt.Receptor>
prm/pocket_docking_6.prm

>  <SCORE>
-31.13

>  <SCORE.INTER>
-35.3524

>  <SCORE.INTER.CONST>
1

>  <SCORE.INTER.POLAR>
-3.48692

>  <SCORE.INTER.ROT>
9

>  <SCORE.INTER.SOLV>
17.8265

>  <SCORE.INTER.VDW>
-27.4873

>  <SCORE.INTER.norm>
-0.841723

>  <SCORE.INTRA>
3.64851

>  <SCORE.INTRA.DIHEDRAL>
0.887943

>  <SCORE.INTRA.DIHEDRAL.0>
30.1357

>  <SCORE.INTRA.POLAR>
-0.183959

>  <SCORE.INTRA.POLAR.0>
-0.631696

>  <SCORE.INTRA.REPUL>
0

>  <SCORE.INTRA.REPUL.0>
0

>  <SCORE.INTRA.SOLV>
-0.193707

>  <SCORE.INTRA.SOLV.lig_0>
-55.904

>  <SCORE.INTRA.VDW>
3.92685

>  <SCORE.INTRA.VDW.0>
-8.21197

>  <SCORE.INTRA.norm>
0.0868692

>  <SCORE.RESTR>
0.573894

>  <SCORE.RESTR.CAVITY>
0.573894

>  <SCORE.RESTR.norm>
0.0136641

>  <SCORE.SYSTEM>
0

>  <SCORE.SYSTEM.CONST>
0

>  <SCORE.SYSTEM.DIHEDRAL>
0

>  <SCORE.SYSTEM.SOLV>
0

>  <SCORE.SYSTEM.norm>
0

>  <SCORE.heavy>
42

>  <SCORE.norm>
-0.74119

>  <RMSD>
9.513

$$$$
lig.pdb
 OpenBabel11021811453D
libRbt.so/2013.1/901 2013/11/27
 42 45  0  0  0  0  0  0  0  0999 V2000
    0.3817    2.5450    2.4103 C   0  0  2  0  0  0  0  0  0  0  0  0
   -0.6895    3.4106    2.0297 O   0  0  0  0  0  0  0  0  0  0  0  0
    0.3621    1.2526    1.5802 C   0  0  2  0  0  0  0  0  0  0  0  0
    0.3769    1.5510    0.1362 N   0  0  0  0  0  0  0  0  0  0  0  0
   -0.8442    0.3798    1.9499 C   0  0  1  0  0  0  0  0  0  0  0  0
   -0.7471   -0.8631    1.2812 O   0  0  0  0  0  0  0  0  0  0  0  0
   -0.8825    0.1400    3.4668 C   0  0  2  0  0  0  0  0  0  0  0  0
   -2.0820   -0.5295    3.8051 O   0  0  0  0  0  0  0  0  0  0  0  0
   -0.7843    1.4640    4.2513 C   0  0  2  0  0  0  0  0  0  0  0  0
    0.3204    2.2487    3.8032 O   0  0  0  0  0  0  0  0  0  0  0  0
   -0.6101    1.1245    5.7439 C   0  0  0  0  0  0  0  0  0  0  0  0
   -0.5764    2.3148    6.5760 O   0  0  0  0  0  0  0  0  0  0  0  0
   -1.6961    7.4377    3.1701 C   0  0  2  0  0  0  0  0  0  0  0  0
   -1.4576    8.6856    3.9226 N   0  0  0  0  0  0  0  0  0  0  0  0
   -1.8886    6.2640    4.1337 C   0  0  0  0  0  0  0  0  0  0  0  0
   -1.9946    4.9513    3.3666 C   0  0  2  0  0  0  0  0  0  0  0  0
   -2.2769    3.8456    4.2904 N   0  0  0  0  0  0  0  0  0  0  0  0
   -0.6772    4.7331    2.5866 C   0  0  2  0  0  0  0  0  0  0  0  0
   -0.5687    5.7907    1.5353 C   0  0  2  0  0  0  0  0  0  0  0  0
    0.6212    5.5481    0.8073 O   0  0  0  0  0  0  0  0  0  0  0  0
   -0.5416    7.1593    2.1892 C   0  0  1  0  0  0  0  0  0  0  0  0
   -0.5241    8.2041    1.2348 O   0  0  0  0  0  0  0  0  0  0  0  0
    0.5302    5.4931   -0.6124 C   0  0  1  0  0  0  0  0  0  0  0  0
    1.6537    6.3588   -1.1868 C   0  0  2  0  0  0  0  0  0  0  0  0
    1.1954    7.0014   -2.3614 O   0  0  0  0  0  0  0  0  0  0  0  0
    2.7571    5.3284   -1.4621 C   0  0  2  0  0  0  0  0  0  0  0  0
    3.7104    5.7821   -2.4234 O   0  0  0  0  0  0  0  0  0  0  0  0
    1.9024    4.1381   -1.9144 C   0  0  2  0  0  0  0  0  0  0  0  0
    0.7709    4.1636   -1.0558 O   0  0  0  0  0  0  0  0  0  0  0  0
    2.5949    2.7763   -1.7853 C   0  0  0  0  0  0  0  0  0  0  0  0
    2.8655    2.4562   -0.4372 O   0  0  0  0  0  0  0  0  0  0  0  0
    4.6192    6.7690   -1.9394 C   0  0  2  0  0  0  0  0  0  0  0  0
    4.8577    7.8808   -2.9725 C   0  0  2  0  0  0  0  0  0  0  0  0
    3.5847    8.4875   -3.3959 N   0  0  0  0  0  0  0  0  0  0  0  0
    5.6588    7.3581   -4.1744 C   0  0  1  0  0  0  0  0  0  0  0  0
    5.9214    8.4400   -5.0469 O   0  0  0  0  0  0  0  0  0  0  0  0
    6.9787    6.7616   -3.6567 C   0  0  2  0  0  0  0  0  0  0  0  0
    7.7388    6.2248   -4.7238 O   0  0  0  0  0  0  0  0  0  0  0  0
    6.7154    5.6825   -2.5863 C   0  0  1  0  0  0  0  0  0  0  0  0
    5.8537    6.1684   -1.5544 O   0  0  0  0  0  0  0  0  0  0  0  0
    6.2163    4.3532   -3.1719 C   0  0  0  0  0  0  0  0  0  0  0  0
    7.2611    3.6940   -3.9719 N   0  0  0  0  0  0  0  0  0  0  0  0
  1  3  1  0  0  0  0
  1  2  1  6  0  0  0
  3  4  1  6  0  0  0
  5  6  1  6  0  0  0
  5  3  1  0  0  0  0
  7  9  1  0  0  0  0
  7  5  1  0  0  0  0
  7  8  1  6  0  0  0
  9 10  1  0  0  0  0
  9 11  1  1  0  0  0
 10  1  1  0  0  0  0
 11 12  1  0  0  0  0
 13 14  1  1  0  0  0
 13 21  1  0  0  0  0
 15 13  1  0  0  0  0
 16 15  1  0  0  0  0
 16 18  1  0  0  0  0
 16 17  1  1  0  0  0
 18  2  1  6  0  0  0
 18 19  1  0  0  0  0
 19 21  1  0  0  0  0
 19 20  1  1  0  0  0
 21 22  1  6  0  0  0
 23 20  1  1  0  0  0
 23 29  1  0  0  0  0
 23 24  1  0  0  0  0
 24 26  1  0  0  0  0
 24 25  1  6  0  0  0
 26 27  1  6  0  0  0
 28 26  1  0  0  0  0
 28 30  1  1  0  0  0
 29 28  1  0  0  0  0
 30 31  1  0  0  0  0
 32 27  1  6  0  0  0
 32 40  1  0  0  0  0
 32 33  1  0  0  0  0
 33 35  1  0  0  0  0
 33 34  1  6  0  0  0
 35 37  1  0  0  0  0
 35 36  1  6  0  0  0
 37 38  1  6  0  0  0
 39 37  1  0  0  0  0
 39 41  1  6  0  0  0
 40 39  1  0  0  0  0
 42 41  1  0  0  0  0
M  END
>  <CHROM.1>
-121.83797594,-171.24242790,93.13968199,61.74454326,65.48287846,-173.56450884
-177.05983433,-65.30917188,173.12990436,128.80903840,132.64239021,-63.69983651
54.75751639,74.15442687,-138.44203533,64.49587790,-51.74549615,-34.53579591
-179.74940199,61.62015159,67.33922854,-164.79985827,1.59588587,4.58663587
0.31270960,-2.65788257,0.77047625,-0.15595455

>  <Name>
lig.pdb

>  <RI>
3.99633e+07

>  <Rbt.Current_Directory>
/home/itssahil/PROJECTS/Mol_Feturizer/New_Systems/rnas/2mxs

>  <Rbt.Executable>
rbdock ($Id: //depot/dev/client3/rdock/2013.1/src/exe/rbdock.cxx#4 $)

>  <Rbt.Library>
libRbt.so (2013.1, Build901 2013/11/27)

>  <Rbt.Parameter_File>
/export/apps/rDock/src/rDock_2013.1_src/data/scripts/dock_solv.prm

>  <Rbt.Receptor>
prm/pocket_docking_5.prm

>  <SCORE>
-30.8563

>  <SCORE.INTER>
-27.7626

>  <SCORE.INTER.CONST>
1

>  <SCORE.INTER.POLAR>
-3.34249

>  <SCORE.INTER.ROT>
9

>  <SCORE.INTER.SOLV>
18.0955

>  <SCORE.INTER.VDW>
-22.9986

>  <SCORE.INTER.norm>
-0.661015

>  <SCORE.INTRA>
-4.64564

>  <SCORE.INTRA.DIHEDRAL>
3.27441

>  <SCORE.INTRA.DIHEDRAL.0>
30.1357

>  <SCORE.INTRA.POLAR>
-3.03405

>  <SCORE.INTRA.POLAR.0>
-0.631696

>  <SCORE.INTRA.REPUL>
0

>  <SCORE.INTRA.REPUL.0>
0

>  <SCORE.INTRA.SOLV>
2.74324

>  <SCORE.INTRA.SOLV.lig_0>
-55.904

>  <SCORE.INTRA.VDW>
2.66132

>  <SCORE.INTRA.VDW.0>
-8.21197

>  <SCORE.INTRA.norm>
-0.110611

>  <SCORE.RESTR>
1.55192

>  <SCORE.RESTR.CAVITY>
1.55192

>  <SCORE.RESTR.norm>
0.0369505

>  <SCORE.SYSTEM>
0

>  <SCORE.SYSTEM.CONST>
0

>  <SCORE.SYSTEM.DIHEDRAL>
0

>  <SCORE.SYSTEM.SOLV>
0

>  <SCORE.SYSTEM.norm>
0

>  <SCORE.heavy>
42

>  <SCORE.norm>
-0.734675

>  <RMSD>
9.583

$$$$
lig.pdb
 OpenBabel11021811453D
libRbt.so/2013.1/901 2013/11/27
 42 45  0  0  0  0  0  0  0  0999 V2000
    1.2933    2.5479    8.2392 C   0  0  2  0  0  0  0  0  0  0  0  0
   -0.0119    2.9467    8.6622 O   0  0  0  0  0  0  0  0  0  0  0  0
    1.5586    1.0776    8.5959 C   0  0  2  0  0  0  0  0  0  0  0  0
    0.5065    0.2019    8.0476 N   0  0  0  0  0  0  0  0  0  0  0  0
    1.6915    0.8953   10.1134 C   0  0  1  0  0  0  0  0  0  0  0  0
    2.0852   -0.4343   10.3940 O   0  0  0  0  0  0  0  0  0  0  0  0
    2.7406    1.8662   10.6761 C   0  0  2  0  0  0  0  0  0  0  0  0
    2.7349    1.7946   12.0890 O   0  0  0  0  0  0  0  0  0  0  0  0
    2.4686    3.3158   10.2257 C   0  0  2  0  0  0  0  0  0  0  0  0
    2.2892    3.3918    8.8118 O   0  0  0  0  0  0  0  0  0  0  0  0
    3.6723    4.1812   10.6446 C   0  0  0  0  0  0  0  0  0  0  0  0
    3.7856    4.2999   12.0880 O   0  0  0  0  0  0  0  0  0  0  0  0
   -2.3876    6.4332    7.8069 C   0  0  2  0  0  0  0  0  0  0  0  0
   -2.5591    7.8131    7.3103 N   0  0  0  0  0  0  0  0  0  0  0  0
   -1.4007    6.4077    8.9768 C   0  0  0  0  0  0  0  0  0  0  0  0
   -1.1105    4.9736    9.4032 C   0  0  2  0  0  0  0  0  0  0  0  0
   -0.2415    4.9626   10.5867 N   0  0  0  0  0  0  0  0  0  0  0  0
   -0.4722    4.2279    8.2083 C   0  0  2  0  0  0  0  0  0  0  0  0
   -1.4934    4.1120    7.1224 C   0  0  2  0  0  0  0  0  0  0  0  0
   -0.9030    3.3911    6.0565 O   0  0  0  0  0  0  0  0  0  0  0  0
   -1.9227    5.4968    6.6758 C   0  0  1  0  0  0  0  0  0  0  0  0
   -2.9519    5.4471    5.7056 O   0  0  0  0  0  0  0  0  0  0  0  0
   -1.6457    2.3158    5.4917 C   0  0  1  0  0  0  0  0  0  0  0  0
   -1.6945    2.5262    3.9768 C   0  0  2  0  0  0  0  0  0  0  0  0
   -2.9492    2.0947    3.4845 O   0  0  0  0  0  0  0  0  0  0  0  0
   -0.5294    1.6571    3.4846 C   0  0  2  0  0  0  0  0  0  0  0  0
   -0.6500    1.2982    2.1079 O   0  0  0  0  0  0  0  0  0  0  0  0
   -0.6381    0.4852    4.4679 C   0  0  2  0  0  0  0  0  0  0  0  0
   -0.9574    1.0912    5.7126 O   0  0  0  0  0  0  0  0  0  0  0  0
    0.6510   -0.3294    4.6268 C   0  0  0  0  0  0  0  0  0  0  0  0
    0.4952   -1.3714    5.5665 O   0  0  0  0  0  0  0  0  0  0  0  0
    0.5872    1.0168    1.4564 C   0  0  2  0  0  0  0  0  0  0  0  0
    0.4626    1.1148   -0.0717 C   0  0  2  0  0  0  0  0  0  0  0  0
   -0.0668    2.4287   -0.4733 N   0  0  0  0  0  0  0  0  0  0  0  0
   -0.3923   -0.0314   -0.6329 C   0  0  1  0  0  0  0  0  0  0  0  0
   -0.4001    0.0604   -2.0443 O   0  0  0  0  0  0  0  0  0  0  0  0
    0.2329   -1.3656   -0.1915 C   0  0  2  0  0  0  0  0  0  0  0  0
   -0.5433   -2.4582   -0.6477 O   0  0  0  0  0  0  0  0  0  0  0  0
    0.3923   -1.4208    1.3419 C   0  0  1  0  0  0  0  0  0  0  0  0
    1.0748   -0.2673    1.8389 O   0  0  0  0  0  0  0  0  0  0  0  0
   -0.9299   -1.6687    2.0829 C   0  0  0  0  0  0  0  0  0  0  0  0
   -0.9601   -3.0081    2.6923 N   0  0  0  0  0  0  0  0  0  0  0  0
  1  3  1  0  0  0  0
  1  2  1  1  0  0  0
  3  4  1  1  0  0  0
  5  6  1  6  0  0  0
  5  3  1  0  0  0  0
  7  9  1  0  0  0  0
  7  5  1  0  0  0  0
  7  8  1  1  0  0  0
  9 10  1  0  0  0  0
  9 11  1  6  0  0  0
 10  1  1  0  0  0  0
 11 12  1  0  0  0  0
 13 14  1  6  0  0  0
 13 21  1  0  0  0  0
 15 13  1  0  0  0  0
 16 15  1  0  0  0  0
 16 18  1  0  0  0  0
 16 17  1  1  0  0  0
 18  2  1  1  0  0  0
 18 19  1  0  0  0  0
 19 21  1  0  0  0  0
 19 20  1  6  0  0  0
 21 22  1  6  0  0  0
 23 20  1  1  0  0  0
 23 29  1  0  0  0  0
 23 24  1  0  0  0  0
 24 26  1  0  0  0  0
 24 25  1  6  0  0  0
 26 27  1  6  0  0  0
 28 26  1  0  0  0  0
 28 30  1  1  0  0  0
 29 28  1  0  0  0  0
 30 31  1  0  0  0  0
 32 27  1  1  0  0  0
 32 40  1  0  0  0  0
 32 33  1  0  0  0  0
 33 35  1  0  0  0  0
 33 34  1  1  0  0  0
 35 37  1  0  0  0  0
 35 36  1  6  0  0  0
 37 38  1  1  0  0  0
 39 37  1  0  0  0  0
 39 41  1  1  0  0  0
 40 39  1  0  0  0  0
 42 41  1  0  0  0  0
M  END
>  <CHROM.1>
-134.85582762,-170.49453119,-113.61710863,63.20960574,-57.52919226,53.84884229
-66.96941569,-176.66585115,58.22889414,131.82135433,128.07862674,65.25087214
56.86715033,154.33255401,-160.39503505,178.60906196,58.52258386,57.00868046
-173.14523149,179.14382072,110.37346322,163.96221916,0.01567571,1.96161031
5.73359971,-1.33393336,0.95350754,-2.18416521

>  <Name>
lig.pdb

>  <RI>
0

>  <Rbt.Current_Directory>
/home/itssahil/PROJECTS/Mol_Feturizer/New_Systems/rnas/2mxs

>  <Rbt.Executable>
rbdock ($Id: //depot/dev/client3/rdock/2013.1/src/exe/rbdock.cxx#4 $)

>  <Rbt.Library>
libRbt.so (2013.1, Build901 2013/11/27)

>  <Rbt.Parameter_File>
/export/apps/rDock/src/rDock_2013.1_src/data/scripts/dock_solv.prm

>  <Rbt.Receptor>
prm/pocket_docking_6.prm

>  <SCORE>
-27.5881

>  <SCORE.INTER>
-26.3385

>  <SCORE.INTER.CONST>
1

>  <SCORE.INTER.POLAR>
-4.43822

>  <SCORE.INTER.ROT>
9

>  <SCORE.INTER.SOLV>
15.1222

>  <SCORE.INTER.VDW>
-17.4057

>  <SCORE.INTER.norm>
-0.627108

>  <SCORE.INTRA>
-1.24954

>  <SCORE.INTRA.DIHEDRAL>
4.74519

>  <SCORE.INTRA.DIHEDRAL.0>
30.1357

>  <SCORE.INTRA.POLAR>
-1.34849

>  <SCORE.INTRA.POLAR.0>
-0.631696

>  <SCORE.INTRA.REPUL>
0

>  <SCORE.INTRA.REPUL.0>
0

>  <SCORE.INTRA.SOLV>
1.065

>  <SCORE.INTRA.SOLV.lig_0>
-55.904

>  <SCORE.INTRA.VDW>
0.430224

>  <SCORE.INTRA.VDW.0>
-8.21197

>  <SCORE.INTRA.norm>
-0.0297509

>  <SCORE.RESTR>
0

>  <SCORE.RESTR.CAVITY>
0

>  <SCORE.RESTR.norm>
0

>  <SCORE.SYSTEM>
0

>  <SCORE.SYSTEM.CONST>
0

>  <SCORE.SYSTEM.DIHEDRAL>
0

>  <SCORE.SYSTEM.SOLV>
0

>  <SCORE.SYSTEM.norm>
0

>  <SCORE.heavy>
42

>  <SCORE.norm>
-0.656859

>  <RMSD>
9.589

$$$$
lig.pdb
 OpenBabel11021811453D
libRbt.so/2013.1/901 2013/11/27
 42 45  0  0  0  0  0  0  0  0999 V2000
   -0.4084   -1.2918    5.0774 C   0  0  2  0  0  0  0  0  0  0  0  0
   -0.4248   -0.3712    3.9848 O   0  0  0  0  0  0  0  0  0  0  0  0
   -1.8359   -1.6045    5.5508 C   0  0  2  0  0  0  0  0  0  0  0  0
   -2.6706   -2.0845    4.4340 N   0  0  0  0  0  0  0  0  0  0  0  0
   -2.4708   -0.3828    6.2275 C   0  0  1  0  0  0  0  0  0  0  0  0
   -3.7187   -0.7498    6.7840 O   0  0  0  0  0  0  0  0  0  0  0  0
   -1.5532    0.1459    7.3402 C   0  0  2  0  0  0  0  0  0  0  0  0
   -2.0780    1.3597    7.8431 O   0  0  0  0  0  0  0  0  0  0  0  0
   -0.1158    0.3709    6.8287 C   0  0  2  0  0  0  0  0  0  0  0  0
    0.3781   -0.7850    6.1526 O   0  0  0  0  0  0  0  0  0  0  0  0
    0.7801    0.6869    8.0414 C   0  0  0  0  0  0  0  0  0  0  0  0
    1.6061    1.8615    7.8209 O   0  0  0  0  0  0  0  0  0  0  0  0
    2.3990    0.1420    0.7764 C   0  0  2  0  0  0  0  0  0  0  0  0
    3.4257   -0.3590   -0.1590 N   0  0  0  0  0  0  0  0  0  0  0  0
    2.8613   -0.0449    2.2237 C   0  0  0  0  0  0  0  0  0  0  0  0
    1.7517    0.3388    3.1955 C   0  0  2  0  0  0  0  0  0  0  0  0
    2.2362    0.2503    4.5787 N   0  0  0  0  0  0  0  0  0  0  0  0
    0.5401   -0.5890    2.9452 C   0  0  2  0  0  0  0  0  0  0  0  0
   -0.0114   -0.2916    1.5876 C   0  0  2  0  0  0  0  0  0  0  0  0
   -1.1429   -1.1207    1.3957 O   0  0  0  0  0  0  0  0  0  0  0  0
    1.0489   -0.5593    0.5362 C   0  0  1  0  0  0  0  0  0  0  0  0
    0.6077   -0.2140   -0.7635 O   0  0  0  0  0  0  0  0  0  0  0  0
   -2.2329   -0.5923    0.6477 C   0  0  1  0  0  0  0  0  0  0  0  0
   -2.8484   -1.7399   -0.1558 C   0  0  2  0  0  0  0  0  0  0  0  0
   -3.2869   -1.2510   -1.4095 O   0  0  0  0  0  0  0  0  0  0  0  0
   -4.0050   -2.1918    0.7460 C   0  0  2  0  0  0  0  0  0  0  0  0
   -5.0139   -2.9090    0.0343 O   0  0  0  0  0  0  0  0  0  0  0  0
   -4.4517   -0.8354    1.3051 C   0  0  2  0  0  0  0  0  0  0  0  0
   -3.2416   -0.1276    1.5357 O   0  0  0  0  0  0  0  0  0  0  0  0
   -5.2372   -0.9200    2.6190 C   0  0  0  0  0  0  0  0  0  0  0  0
   -5.6978    0.3490    3.0321 O   0  0  0  0  0  0  0  0  0  0  0  0
   -4.5420   -4.0534   -0.6740 C   0  0  2  0  0  0  0  0  0  0  0  0
   -5.6277   -4.6499   -1.5826 C   0  0  2  0  0  0  0  0  0  0  0  0
   -6.1601   -3.6324   -2.5042 N   0  0  0  0  0  0  0  0  0  0  0  0
   -6.7469   -5.3003   -0.7557 C   0  0  1  0  0  0  0  0  0  0  0  0
   -7.6694   -5.9051   -1.6411 O   0  0  0  0  0  0  0  0  0  0  0  0
   -6.1187   -6.3622    0.1627 C   0  0  2  0  0  0  0  0  0  0  0  0
   -7.1050   -6.9644    0.9807 O   0  0  0  0  0  0  0  0  0  0  0  0
   -4.9993   -5.7505    1.0301 C   0  0  1  0  0  0  0  0  0  0  0  0
   -4.0505   -5.0374    0.2333 O   0  0  0  0  0  0  0  0  0  0  0  0
   -5.5275   -4.8980    2.1933 C   0  0  0  0  0  0  0  0  0  0  0  0
   -5.4473   -5.6251    3.4705 N   0  0  0  0  0  0  0  0  0  0  0  0
  1  3  1  0  0  0  0
  1  2  1  6  0  0  0
  3  4  1  6  0  0  0
  5  6  1  1  0  0  0
  5  3  1  0  0  0  0
  7  9  1  0  0  0  0
  7  5  1  0  0  0  0
  7  8  1  6  0  0  0
  9 10  1  0  0  0  0
  9 11  1  1  0  0  0
 10  1  1  0  0  0  0
 11 12  1  0  0  0  0
 13 14  1  6  0  0  0
 13 21  1  0  0  0  0
 15 13  1  0  0  0  0
 16 15  1  0  0  0  0
 16 18  1  0  0  0  0
 16 17  1  1  0  0  0
 18  2  1  1  0  0  0
 18 19  1  0  0  0  0
 19 21  1  0  0  0  0
 19 20  1  6  0  0  0
 21 22  1  6  0  0  0
 23 20  1  1  0  0  0
 23 29  1  0  0  0  0
 23 24  1  0  0  0  0
 24 26  1  0  0  0  0
 24 25  1  6  0  0  0
 26 27  1  6  0  0  0
 28 26  1  0  0  0  0
 28 30  1  1  0  0  0
 29 28  1  0  0  0  0
 30 31  1  0  0  0  0
 32 27  1  1  0  0  0
 32 40  1  0  0  0  0
 32 33  1  0  0  0  0
 33 35  1  0  0  0  0
 33 34  1  1  0  0  0
 35 37  1  0  0  0  0
 35 36  1  6  0  0  0
 37 38  1  1  0  0  0
 39 37  1  0  0  0  0
 39 41  1  1  0  0  0
 40 39  1  0  0  0  0
 42 41  1  0  0  0  0
M  END
>  <CHROM.1>
-97.52573580,-141.93076674,179.21949974,65.86997504,-63.96102857,-59.76210715
-131.29734843,80.90027076,150.72729837,145.20687126,144.92198261,97.10128184
-61.43128345,56.18295938,-171.34676329,-175.93347955,62.20281001,-48.77811918
-72.77405989,-169.29939861,102.64203972,168.48315070,-2.38044626,-1.75179229
2.42709781,0.71467859,0.51183968,1.33786415

>  <Name>
lig.pdb

>  <RI>
4.11275e+07

>  <Rbt.Current_Directory>
/home/itssahil/PROJECTS/Mol_Feturizer/New_Systems/rnas/2mxs

>  <Rbt.Executable>
rbdock ($Id: //depot/dev/client3/rdock/2013.1/src/exe/rbdock.cxx#4 $)

>  <Rbt.Library>
libRbt.so (2013.1, Build901 2013/11/27)

>  <Rbt.Parameter_File>
/export/apps/rDock/src/rDock_2013.1_src/data/scripts/dock_solv.prm

>  <Rbt.Receptor>
prm/pocket_docking_8.prm

>  <SCORE>
-41.9077

>  <SCORE.INTER>
-48.7

>  <SCORE.INTER.CONST>
1

>  <SCORE.INTER.POLAR>
-6.29762

>  <SCORE.INTER.ROT>
9

>  <SCORE.INTER.SOLV>
17.8763

>  <SCORE.INTER.VDW>
-27.0334

>  <SCORE.INTER.norm>
-1.15952

>  <SCORE.INTRA>
6.78738

>  <SCORE.INTRA.DIHEDRAL>
8.65453

>  <SCORE.INTRA.DIHEDRAL.0>
30.1357

>  <SCORE.INTRA.POLAR>
0.368354

>  <SCORE.INTRA.POLAR.0>
-0.631696

>  <SCORE.INTRA.REPUL>
0.000250173

>  <SCORE.INTRA.REPUL.0>
0

>  <SCORE.INTRA.SOLV>
-0.822976

>  <SCORE.INTRA.SOLV.lig_0>
-55.904

>  <SCORE.INTRA.VDW>
1.61795

>  <SCORE.INTRA.VDW.0>
-8.21197

>  <SCORE.INTRA.norm>
0.161604

>  <SCORE.RESTR>
0.00495086

>  <SCORE.RESTR.CAVITY>
0.00495086

>  <SCORE.RESTR.norm>
0.000117878

>  <SCORE.SYSTEM>
0

>  <SCORE.SYSTEM.CONST>
0

>  <SCORE.SYSTEM.DIHEDRAL>
0

>  <SCORE.SYSTEM.SOLV>
0

>  <SCORE.SYSTEM.norm>
0

>  <SCORE.heavy>
42

>  <SCORE.norm>
-0.997802

>  <RMSD>
9.678

$$$$
lig.pdb
 OpenBabel11021811453D
libRbt.so/2013.1/901 2013/11/27
 42 45  0  0  0  0  0  0  0  0999 V2000
    1.4297    2.3067    1.2122 C   0  0  2  0  0  0  0  0  0  0  0  0
    0.1010    2.8314    1.1878 O   0  0  0  0  0  0  0  0  0  0  0  0
    1.7311    1.5205   -0.0726 C   0  0  2  0  0  0  0  0  0  0  0  0
    1.4831    2.3463   -1.2688 N   0  0  0  0  0  0  0  0  0  0  0  0
    0.9204    0.2191   -0.1240 C   0  0  1  0  0  0  0  0  0  0  0  0
    1.3341   -0.5484   -1.2381 O   0  0  0  0  0  0  0  0  0  0  0  0
    1.1360   -0.5932    1.1619 C   0  0  2  0  0  0  0  0  0  0  0  0
    0.2625   -1.7061    1.1649 O   0  0  0  0  0  0  0  0  0  0  0  0
    0.8929    0.2646    2.4202 C   0  0  2  0  0  0  0  0  0  0  0  0
    1.6276    1.4868    2.3613 O   0  0  0  0  0  0  0  0  0  0  0  0
    1.3375   -0.5510    3.6491 C   0  0  0  0  0  0  0  0  0  0  0  0
    1.0962    0.1581    4.8938 O   0  0  0  0  0  0  0  0  0  0  0  0
   -1.3467    6.8569    1.6672 C   0  0  2  0  0  0  0  0  0  0  0  0
   -1.2916    8.2080    2.2603 N   0  0  0  0  0  0  0  0  0  0  0  0
   -1.5420    5.8035    2.7605 C   0  0  0  0  0  0  0  0  0  0  0  0
   -1.4589    4.3993    2.1741 C   0  0  2  0  0  0  0  0  0  0  0  0
   -1.7446    3.3993    3.2105 N   0  0  0  0  0  0  0  0  0  0  0  0
   -0.0537    4.2094    1.5570 C   0  0  2  0  0  0  0  0  0  0  0  0
    0.0770    5.1290    0.3853 C   0  0  2  0  0  0  0  0  0  0  0  0
    1.3523    4.9096   -0.1891 O   0  0  0  0  0  0  0  0  0  0  0  0
   -0.0770    6.5664    0.8451 C   0  0  1  0  0  0  0  0  0  0  0  0
   -0.0457    7.4771   -0.2378 O   0  0  0  0  0  0  0  0  0  0  0  0
    1.5918    5.4327   -1.4914 C   0  0  1  0  0  0  0  0  0  0  0  0
    2.1757    6.8379   -1.3307 C   0  0  2  0  0  0  0  0  0  0  0  0
    1.6941    7.6667   -2.3718 O   0  0  0  0  0  0  0  0  0  0  0  0
    3.6859    6.5809   -1.4228 C   0  0  2  0  0  0  0  0  0  0  0  0
    4.4252    7.7491   -1.7799 O   0  0  0  0  0  0  0  0  0  0  0  0
    3.7017    5.4626   -2.4722 C   0  0  2  0  0  0  0  0  0  0  0  0
    2.5825    4.6504   -2.1461 O   0  0  0  0  0  0  0  0  0  0  0  0
    4.9669    4.5969   -2.4557 C   0  0  0  0  0  0  0  0  0  0  0  0
    5.1615    3.9843   -1.1987 O   0  0  0  0  0  0  0  0  0  0  0  0
    5.7692    7.5005   -2.1872 C   0  0  2  0  0  0  0  0  0  0  0  0
    6.6364    8.7653   -2.0957 C   0  0  2  0  0  0  0  0  0  0  0  0
    6.5856    9.3413   -0.7416 N   0  0  0  0  0  0  0  0  0  0  0  0
    6.2292    9.7949   -3.1604 C   0  0  1  0  0  0  0  0  0  0  0  0
    7.1135   10.8963   -3.0849 O   0  0  0  0  0  0  0  0  0  0  0  0
    6.3278    9.1292   -4.5435 C   0  0  2  0  0  0  0  0  0  0  0  0
    5.9205   10.0251   -5.5613 O   0  0  0  0  0  0  0  0  0  0  0  0
    5.4879    7.8363   -4.5958 C   0  0  1  0  0  0  0  0  0  0  0  0
    5.8020    6.9640   -3.5078 O   0  0  0  0  0  0  0  0  0  0  0  0
    3.9781    8.0953   -4.7059 C   0  0  0  0  0  0  0  0  0  0  0  0
    3.6301    8.6940   -6.0047 N   0  0  0  0  0  0  0  0  0  0  0  0
  1  3  1  0  0  0  0
  1  2  1  6  0  0  0
  3  4  1  6  0  0  0
  5  6  1  6  0  0  0
  5  3  1  0  0  0  0
  7  9  1  0  0  0  0
  7  5  1  0  0  0  0
  7  8  1  6  0  0  0
  9 10  1  0  0  0  0
  9 11  1  1  0  0  0
 10  1  1  0  0  0  0
 11 12  1  0  0  0  0
 13 14  1  1  0  0  0
 13 21  1  0  0  0  0
 15 13  1  0  0  0  0
 16 15  1  0  0  0  0
 16 18  1  0  0  0  0
 16 17  1  1  0  0  0
 18  2  1  6  0  0  0
 18 19  1  0  0  0  0
 19 21  1  0  0  0  0
 19 20  1  1  0  0  0
 21 22  1  6  0  0  0
 23 20  1  1  0  0  0
 23 29  1  0  0  0  0
 23 24  1  0  0  0  0
 24 26  1  0  0  0  0
 24 25  1  6  0  0  0
 26 27  1  6  0  0  0
 28 26  1  0  0  0  0
 28 30  1  1  0  0  0
 29 28  1  0  0  0  0
 30 31  1  0  0  0  0
 32 27  1  6  0  0  0
 32 40  1  0  0  0  0
 32 33  1  0  0  0  0
 33 35  1  0  0  0  0
 33 34  1  1  0  0  0
 35 37  1  0  0  0  0
 35 36  1  6  0  0  0
 37 38  1  6  0  0  0
 39 37  1  0  0  0  0
 39 41  1  1  0  0  0
 40 39  1  0  0  0  0
 42 41  1  0  0  0  0
M  END
>  <CHROM.1>
-150.92889002,-132.85688064,59.97957320,-176.91552148,69.24956313,-178.07896644
-177.70654488,-25.66598962,-179.46709177,165.56058109,91.12521073,-50.82189529
58.11874265,-165.73888556,-160.61595922,58.41094044,-59.43198882,155.98267096
64.16752650,58.13492957,67.53511132,80.89788614,2.40183703,5.12195872,-0.65332764
-2.25503246,0.69369172,-0.16108189

>  <Name>
lig.pdb

>  <RI>
0

>  <Rbt.Current_Directory>
/home/itssahil/PROJECTS/Mol_Feturizer/New_Systems/rnas/2mxs

>  <Rbt.Executable>
rbdock ($Id: //depot/dev/client3/rdock/2013.1/src/exe/rbdock.cxx#4 $)

>  <Rbt.Library>
libRbt.so (2013.1, Build901 2013/11/27)

>  <Rbt.Parameter_File>
/export/apps/rDock/src/rDock_2013.1_src/data/scripts/dock_solv.prm

>  <Rbt.Receptor>
prm/pocket_docking_7.prm

>  <SCORE>
-57.5032

>  <SCORE.INTER>
-56.6949

>  <SCORE.INTER.CONST>
1

>  <SCORE.INTER.POLAR>
-7.35537

>  <SCORE.INTER.ROT>
9

>  <SCORE.INTER.SOLV>
20.5069

>  <SCORE.INTER.VDW>
-29.7144

>  <SCORE.INTER.norm>
-1.34988

>  <SCORE.INTRA>
-1.30923

>  <SCORE.INTRA.DIHEDRAL>
-6.56122

>  <SCORE.INTRA.DIHEDRAL.0>
30.1357

>  <SCORE.INTRA.POLAR>
-1.47876

>  <SCORE.INTRA.POLAR.0>
-0.631696

>  <SCORE.INTRA.REPUL>
0

>  <SCORE.INTRA.REPUL.0>
0

>  <SCORE.INTRA.SOLV>
1.69853

>  <SCORE.INTRA.SOLV.lig_0>
-55.904

>  <SCORE.INTRA.VDW>
6.1499

>  <SCORE.INTRA.VDW.0>
-8.21197

>  <SCORE.INTRA.norm>
-0.0311722

>  <SCORE.RESTR>
0.500986

>  <SCORE.RESTR.CAVITY>
0.500986

>  <SCORE.RESTR.norm>
0.0119282

>  <SCORE.SYSTEM>
0

>  <SCORE.SYSTEM.CONST>
0

>  <SCORE.SYSTEM.DIHEDRAL>
0

>  <SCORE.SYSTEM.SOLV>
0

>  <SCORE.SYSTEM.norm>
0

>  <SCORE.heavy>
42

>  <SCORE.norm>
-1.36912

>  <RMSD>
9.753

$$$$
lig.pdb
 OpenBabel11021811453D
libRbt.so/2013.1/901 2013/11/27
 42 45  0  0  0  0  0  0  0  0999 V2000
   -1.3936    3.8709    9.3753 C   0  0  2  0  0  0  0  0  0  0  0  0
   -0.5240    4.6457   10.2029 O   0  0  0  0  0  0  0  0  0  0  0  0
   -2.6617    3.4662   10.1421 C   0  0  2  0  0  0  0  0  0  0  0  0
   -3.3398    4.6485   10.7047 N   0  0  0  0  0  0  0  0  0  0  0  0
   -2.3383    2.4429   11.2384 C   0  0  1  0  0  0  0  0  0  0  0  0
   -3.5426    1.9802   11.8189 O   0  0  0  0  0  0  0  0  0  0  0  0
   -1.5691    1.2528   10.6453 C   0  0  2  0  0  0  0  0  0  0  0  0
   -1.1437    0.4014   11.6920 O   0  0  0  0  0  0  0  0  0  0  0  0
   -0.3501    1.7199    9.8242 C   0  0  2  0  0  0  0  0  0  0  0  0
   -0.7199    2.7190    8.8744 O   0  0  0  0  0  0  0  0  0  0  0  0
    0.2316    0.4957    9.0919 C   0  0  0  0  0  0  0  0  0  0  0  0
   -0.6781   -0.0238    8.0854 O   0  0  0  0  0  0  0  0  0  0  0  0
    2.5244    7.3725    8.8603 C   0  0  2  0  0  0  0  0  0  0  0  0
    3.7828    7.6882    8.1553 N   0  0  0  0  0  0  0  0  0  0  0  0
    2.7857    6.3807    9.9966 C   0  0  0  0  0  0  0  0  0  0  0  0
    1.4747    5.9419   10.6382 C   0  0  2  0  0  0  0  0  0  0  0  0
    1.7405    5.0686   11.7882 N   0  0  0  0  0  0  0  0  0  0  0  0
    0.6153    5.2381    9.5623 C   0  0  2  0  0  0  0  0  0  0  0  0
    0.2252    6.2491    8.5321 C   0  0  2  0  0  0  0  0  0  0  0  0
   -0.5940    5.5947    7.5808 O   0  0  0  0  0  0  0  0  0  0  0  0
    1.4705    6.8213    7.8816 C   0  0  1  0  0  0  0  0  0  0  0  0
    1.1632    7.8463    6.9553 O   0  0  0  0  0  0  0  0  0  0  0  0
   -1.4912    6.3937    6.8169 C   0  0  1  0  0  0  0  0  0  0  0  0
   -0.8864    6.5732    5.4229 C   0  0  2  0  0  0  0  0  0  0  0  0
   -1.1899    7.8700    4.9444 O   0  0  0  0  0  0  0  0  0  0  0  0
   -1.5763    5.4636    4.6178 C   0  0  2  0  0  0  0  0  0  0  0  0
   -1.5581    5.7077    3.2111 O   0  0  0  0  0  0  0  0  0  0  0  0
   -2.9688    5.4963    5.2595 C   0  0  2  0  0  0  0  0  0  0  0  0
   -2.7202    5.6998    6.6434 O   0  0  0  0  0  0  0  0  0  0  0  0
   -3.7774    4.2057    5.0833 C   0  0  0  0  0  0  0  0  0  0  0  0
   -5.1021    4.3544    5.5482 O   0  0  0  0  0  0  0  0  0  0  0  0
   -0.2644    5.6464    2.6139 C   0  0  2  0  0  0  0  0  0  0  0  0
   -0.2745    6.1824    1.1742 C   0  0  2  0  0  0  0  0  0  0  0  0
   -0.8222    7.5483    1.1250 N   0  0  0  0  0  0  0  0  0  0  0  0
   -1.0383    5.2362    0.2357 C   0  0  1  0  0  0  0  0  0  0  0  0
   -0.9408    5.7341   -1.0847 O   0  0  0  0  0  0  0  0  0  0  0  0
   -0.3973    3.8408    0.3251 C   0  0  2  0  0  0  0  0  0  0  0  0
   -1.0928    2.9165   -0.4913 O   0  0  0  0  0  0  0  0  0  0  0  0
   -0.3545    3.3447    1.7851 C   0  0  1  0  0  0  0  0  0  0  0  0
    0.2421    4.3140    2.6498 O   0  0  0  0  0  0  0  0  0  0  0  0
   -1.7192    2.8723    2.3078 C   0  0  0  0  0  0  0  0  0  0  0  0
   -2.1348    1.6162    1.6630 N   0  0  0  0  0  0  0  0  0  0  0  0
  1  3  1  0  0  0  0
  1  2  1  1  0  0  0
  3  4  1  1  0  0  0
  5  6  1  6  0  0  0
  5  3  1  0  0  0  0
  7  9  1  0  0  0  0
  7  5  1  0  0  0  0
  7  8  1  1  0  0  0
  9 10  1  0  0  0  0
  9 11  1  6  0  0  0
 10  1  1  0  0  0  0
 11 12  1  0  0  0  0
 13 14  1  6  0  0  0
 13 21  1  0  0  0  0
 15 13  1  0  0  0  0
 16 15  1  0  0  0  0
 16 18  1  0  0  0  0
 16 17  1  1  0  0  0
 18  2  1  1  0  0  0
 18 19  1  0  0  0  0
 19 21  1  0  0  0  0
 19 20  1  6  0  0  0
 21 22  1  6  0  0  0
 23 20  1  1  0  0  0
 23 29  1  0  0  0  0
 23 24  1  0  0  0  0
 24 26  1  0  0  0  0
 24 25  1  6  0  0  0
 26 27  1  6  0  0  0
 28 26  1  0  0  0  0
 28 30  1  1  0  0  0
 29 28  1  0  0  0  0
 30 31  1  0  0  0  0
 32 27  1  6  0  0  0
 32 40  1  0  0  0  0
 32 33  1  0  0  0  0
 33 35  1  0  0  0  0
 33 34  1  1  0  0  0
 35 37  1  0  0  0  0
 35 36  1  6  0  0  0
 37 38  1  6  0  0  0
 39 37  1  0  0  0  0
 39 41  1  1  0  0  0
 40 39  1  0  0  0  0
 42 41  1  0  0  0  0
M  END
>  <CHROM.1>
-175.99464837,-172.08650727,-64.13574605,-63.10914332,-58.04051622,-60.14249360
66.45732964,-66.64762628,-52.53669528,156.40057325,102.81850819,-57.95428903
-179.86500489,67.66129773,-168.83672928,-172.73949683,-177.50744523,-35.42879935
-167.06178342,43.81437518,70.00527285,-48.13086717,-0.81136286,4.57893745
6.44636380,1.47351331,0.95109178,1.80091194

>  <Name>
lig.pdb

>  <RI>
0

>  <Rbt.Current_Directory>
/home/itssahil/PROJECTS/Mol_Feturizer/New_Systems/rnas/2mxs

>  <Rbt.Executable>
rbdock ($Id: //depot/dev/client3/rdock/2013.1/src/exe/rbdock.cxx#4 $)

>  <Rbt.Library>
libRbt.so (2013.1, Build901 2013/11/27)

>  <Rbt.Parameter_File>
/export/apps/rDock/src/rDock_2013.1_src/data/scripts/dock_solv.prm

>  <Rbt.Receptor>
prm/pocket_docking_6.prm

>  <SCORE>
-31.3281

>  <SCORE.INTER>
-26.2334

>  <SCORE.INTER.CONST>
1

>  <SCORE.INTER.POLAR>
-4.46775

>  <SCORE.INTER.ROT>
9

>  <SCORE.INTER.SOLV>
15.5151

>  <SCORE.INTER.VDW>
-17.3682

>  <SCORE.INTER.norm>
-0.624606

>  <SCORE.INTRA>
-5.09469

>  <SCORE.INTRA.DIHEDRAL>
-15.1725

>  <SCORE.INTRA.DIHEDRAL.0>
30.1357

>  <SCORE.INTRA.POLAR>
-0.172854

>  <SCORE.INTRA.POLAR.0>
-0.631696

>  <SCORE.INTRA.REPUL>
0

>  <SCORE.INTRA.REPUL.0>
0

>  <SCORE.INTRA.SOLV>
-0.540431

>  <SCORE.INTRA.SOLV.lig_0>
-55.904

>  <SCORE.INTRA.VDW>
3.34949

>  <SCORE.INTRA.VDW.0>
-8.21197

>  <SCORE.INTRA.norm>
-0.121302

>  <SCORE.RESTR>
0

>  <SCORE.RESTR.CAVITY>
0

>  <SCORE.RESTR.norm>
0

>  <SCORE.SYSTEM>
0

>  <SCORE.SYSTEM.CONST>
0

>  <SCORE.SYSTEM.DIHEDRAL>
0

>  <SCORE.SYSTEM.SOLV>
0

>  <SCORE.SYSTEM.norm>
0

>  <SCORE.heavy>
42

>  <SCORE.norm>
-0.745908

>  <RMSD>
9.886

$$$$
lig.pdb
 OpenBabel11021811453D
libRbt.so/2013.1/901 2013/11/27
 42 45  0  0  0  0  0  0  0  0999 V2000
    0.5460    1.9828   -0.4051 C   0  0  2  0  0  0  0  0  0  0  0  0
   -0.4893    2.9674   -0.3919 O   0  0  0  0  0  0  0  0  0  0  0  0
    0.4454    1.0997   -1.6580 C   0  0  2  0  0  0  0  0  0  0  0  0
    0.4440    1.9191   -2.8840 N   0  0  0  0  0  0  0  0  0  0  0  0
   -0.7940    0.1976   -1.5969 C   0  0  1  0  0  0  0  0  0  0  0  0
   -0.7722   -0.7047   -2.6863 O   0  0  0  0  0  0  0  0  0  0  0  0
   -0.8116   -0.5940   -0.2806 C   0  0  2  0  0  0  0  0  0  0  0  0
   -2.0350   -1.2962   -0.1726 O   0  0  0  0  0  0  0  0  0  0  0  0
   -0.6321    0.3326    0.9390 C   0  0  2  0  0  0  0  0  0  0  0  0
    0.5000    1.1863    0.7762 O   0  0  0  0  0  0  0  0  0  0  0  0
   -0.4428   -0.5501    2.1874 C   0  0  0  0  0  0  0  0  0  0  0  0
    0.8108   -1.2833    2.1548 O   0  0  0  0  0  0  0  0  0  0  0  0
   -1.0916    6.4600    2.0514 C   0  0  2  0  0  0  0  0  0  0  0  0
   -0.6500    7.4517    3.0524 N   0  0  0  0  0  0  0  0  0  0  0  0
   -1.0858    5.0541    2.6570 C   0  0  0  0  0  0  0  0  0  0  0  0
   -1.4038    4.0100    1.5933 C   0  0  2  0  0  0  0  0  0  0  0  0
   -1.4928    2.6769    2.2021 N   0  0  0  0  0  0  0  0  0  0  0  0
   -0.3113    4.0767    0.5008 C   0  0  2  0  0  0  0  0  0  0  0  0
   -0.4223    5.3927   -0.2000 C   0  0  2  0  0  0  0  0  0  0  0  0
    0.5576    5.4161   -1.2217 O   0  0  0  0  0  0  0  0  0  0  0  0
   -0.2060    6.5193    0.7926 C   0  0  1  0  0  0  0  0  0  0  0  0
   -0.3832    7.7919    0.1992 O   0  0  0  0  0  0  0  0  0  0  0  0
    1.9259    5.4044   -0.8284 C   0  0  1  0  0  0  0  0  0  0  0  0
    2.7134    4.6452   -1.8984 C   0  0  2  0  0  0  0  0  0  0  0  0
    3.7531    3.9100   -1.2809 O   0  0  0  0  0  0  0  0  0  0  0  0
    3.2338    5.7787   -2.7925 C   0  0  2  0  0  0  0  0  0  0  0  0
    4.3694    5.3946   -3.5682 O   0  0  0  0  0  0  0  0  0  0  0  0
    3.5116    6.8492   -1.7299 C   0  0  2  0  0  0  0  0  0  0  0  0
    2.4309    6.7337   -0.8150 O   0  0  0  0  0  0  0  0  0  0  0  0
    3.5543    8.2828   -2.2717 C   0  0  0  0  0  0  0  0  0  0  0  0
    4.4358    9.0947   -1.5256 O   0  0  0  0  0  0  0  0  0  0  0  0
    5.2937    6.4485   -3.8310 C   0  0  2  0  0  0  0  0  0  0  0  0
    5.2726    6.8710   -5.3079 C   0  0  2  0  0  0  0  0  0  0  0  0
    3.9105    7.2361   -5.7314 N   0  0  0  0  0  0  0  0  0  0  0  0
    5.8662    5.7756   -6.2064 C   0  0  1  0  0  0  0  0  0  0  0  0
    5.9001    6.2527   -7.5376 O   0  0  0  0  0  0  0  0  0  0  0  0
    7.2912    5.4650   -5.7177 C   0  0  2  0  0  0  0  0  0  0  0  0
    7.8703    4.4276   -6.4877 O   0  0  0  0  0  0  0  0  0  0  0  0
    7.2929    5.0906   -4.2212 C   0  0  1  0  0  0  0  0  0  0  0  0
    6.6106    6.0709   -3.4358 O   0  0  0  0  0  0  0  0  0  0  0  0
    6.7715    3.6721   -3.9479 C   0  0  0  0  0  0  0  0  0  0  0  0
    7.5667    2.6614   -4.6636 N   0  0  0  0  0  0  0  0  0  0  0  0
  1  3  1  0  0  0  0
  1  2  1  1  0  0  0
  3  4  1  6  0  0  0
  5  6  1  6  0  0  0
  5  3  1  0  0  0  0
  7  9  1  0  0  0  0
  7  5  1  0  0  0  0
  7  8  1  1  0  0  0
  9 10  1  0  0  0  0
  9 11  1  1  0  0  0
 10  1  1  0  0  0  0
 11 12  1  0  0  0  0
 13 14  1  1  0  0  0
 13 21  1  0  0  0  0
 15 13  1  0  0  0  0
 16 15  1  0  0  0  0
 16 18  1  0  0  0  0
 16 17  1  1  0  0  0
 18  2  1  6  0  0  0
 18 19  1  0  0  0  0
 19 21  1  0  0  0  0
 19 20  1  6  0  0  0
 21 22  1  6  0  0  0
 23 20  1  6  0  0  0
 23 29  1  0  0  0  0
 23 24  1  0  0  0  0
 24 26  1  0  0  0  0
 24 25  1  1  0  0  0
 26 27  1  1  0  0  0
 28 26  1  0  0  0  0
 28 30  1  6  0  0  0
 29 28  1  0  0  0  0
 30 31  1  0  0  0  0
 32 27  1  6  0  0  0
 32 40  1  0  0  0  0
 32 33  1  0  0  0  0
 33 35  1  0  0  0  0
 33 34  1  6  0  0  0
 35 37  1  0  0  0  0
 35 36  1  6  0  0  0
 37 38  1  6  0  0  0
 39 37  1  0  0  0  0
 39 41  1  6  0  0  0
 40 39  1  0  0  0  0
 42 41  1  0  0  0  0
M  END
>  <CHROM.1>
-114.09270405,-163.35370927,-159.37889484,-36.10284235,-61.42426996,-162.17243630
67.44131105,11.93002137,-79.15498043,-65.61352761,147.45511243,-62.17613545
-52.82698673,-148.09803357,-109.55991168,-149.36963051,62.76100406,54.87224426
-62.95098094,170.01479698,58.33345076,71.40017363,2.15542137,4.17933844,-1.59627892
-2.85656807,0.75695202,0.20438796

>  <Name>
lig.pdb

>  <RI>
0

>  <Rbt.Current_Directory>
/home/itssahil/PROJECTS/Mol_Feturizer/New_Systems/rnas/2mxs

>  <Rbt.Executable>
rbdock ($Id: //depot/dev/client3/rdock/2013.1/src/exe/rbdock.cxx#4 $)

>  <Rbt.Library>
libRbt.so (2013.1, Build901 2013/11/27)

>  <Rbt.Parameter_File>
/export/apps/rDock/src/rDock_2013.1_src/data/scripts/dock_solv.prm

>  <Rbt.Receptor>
prm/pocket_docking_7.prm

>  <SCORE>
-46.586

>  <SCORE.INTER>
-58.7062

>  <SCORE.INTER.CONST>
1

>  <SCORE.INTER.POLAR>
-7.30149

>  <SCORE.INTER.ROT>
9

>  <SCORE.INTER.SOLV>
24.8132

>  <SCORE.INTER.VDW>
-32.6703

>  <SCORE.INTER.norm>
-1.39777

>  <SCORE.INTRA>
12.1203

>  <SCORE.INTRA.DIHEDRAL>
6.67108

>  <SCORE.INTRA.DIHEDRAL.0>
30.1357

>  <SCORE.INTRA.POLAR>
-0.0495187

>  <SCORE.INTRA.POLAR.0>
-0.631696

>  <SCORE.INTRA.REPUL>
0.0190515

>  <SCORE.INTRA.REPUL.0>
0

>  <SCORE.INTRA.SOLV>
-0.0687665

>  <SCORE.INTRA.SOLV.lig_0>
-55.904

>  <SCORE.INTRA.VDW>
8.8922

>  <SCORE.INTRA.VDW.0>
-8.21197

>  <SCORE.INTRA.norm>
0.288577

>  <SCORE.RESTR>
0

>  <SCORE.RESTR.CAVITY>
0

>  <SCORE.RESTR.norm>
0

>  <SCORE.SYSTEM>
0

>  <SCORE.SYSTEM.CONST>
0

>  <SCORE.SYSTEM.DIHEDRAL>
0

>  <SCORE.SYSTEM.SOLV>
0

>  <SCORE.SYSTEM.norm>
0

>  <SCORE.heavy>
42

>  <SCORE.norm>
-1.10919

>  <RMSD>
9.952

$$$$
lig.pdb
 OpenBabel11021811453D
libRbt.so/2013.1/901 2013/11/27
 42 45  0  0  0  0  0  0  0  0999 V2000
   -0.0139    6.0274   11.1062 C   0  0  2  0  0  0  0  0  0  0  0  0
    0.9460    5.1701   11.7267 O   0  0  0  0  0  0  0  0  0  0  0  0
    0.6720    7.2428   10.4644 C   0  0  2  0  0  0  0  0  0  0  0  0
    1.7269    6.8201    9.5248 N   0  0  0  0  0  0  0  0  0  0  0  0
    1.2342    8.1862   11.5356 C   0  0  1  0  0  0  0  0  0  0  0  0
    1.7201    9.3623   10.9174 O   0  0  0  0  0  0  0  0  0  0  0  0
    0.1381    8.5578   12.5457 C   0  0  2  0  0  0  0  0  0  0  0  0
    0.7109    9.2957   13.6082 O   0  0  0  0  0  0  0  0  0  0  0  0
   -0.5673    7.3041   13.1015 C   0  0  2  0  0  0  0  0  0  0  0  0
   -1.0000    6.4452   12.0469 O   0  0  0  0  0  0  0  0  0  0  0  0
   -1.7824    7.7653   13.9286 C   0  0  0  0  0  0  0  0  0  0  0  0
   -1.4752    7.8645   15.3449 O   0  0  0  0  0  0  0  0  0  0  0  0
    1.6461    0.9743   11.0665 C   0  0  2  0  0  0  0  0  0  0  0  0
    1.1945   -0.4255   10.9358 N   0  0  0  0  0  0  0  0  0  0  0  0
    1.3021    1.5167   12.4560 C   0  0  0  0  0  0  0  0  0  0  0  0
    1.6368    3.0005   12.5512 C   0  0  2  0  0  0  0  0  0  0  0  0
    1.3959    3.4881   13.9150 N   0  0  0  0  0  0  0  0  0  0  0  0
    0.7888    3.7611   11.5053 C   0  0  2  0  0  0  0  0  0  0  0  0
    1.2379    3.3474   10.1404 C   0  0  2  0  0  0  0  0  0  0  0  0
    0.4790    4.0849    9.1998 O   0  0  0  0  0  0  0  0  0  0  0  0
    1.0280    1.8553    9.9646 C   0  0  1  0  0  0  0  0  0  0  0  0
    1.5146    1.3934    8.7184 O   0  0  0  0  0  0  0  0  0  0  0  0
    0.9035    4.0617    7.8411 C   0  0  1  0  0  0  0  0  0  0  0  0
    0.2255    2.8710    7.1598 C   0  0  2  0  0  0  0  0  0  0  0  0
    1.1137    2.3043    6.2150 O   0  0  0  0  0  0  0  0  0  0  0  0
   -1.0042    3.5187    6.5090 C   0  0  2  0  0  0  0  0  0  0  0  0
   -1.5347    2.7426    5.4343 O   0  0  0  0  0  0  0  0  0  0  0  0
   -0.4056    4.8686    6.0948 C   0  0  2  0  0  0  0  0  0  0  0  0
    0.4421    5.2307    7.1758 O   0  0  0  0  0  0  0  0  0  0  0  0
   -1.4395    5.9799    5.8789 C   0  0  0  0  0  0  0  0  0  0  0  0
   -0.8316    7.1792    5.4483 O   0  0  0  0  0  0  0  0  0  0  0  0
   -2.7514    2.0625    5.7363 C   0  0  2  0  0  0  0  0  0  0  0  0
   -2.4959    0.6391    6.2548 C   0  0  2  0  0  0  0  0  0  0  0  0
   -1.5904    0.6565    7.4157 N   0  0  0  0  0  0  0  0  0  0  0  0
   -1.9612   -0.2700    5.1381 C   0  0  1  0  0  0  0  0  0  0  0  0
   -1.8274   -1.5821    5.6493 O   0  0  0  0  0  0  0  0  0  0  0  0
   -2.9669   -0.2540    3.9745 C   0  0  2  0  0  0  0  0  0  0  0  0
   -2.4999   -1.0451    2.8972 O   0  0  0  0  0  0  0  0  0  0  0  0
   -3.2441    1.1885    3.5033 C   0  0  1  0  0  0  0  0  0  0  0  0
   -3.6072    2.0353    4.5962 O   0  0  0  0  0  0  0  0  0  0  0  0
   -2.1015    1.7866    2.6692 C   0  0  0  0  0  0  0  0  0  0  0  0
   -2.3066    1.5495    1.2311 N   0  0  0  0  0  0  0  0  0  0  0  0
  1  3  1  0  0  0  0
  1  2  1  1  0  0  0
  3  4  1  6  0  0  0
  5  6  1  6  0  0  0
  5  3  1  0  0  0  0
  7  9  1  0  0  0  0
  7  5  1  0  0  0  0
  7  8  1  1  0  0  0
  9 10  1  0  0  0  0
  9 11  1  6  0  0  0
 10  1  1  0  0  0  0
 11 12  1  0  0  0  0
 13 14  1  1  0  0  0
 13 21  1  0  0  0  0
 15 13  1  0  0  0  0
 16 15  1  0  0  0  0
 16 18  1  0  0  0  0
 16 17  1  1  0  0  0
 18  2  1  6  0  0  0
 18 19  1  0  0  0  0
 19 21  1  0  0  0  0
 19 20  1  6  0  0  0
 21 22  1  6  0  0  0
 23 20  1  1  0  0  0
 23 29  1  0  0  0  0
 23 24  1  0  0  0  0
 24 26  1  0  0  0  0
 24 25  1  6  0  0  0
 26 27  1  6  0  0  0
 28 26  1  0  0  0  0
 28 30  1  1  0  0  0
 29 28  1  0  0  0  0
 30 31  1  0  0  0  0
 32 27  1  6  0  0  0
 32 40  1  0  0  0  0
 32 33  1  0  0  0  0
 33 35  1  0  0  0  0
 33 34  1  1  0  0  0
 35 37  1  0  0  0  0
 35 36  1  1  0  0  0
 37 38  1  6  0  0  0
 39 37  1  0  0  0  0
 39 41  1  1  0  0  0
 40 39  1  0  0  0  0
 42 41  1  0  0  0  0
M  END
>  <CHROM.1>
-163.99400019,-136.08657522,49.88242814,-62.89316006,171.06401467,62.09222675
-95.33867993,35.86636882,50.02254703,167.85686340,89.02364249,64.72843750
-58.80272327,106.00159435,-92.23813568,-177.63269001,-157.98294145,160.27804654
-168.87394189,-20.77245350,91.90925342,173.07368010,-0.35285406,3.77792159
8.63324282,0.79427716,-1.23266101,0.19754795

>  <Name>
lig.pdb

>  <RI>
0

>  <Rbt.Current_Directory>
/home/itssahil/PROJECTS/Mol_Feturizer/New_Systems/rnas/2mxs

>  <Rbt.Executable>
rbdock ($Id: //depot/dev/client3/rdock/2013.1/src/exe/rbdock.cxx#4 $)

>  <Rbt.Library>
libRbt.so (2013.1, Build901 2013/11/27)

>  <Rbt.Parameter_File>
/export/apps/rDock/src/rDock_2013.1_src/data/scripts/dock_solv.prm

>  <Rbt.Receptor>
prm/pocket_docking_7.prm

>  <SCORE>
15.6381

>  <SCORE.INTER>
5.46691

>  <SCORE.INTER.CONST>
1

>  <SCORE.INTER.POLAR>
-0.650791

>  <SCORE.INTER.ROT>
9

>  <SCORE.INTER.SOLV>
5.15846

>  <SCORE.INTER.VDW>
-5.50558

>  <SCORE.INTER.norm>
0.130164

>  <SCORE.INTRA>
10.0323

>  <SCORE.INTRA.DIHEDRAL>
9.31632

>  <SCORE.INTRA.DIHEDRAL.0>
30.1357

>  <SCORE.INTRA.POLAR>
-0.593885

>  <SCORE.INTRA.POLAR.0>
-0.631696

>  <SCORE.INTRA.REPUL>
0.0015862

>  <SCORE.INTRA.REPUL.0>
0

>  <SCORE.INTRA.SOLV>
0.941223

>  <SCORE.INTRA.SOLV.lig_0>
-55.904

>  <SCORE.INTRA.VDW>
6.91478

>  <SCORE.INTRA.VDW.0>
-8.21197

>  <SCORE.INTRA.norm>
0.238864

>  <SCORE.RESTR>
0.138948

>  <SCORE.RESTR.CAVITY>
0.138948

>  <SCORE.RESTR.norm>
0.00330828

>  <SCORE.SYSTEM>
0

>  <SCORE.SYSTEM.CONST>
0

>  <SCORE.SYSTEM.DIHEDRAL>
0

>  <SCORE.SYSTEM.SOLV>
0

>  <SCORE.SYSTEM.norm>
0

>  <SCORE.heavy>
42

>  <SCORE.norm>
0.372336

>  <RMSD>
10.056

$$$$
lig.pdb
 OpenBabel11021811453D
libRbt.so/2013.1/901 2013/11/27
 42 45  0  0  0  0  0  0  0  0999 V2000
   -6.0795   -8.7432   -4.5892 C   0  0  2  0  0  0  0  0  0  0  0  0
   -5.8274   -8.9908   -3.2048 O   0  0  0  0  0  0  0  0  0  0  0  0
   -7.0877   -7.5977   -4.7654 C   0  0  2  0  0  0  0  0  0  0  0  0
   -6.6388   -6.3842   -4.0580 N   0  0  0  0  0  0  0  0  0  0  0  0
   -8.4872   -8.0205   -4.3004 C   0  0  1  0  0  0  0  0  0  0  0  0
   -9.4154   -7.0009   -4.6175 O   0  0  0  0  0  0  0  0  0  0  0  0
   -8.9071   -9.3249   -4.9947 C   0  0  2  0  0  0  0  0  0  0  0  0
  -10.1252   -9.7808   -4.4380 O   0  0  0  0  0  0  0  0  0  0  0  0
   -7.8265  -10.4157   -4.8502 C   0  0  2  0  0  0  0  0  0  0  0  0
   -6.5432   -9.9251   -5.2370 O   0  0  0  0  0  0  0  0  0  0  0  0
   -8.2219  -11.6034   -5.7482 C   0  0  0  0  0  0  0  0  0  0  0  0
   -8.2590  -11.2388   -7.1538 O   0  0  0  0  0  0  0  0  0  0  0  0
   -3.4485  -12.5756   -3.0597 C   0  0  2  0  0  0  0  0  0  0  0  0
   -2.2662  -13.3478   -2.6283 N   0  0  0  0  0  0  0  0  0  0  0  0
   -3.0187  -11.3662   -3.8939 C   0  0  0  0  0  0  0  0  0  0  0  0
   -4.2194  -10.4875   -4.2239 C   0  0  2  0  0  0  0  0  0  0  0  0
   -3.8141   -9.3852   -5.1050 N   0  0  0  0  0  0  0  0  0  0  0  0
   -4.8297   -9.9757   -2.8983 C   0  0  2  0  0  0  0  0  0  0  0  0
   -5.3946  -11.1436   -2.1551 C   0  0  2  0  0  0  0  0  0  0  0  0
   -5.9842  -10.6486   -0.9669 O   0  0  0  0  0  0  0  0  0  0  0  0
   -4.2888  -12.1351   -1.8463 C   0  0  1  0  0  0  0  0  0  0  0  0
   -4.7821  -13.3022   -1.2158 O   0  0  0  0  0  0  0  0  0  0  0  0
   -5.1219  -10.3455    0.1247 C   0  0  1  0  0  0  0  0  0  0  0  0
   -5.6518   -9.0795    0.8014 C   0  0  2  0  0  0  0  0  0  0  0  0
   -4.5614   -8.3011    1.2575 O   0  0  0  0  0  0  0  0  0  0  0  0
   -6.5000   -9.6474    1.9473 C   0  0  2  0  0  0  0  0  0  0  0  0
   -6.7101   -8.7056    2.9997 O   0  0  0  0  0  0  0  0  0  0  0  0
   -5.6479  -10.8633    2.3314 C   0  0  2  0  0  0  0  0  0  0  0  0
   -5.1909  -11.3857    1.0918 O   0  0  0  0  0  0  0  0  0  0  0  0
   -6.4120  -11.9599    3.0825 C   0  0  0  0  0  0  0  0  0  0  0  0
   -7.5810  -12.3457    2.3915 O   0  0  0  0  0  0  0  0  0  0  0  0
   -7.7462   -7.7576    2.7509 C   0  0  2  0  0  0  0  0  0  0  0  0
   -7.2191   -6.3149    2.7814 C   0  0  2  0  0  0  0  0  0  0  0  0
   -6.1000   -6.1435    1.8400 N   0  0  0  0  0  0  0  0  0  0  0  0
   -6.8240   -5.8990    4.2063 C   0  0  1  0  0  0  0  0  0  0  0  0
   -6.4299   -4.5407    4.1874 O   0  0  0  0  0  0  0  0  0  0  0  0
   -8.0450   -6.0844    5.1232 C   0  0  2  0  0  0  0  0  0  0  0  0
   -7.7216   -5.7548    6.4616 O   0  0  0  0  0  0  0  0  0  0  0  0
   -8.5856   -7.5267    5.0390 C   0  0  1  0  0  0  0  0  0  0  0  0
   -8.8116   -7.9225    3.6841 O   0  0  0  0  0  0  0  0  0  0  0  0
   -7.7227   -8.5456    5.7979 C   0  0  0  0  0  0  0  0  0  0  0  0
   -7.8890   -8.4099    7.2541 N   0  0  0  0  0  0  0  0  0  0  0  0
  1  3  1  0  0  0  0
  1  2  1  1  0  0  0
  3  4  1  1  0  0  0
  5  6  1  6  0  0  0
  5  3  1  0  0  0  0
  7  9  1  0  0  0  0
  7  5  1  0  0  0  0
  7  8  1  1  0  0  0
  9 10  1  0  0  0  0
  9 11  1  6  0  0  0
 10  1  1  0  0  0  0
 11 12  1  0  0  0  0
 13 14  1  1  0  0  0
 13 21  1  0  0  0  0
 15 13  1  0  0  0  0
 16 15  1  0  0  0  0
 16 18  1  0  0  0  0
 16 17  1  6  0  0  0
 18  2  1  6  0  0  0
 18 19  1  0  0  0  0
 19 21  1  0  0  0  0
 19 20  1  1  0  0  0
 21 22  1  6  0  0  0
 23 20  1  6  0  0  0
 23 29  1  0  0  0  0
 23 24  1  0  0  0  0
 24 26  1  0  0  0  0
 24 25  1  1  0  0  0
 26 27  1  1  0  0  0
 28 26  1  0  0  0  0
 28 30  1  6  0  0  0
 29 28  1  0  0  0  0
 30 31  1  0  0  0  0
 32 27  1  1  0  0  0
 32 40  1  0  0  0  0
 32 33  1  0  0  0  0
 33 35  1  0  0  0  0
 33 34  1  6  0  0  0
 35 37  1  0  0  0  0
 35 36  1  6  0  0  0
 37 38  1  1  0  0  0
 39 37  1  0  0  0  0
 39 41  1  6  0  0  0
 40 39  1  0  0  0  0
 42 41  1  0  0  0  0
M  END
>  <CHROM.1>
2.55772194,-175.73217250,47.19581686,-164.83641096,176.60833020,73.73435517
62.73236515,115.02239884,14.69513624,-79.45937001,141.81908603,-60.12558214
-73.12866463,80.65016152,-120.53517193,52.27356308,145.93959429,72.27143758
-177.43425010,67.63606520,73.35003606,-41.45870501,-6.48058489,-9.29390348
-0.48080100,1.38705761,0.92949224,-1.72357070

>  <Name>
lig.pdb

>  <RI>
3.31443e+07

>  <Rbt.Current_Directory>
/home/itssahil/PROJECTS/Mol_Feturizer/New_Systems/rnas/2mxs

>  <Rbt.Executable>
rbdock ($Id: //depot/dev/client3/rdock/2013.1/src/exe/rbdock.cxx#4 $)

>  <Rbt.Library>
libRbt.so (2013.1, Build901 2013/11/27)

>  <Rbt.Parameter_File>
/export/apps/rDock/src/rDock_2013.1_src/data/scripts/dock_solv.prm

>  <Rbt.Receptor>
prm/blind_docking_40.prm

>  <SCORE>
154.494

>  <SCORE.INTER>
106.361

>  <SCORE.INTER.CONST>
1

>  <SCORE.INTER.POLAR>
-3.34415

>  <SCORE.INTER.ROT>
9

>  <SCORE.INTER.SOLV>
32.2102

>  <SCORE.INTER.VDW>
61.7176

>  <SCORE.INTER.norm>
2.5324

>  <SCORE.INTRA>
20.4784

>  <SCORE.INTRA.DIHEDRAL>
10.1137

>  <SCORE.INTRA.DIHEDRAL.0>
30.1357

>  <SCORE.INTRA.POLAR>
-0.953046

>  <SCORE.INTRA.POLAR.0>
-0.631696

>  <SCORE.INTRA.REPUL>
0

>  <SCORE.INTRA.REPUL.0>
0

>  <SCORE.INTRA.SOLV>
1.02137

>  <SCORE.INTRA.SOLV.lig_0>
-55.904

>  <SCORE.INTRA.VDW>
18.1512

>  <SCORE.INTRA.VDW.0>
-8.21197

>  <SCORE.INTRA.norm>
0.487581

>  <SCORE.RESTR>
27.6548

>  <SCORE.RESTR.CAVITY>
27.6548

>  <SCORE.RESTR.norm>
0.658448

>  <SCORE.SYSTEM>
0

>  <SCORE.SYSTEM.CONST>
0

>  <SCORE.SYSTEM.DIHEDRAL>
0

>  <SCORE.SYSTEM.SOLV>
0

>  <SCORE.SYSTEM.norm>
0

>  <SCORE.heavy>
42

>  <SCORE.norm>
3.67843

>  <RMSD>
15.042

$$$$
lig.pdb
 OpenBabel11021811453D
libRbt.so/2013.1/901 2013/11/27
 42 45  0  0  0  0  0  0  0  0999 V2000
   -7.2663   -9.7045   -3.4584 C   0  0  2  0  0  0  0  0  0  0  0  0
   -6.9767  -11.0450   -3.8592 O   0  0  0  0  0  0  0  0  0  0  0  0
   -8.5733   -9.2124   -4.0983 C   0  0  2  0  0  0  0  0  0  0  0  0
   -9.6868  -10.1325   -3.8017 N   0  0  0  0  0  0  0  0  0  0  0  0
   -8.4063   -9.0193   -5.6110 C   0  0  1  0  0  0  0  0  0  0  0  0
   -9.5752   -8.4234   -6.1402 O   0  0  0  0  0  0  0  0  0  0  0  0
   -7.1982   -8.1162   -5.9020 C   0  0  2  0  0  0  0  0  0  0  0  0
   -6.9663   -8.0792   -7.2971 O   0  0  0  0  0  0  0  0  0  0  0  0
   -5.9322   -8.6138   -5.1754 C   0  0  2  0  0  0  0  0  0  0  0  0
   -6.1865   -8.8345   -3.7884 O   0  0  0  0  0  0  0  0  0  0  0  0
   -4.8347   -7.5452   -5.3395 C   0  0  0  0  0  0  0  0  0  0  0  0
   -5.2531   -6.2484   -4.8361 O   0  0  0  0  0  0  0  0  0  0  0  0
   -3.6816  -13.6128   -2.8201 C   0  0  2  0  0  0  0  0  0  0  0  0
   -2.2540  -13.8652   -2.5397 N   0  0  0  0  0  0  0  0  0  0  0  0
   -3.8576  -13.0774   -4.2433 C   0  0  0  0  0  0  0  0  0  0  0  0
   -5.3083  -12.6819   -4.4925 C   0  0  2  0  0  0  0  0  0  0  0  0
   -5.4868  -12.2628   -5.8883 N   0  0  0  0  0  0  0  0  0  0  0  0
   -5.6872  -11.5605   -3.4974 C   0  0  2  0  0  0  0  0  0  0  0  0
   -5.6708  -12.1290   -2.1147 C   0  0  2  0  0  0  0  0  0  0  0  0
   -6.0604  -11.0988   -1.2251 O   0  0  0  0  0  0  0  0  0  0  0  0
   -4.2793  -12.6375   -1.7886 C   0  0  1  0  0  0  0  0  0  0  0  0
   -4.2258  -13.2637   -0.5204 O   0  0  0  0  0  0  0  0  0  0  0  0
   -5.0974  -10.6360   -0.2841 C   0  0  1  0  0  0  0  0  0  0  0  0
   -5.5217   -9.2376    0.1696 C   0  0  2  0  0  0  0  0  0  0  0  0
   -4.3690   -8.4435    0.3784 O   0  0  0  0  0  0  0  0  0  0  0  0
   -6.2884   -9.5292    1.4666 C   0  0  2  0  0  0  0  0  0  0  0  0
   -6.3736   -8.3925    2.3265 O   0  0  0  0  0  0  0  0  0  0  0  0
   -5.4505  -10.6907    2.0152 C   0  0  2  0  0  0  0  0  0  0  0  0
   -5.1205  -11.4653    0.8709 O   0  0  0  0  0  0  0  0  0  0  0  0
   -6.1861  -11.5808    3.0237 C   0  0  0  0  0  0  0  0  0  0  0  0
   -5.8491  -12.9418    2.8589 O   0  0  0  0  0  0  0  0  0  0  0  0
   -7.5842   -8.3029    3.0750 C   0  0  2  0  0  0  0  0  0  0  0  0
   -8.7173   -7.6690    2.2538 C   0  0  2  0  0  0  0  0  0  0  0  0
   -8.9222   -8.3967    0.9903 N   0  0  0  0  0  0  0  0  0  0  0  0
   -8.4544   -6.1759    2.0065 C   0  0  1  0  0  0  0  0  0  0  0  0
   -9.5661   -5.6287    1.3242 O   0  0  0  0  0  0  0  0  0  0  0  0
   -8.2732   -5.4821    3.3673 C   0  0  2  0  0  0  0  0  0  0  0  0
   -7.9846   -4.1069    3.1944 O   0  0  0  0  0  0  0  0  0  0  0  0
   -7.1639   -6.1659    4.1929 C   0  0  1  0  0  0  0  0  0  0  0  0
   -7.3739   -7.5769    4.2841 O   0  0  0  0  0  0  0  0  0  0  0  0
   -5.7469   -5.8269    3.7072 C   0  0  0  0  0  0  0  0  0  0  0  0
   -5.3884   -4.4360    4.0283 N   0  0  0  0  0  0  0  0  0  0  0  0
  1  3  1  0  0  0  0
  1  2  1  6  0  0  0
  3  4  1  6  0  0  0
  5  6  1  1  0  0  0
  5  3  1  0  0  0  0
  7  9  1  0  0  0  0
  7  5  1  0  0  0  0
  7  8  1  6  0  0  0
  9 10  1  0  0  0  0
  9 11  1  1  0  0  0
 10  1  1  0  0  0  0
 11 12  1  0  0  0  0
 13 14  1  1  0  0  0
 13 21  1  0  0  0  0
 15 13  1  0  0  0  0
 16 15  1  0  0  0  0
 16 18  1  0  0  0  0
 16 17  1  6  0  0  0
 18  2  1  6  0  0  0
 18 19  1  0  0  0  0
 19 21  1  0  0  0  0
 19 20  1  1  0  0  0
 21 22  1  1  0  0  0
 23 20  1  6  0  0  0
 23 29  1  0  0  0  0
 23 24  1  0  0  0  0
 24 26  1  0  0  0  0
 24 25  1  1  0  0  0
 26 27  1  1  0  0  0
 28 26  1  0  0  0  0
 28 30  1  1  0  0  0
 29 28  1  0  0  0  0
 30 31  1  0  0  0  0
 32 27  1  6  0  0  0
 32 40  1  0  0  0  0
 32 33  1  0  0  0  0
 33 35  1  0  0  0  0
 33 34  1  6  0  0  0
 35 37  1  0  0  0  0
 35 36  1  1  0  0  0
 37 38  1  6  0  0  0
 39 37  1  0  0  0  0
 39 41  1  6  0  0  0
 40 39  1  0  0  0  0
 42 41  1  0  0  0  0
M  END
>  <CHROM.1>
-154.97552083,170.97854797,70.16651811,65.16616161,58.07890145,62.43683742
57.08141842,152.14461699,51.00751326,-114.85775199,158.74550427,-64.93025600
-175.88304704,145.94130641,-82.90605651,141.94062050,71.62186071,49.42723862
-65.48268740,63.75655201,71.49303847,-48.95877965,-6.40806451,-9.35012864
-1.03628343,1.27233254,1.05320082,-1.78122252

>  <Name>
lig.pdb

>  <RI>
3.31443e+07

>  <Rbt.Current_Directory>
/home/itssahil/PROJECTS/Mol_Feturizer/New_Systems/rnas/2mxs

>  <Rbt.Executable>
rbdock ($Id: //depot/dev/client3/rdock/2013.1/src/exe/rbdock.cxx#4 $)

>  <Rbt.Library>
libRbt.so (2013.1, Build901 2013/11/27)

>  <Rbt.Parameter_File>
/export/apps/rDock/src/rDock_2013.1_src/data/scripts/dock_solv.prm

>  <Rbt.Receptor>
prm/blind_docking_40.prm

>  <SCORE>
48.5631

>  <SCORE.INTER>
8.91784

>  <SCORE.INTER.CONST>
1

>  <SCORE.INTER.POLAR>
-3.12384

>  <SCORE.INTER.ROT>
9

>  <SCORE.INTER.SOLV>
30.0166

>  <SCORE.INTER.VDW>
-3.24749

>  <SCORE.INTER.norm>
0.21233

>  <SCORE.INTRA>
4.63591

>  <SCORE.INTRA.DIHEDRAL>
-2.68163

>  <SCORE.INTRA.DIHEDRAL.0>
30.1357

>  <SCORE.INTRA.POLAR>
-0.0693483

>  <SCORE.INTRA.POLAR.0>
-0.631696

>  <SCORE.INTRA.REPUL>
0

>  <SCORE.INTRA.REPUL.0>
0

>  <SCORE.INTRA.SOLV>
-0.383575

>  <SCORE.INTRA.SOLV.lig_0>
-55.904

>  <SCORE.INTRA.VDW>
6.4043

>  <SCORE.INTRA.VDW.0>
-8.21197

>  <SCORE.INTRA.norm>
0.110379

>  <SCORE.RESTR>
35.0094

>  <SCORE.RESTR.CAVITY>
35.0094

>  <SCORE.RESTR.norm>
0.833557

>  <SCORE.SYSTEM>
0

>  <SCORE.SYSTEM.CONST>
0

>  <SCORE.SYSTEM.DIHEDRAL>
0

>  <SCORE.SYSTEM.SOLV>
0

>  <SCORE.SYSTEM.norm>
0

>  <SCORE.heavy>
42

>  <SCORE.norm>
1.15627

>  <RMSD>
15.123

$$$$
lig.pdb
 OpenBabel11021811453D
libRbt.so/2013.1/901 2013/11/27
 42 45  0  0  0  0  0  0  0  0999 V2000
   -7.0579   -9.4678   -5.4762 C   0  0  2  0  0  0  0  0  0  0  0  0
   -7.2596  -10.5399   -4.5534 O   0  0  0  0  0  0  0  0  0  0  0  0
   -6.6710   -8.1769   -4.7390 C   0  0  2  0  0  0  0  0  0  0  0  0
   -5.4959   -8.3929   -3.8748 N   0  0  0  0  0  0  0  0  0  0  0  0
   -7.8549   -7.6286   -3.9319 C   0  0  1  0  0  0  0  0  0  0  0  0
   -7.5116   -6.3663   -3.3931 O   0  0  0  0  0  0  0  0  0  0  0  0
   -9.0895   -7.4785   -4.8335 C   0  0  2  0  0  0  0  0  0  0  0  0
  -10.2074   -7.1247   -4.0419 O   0  0  0  0  0  0  0  0  0  0  0  0
   -9.3875   -8.7797   -5.6058 C   0  0  2  0  0  0  0  0  0  0  0  0
   -8.2217   -9.2622   -6.2730 O   0  0  0  0  0  0  0  0  0  0  0  0
  -10.4919   -8.4819   -6.6377 C   0  0  0  0  0  0  0  0  0  0  0  0
  -10.7053   -9.5939   -7.5479 O   0  0  0  0  0  0  0  0  0  0  0  0
   -4.6056  -13.7912   -3.5962 C   0  0  2  0  0  0  0  0  0  0  0  0
   -3.2646  -14.3639   -3.3638 N   0  0  0  0  0  0  0  0  0  0  0  0
   -4.7085  -13.2383   -5.0198 C   0  0  0  0  0  0  0  0  0  0  0  0
   -6.0379  -12.5209   -5.2224 C   0  0  2  0  0  0  0  0  0  0  0  0
   -6.1689  -12.0803   -6.6168 N   0  0  0  0  0  0  0  0  0  0  0  0
   -6.1102  -11.3363   -4.2309 C   0  0  2  0  0  0  0  0  0  0  0  0
   -6.1717  -11.8850   -2.8414 C   0  0  2  0  0  0  0  0  0  0  0  0
   -6.2794  -10.7874   -1.9536 O   0  0  0  0  0  0  0  0  0  0  0  0
   -4.9228  -12.6983   -2.5583 C   0  0  1  0  0  0  0  0  0  0  0  0
   -4.9660  -13.3122   -1.2838 O   0  0  0  0  0  0  0  0  0  0  0  0
   -5.1211  -10.4172   -1.2133 C   0  0  1  0  0  0  0  0  0  0  0  0
   -5.3633   -9.0224   -0.6326 C   0  0  2  0  0  0  0  0  0  0  0  0
   -4.1483   -8.2968   -0.6354 O   0  0  0  0  0  0  0  0  0  0  0  0
   -5.8676   -9.3364    0.7824 C   0  0  2  0  0  0  0  0  0  0  0  0
   -5.7114   -8.2384    1.6818 O   0  0  0  0  0  0  0  0  0  0  0  0
   -5.0047  -10.5622    1.1062 C   0  0  2  0  0  0  0  0  0  0  0  0
   -4.9581  -11.2976   -0.1085 O   0  0  0  0  0  0  0  0  0  0  0  0
   -5.5715  -11.4613    2.2111 C   0  0  0  0  0  0  0  0  0  0  0  0
   -6.8571  -11.9427    1.8815 O   0  0  0  0  0  0  0  0  0  0  0  0
   -6.6849   -7.2065    1.5347 C   0  0  2  0  0  0  0  0  0  0  0  0
   -6.3211   -5.9581    2.3527 C   0  0  2  0  0  0  0  0  0  0  0  0
   -4.9738   -5.4758    2.0059 N   0  0  0  0  0  0  0  0  0  0  0  0
   -6.4521   -6.2251    3.8598 C   0  0  1  0  0  0  0  0  0  0  0  0
   -6.1901   -5.0220    4.5559 O   0  0  0  0  0  0  0  0  0  0  0  0
   -7.8860   -6.7023    4.1462 C   0  0  2  0  0  0  0  0  0  0  0  0
   -8.0487   -7.0047    5.5197 O   0  0  0  0  0  0  0  0  0  0  0  0
   -8.2449   -7.9263    3.2787 C   0  0  1  0  0  0  0  0  0  0  0  0
   -7.9794   -7.6831    1.8953 O   0  0  0  0  0  0  0  0  0  0  0  0
   -7.5957   -9.2298    3.7669 C   0  0  0  0  0  0  0  0  0  0  0  0
   -8.5731  -10.3292    3.8178 N   0  0  0  0  0  0  0  0  0  0  0  0
  1  3  1  0  0  0  0
  1  2  1  1  0  0  0
  3  4  1  1  0  0  0
  5  6  1  6  0  0  0
  5  3  1  0  0  0  0
  7  9  1  0  0  0  0
  7  5  1  0  0  0  0
  7  8  1  1  0  0  0
  9 10  1  0  0  0  0
  9 11  1  6  0  0  0
 10  1  1  0  0  0  0
 11 12  1  0  0  0  0
 13 14  1  1  0  0  0
 13 21  1  0  0  0  0
 15 13  1  0  0  0  0
 16 15  1  0  0  0  0
 16 18  1  0  0  0  0
 16 17  1  6  0  0  0
 18  2  1  6  0  0  0
 18 19  1  0  0  0  0
 19 21  1  0  0  0  0
 19 20  1  1  0  0  0
 21 22  1  1  0  0  0
 23 20  1  1  0  0  0
 23 29  1  0  0  0  0
 23 24  1  0  0  0  0
 24 26  1  0  0  0  0
 24 25  1  1  0  0  0
 26 27  1  1  0  0  0
 28 26  1  0  0  0  0
 28 30  1  1  0  0  0
 29 28  1  0  0  0  0
 30 31  1  0  0  0  0
 32 27  1  1  0  0  0
 32 40  1  0  0  0  0
 32 33  1  0  0  0  0
 33 35  1  0  0  0  0
 33 34  1  1  0  0  0
 35 37  1  0  0  0  0
 35 36  1  1  0  0  0
 37 38  1  1  0  0  0
 39 37  1  0  0  0  0
 39 41  1  1  0  0  0
 40 39  1  0  0  0  0
 42 41  1  0  0  0  0
M  END
>  <CHROM.1>
-90.76162217,-89.79957199,-75.93506831,-174.44717921,-59.90508488,-172.12669301
171.54672828,-167.47621592,174.35590166,-104.69348374,165.12901009,-169.77406894
74.49071680,77.57687111,-170.08558172,58.60043127,170.04395285,157.88445688
-55.51617477,168.57262019,133.01600693,-125.76256068,-6.68975598,-9.43566740
-1.30732926,1.63712319,0.96535508,-1.96834999

>  <Name>
lig.pdb

>  <RI>
3.31443e+07

>  <Rbt.Current_Directory>
/home/itssahil/PROJECTS/Mol_Feturizer/New_Systems/rnas/2mxs

>  <Rbt.Executable>
rbdock ($Id: //depot/dev/client3/rdock/2013.1/src/exe/rbdock.cxx#4 $)

>  <Rbt.Library>
libRbt.so (2013.1, Build901 2013/11/27)

>  <Rbt.Parameter_File>
/export/apps/rDock/src/rDock_2013.1_src/data/scripts/dock_solv.prm

>  <Rbt.Receptor>
prm/blind_docking_40.prm

>  <SCORE>
18.2663

>  <SCORE.INTER>
-19.163

>  <SCORE.INTER.CONST>
1

>  <SCORE.INTER.POLAR>
-5.02808

>  <SCORE.INTER.ROT>
9

>  <SCORE.INTER.SOLV>
24.9124

>  <SCORE.INTER.VDW>
-13.9192

>  <SCORE.INTER.norm>
-0.456261

>  <SCORE.INTRA>
5.06985

>  <SCORE.INTRA.DIHEDRAL>
0.442119

>  <SCORE.INTRA.DIHEDRAL.0>
30.1357

>  <SCORE.INTRA.POLAR>
-0.71272

>  <SCORE.INTRA.POLAR.0>
-0.631696

>  <SCORE.INTRA.REPUL>
0

>  <SCORE.INTRA.REPUL.0>
0

>  <SCORE.INTRA.SOLV>
0.994417

>  <SCORE.INTRA.SOLV.lig_0>
-55.904

>  <SCORE.INTRA.VDW>
6.77483

>  <SCORE.INTRA.VDW.0>
-8.21197

>  <SCORE.INTRA.norm>
0.120711

>  <SCORE.RESTR>
32.3594

>  <SCORE.RESTR.CAVITY>
32.3594

>  <SCORE.RESTR.norm>
0.770463

>  <SCORE.SYSTEM>
0

>  <SCORE.SYSTEM.CONST>
0

>  <SCORE.SYSTEM.DIHEDRAL>
0

>  <SCORE.SYSTEM.SOLV>
0

>  <SCORE.SYSTEM.norm>
0

>  <SCORE.heavy>
42

>  <SCORE.norm>
0.434912

>  <RMSD>
15.441

$$$$
lig.pdb
 OpenBabel11021811453D
libRbt.so/2013.1/901 2013/11/27
 42 45  0  0  0  0  0  0  0  0999 V2000
   -7.0639   -9.2711   -5.5084 C   0  0  2  0  0  0  0  0  0  0  0  0
   -7.3046  -10.4659   -4.7627 O   0  0  0  0  0  0  0  0  0  0  0  0
   -7.7423   -8.0645   -4.8423 C   0  0  2  0  0  0  0  0  0  0  0  0
   -7.3241   -7.9329   -3.4344 N   0  0  0  0  0  0  0  0  0  0  0  0
   -9.2691   -8.1596   -4.9569 C   0  0  1  0  0  0  0  0  0  0  0  0
   -9.8518   -6.9651   -4.4719 O   0  0  0  0  0  0  0  0  0  0  0  0
   -9.6809   -8.3683   -6.4220 C   0  0  2  0  0  0  0  0  0  0  0  0
  -11.0731   -8.6112   -6.4873 O   0  0  0  0  0  0  0  0  0  0  0  0
   -8.9152   -9.5438   -7.0626 C   0  0  2  0  0  0  0  0  0  0  0  0
   -7.5088   -9.4181   -6.8546 O   0  0  0  0  0  0  0  0  0  0  0  0
   -9.2195   -9.5473   -8.5728 C   0  0  0  0  0  0  0  0  0  0  0  0
   -8.6820   -8.3756   -9.2426 O   0  0  0  0  0  0  0  0  0  0  0  0
   -4.6580  -13.7248   -3.8109 C   0  0  2  0  0  0  0  0  0  0  0  0
   -3.3185  -14.3003   -3.5767 N   0  0  0  0  0  0  0  0  0  0  0  0
   -4.7557  -13.1657   -5.2325 C   0  0  0  0  0  0  0  0  0  0  0  0
   -6.0834  -12.4456   -5.4362 C   0  0  2  0  0  0  0  0  0  0  0  0
   -6.2094  -11.9989   -6.8292 N   0  0  0  0  0  0  0  0  0  0  0  0
   -6.1573  -11.2652   -4.4399 C   0  0  2  0  0  0  0  0  0  0  0  0
   -6.2240  -11.8198   -3.0530 C   0  0  2  0  0  0  0  0  0  0  0  0
   -6.3332  -10.7258   -2.1609 O   0  0  0  0  0  0  0  0  0  0  0  0
   -4.9772  -12.6360   -2.7693 C   0  0  1  0  0  0  0  0  0  0  0  0
   -5.0252  -13.2553   -1.4977 O   0  0  0  0  0  0  0  0  0  0  0  0
   -5.1690  -10.3422   -1.4366 C   0  0  1  0  0  0  0  0  0  0  0  0
   -5.4650   -9.0079   -0.7486 C   0  0  2  0  0  0  0  0  0  0  0  0
   -4.2929   -8.2149   -0.7413 O   0  0  0  0  0  0  0  0  0  0  0  0
   -5.8958   -9.4490    0.6568 C   0  0  2  0  0  0  0  0  0  0  0  0
   -5.7655   -8.4097    1.6272 O   0  0  0  0  0  0  0  0  0  0  0  0
   -4.9546  -10.6426    0.8608 C   0  0  2  0  0  0  0  0  0  0  0  0
   -4.9149  -11.2871   -0.4047 O   0  0  0  0  0  0  0  0  0  0  0  0
   -5.4275  -11.6483    1.9170 C   0  0  0  0  0  0  0  0  0  0  0  0
   -6.6974  -12.1772    1.5997 O   0  0  0  0  0  0  0  0  0  0  0  0
   -6.7097   -7.3493    1.4928 C   0  0  2  0  0  0  0  0  0  0  0  0
   -6.2864   -6.1042    2.2870 C   0  0  2  0  0  0  0  0  0  0  0  0
   -4.9339   -5.6684    1.9009 N   0  0  0  0  0  0  0  0  0  0  0  0
   -6.3872   -6.3509    3.7998 C   0  0  1  0  0  0  0  0  0  0  0  0
   -6.0701   -5.1492    4.4753 O   0  0  0  0  0  0  0  0  0  0  0  0
   -7.8275   -6.7796    4.1277 C   0  0  2  0  0  0  0  0  0  0  0  0
   -7.9645   -7.0620    5.5082 O   0  0  0  0  0  0  0  0  0  0  0  0
   -8.2464   -8.0009    3.2836 C   0  0  1  0  0  0  0  0  0  0  0  0
   -8.0089   -7.7810    1.8913 O   0  0  0  0  0  0  0  0  0  0  0  0
   -7.6261   -9.3189    3.7702 C   0  0  0  0  0  0  0  0  0  0  0  0
   -8.1965  -10.4746    3.0594 N   0  0  0  0  0  0  0  0  0  0  0  0
  1  3  1  0  0  0  0
  1  2  1  1  0  0  0
  3  4  1  1  0  0  0
  5  6  1  6  0  0  0
  5  3  1  0  0  0  0
  7  9  1  0  0  0  0
  7  5  1  0  0  0  0
  7  8  1  1  0  0  0
  9 10  1  0  0  0  0
  9 11  1  6  0  0  0
 10  1  1  0  0  0  0
 11 12  1  0  0  0  0
 13 14  1  1  0  0  0
 13 21  1  0  0  0  0
 15 13  1  0  0  0  0
 16 15  1  0  0  0  0
 16 18  1  0  0  0  0
 16 17  1  6  0  0  0
 18  2  1  6  0  0  0
 18 19  1  0  0  0  0
 19 21  1  0  0  0  0
 19 20  1  1  0  0  0
 21 22  1  1  0  0  0
 23 20  1  1  0  0  0
 23 29  1  0  0  0  0
 23 24  1  0  0  0  0
 24 26  1  0  0  0  0
 24 25  1  1  0  0  0
 26 27  1  1  0  0  0
 28 26  1  0  0  0  0
 28 30  1  1  0  0  0
 29 28  1  0  0  0  0
 30 31  1  0  0  0  0
 32 27  1  1  0  0  0
 32 40  1  0  0  0  0
 32 33  1  0  0  0  0
 33 35  1  0  0  0  0
 33 34  1  1  0  0  0
 35 37  1  0  0  0  0
 35 36  1  1  0  0  0
 37 38  1  1  0  0  0
 39 37  1  0  0  0  0
 39 41  1  1  0  0  0
 40 39  1  0  0  0  0
 42 41  1  0  0  0  0
M  END
>  <CHROM.1>
-100.28024062,-129.68355081,-44.39433450,-67.07034004,174.64762464,63.14401577
66.09483444,-167.28774877,128.63734361,-103.37053773,169.96215162,61.44652106
171.61592088,70.79491312,-164.07214782,58.50337038,176.00904324,-174.01342899
-71.55627034,168.15950804,172.05345213,-46.80517038,-6.76910245,-9.54172179
-1.71115573,1.73444414,0.95506463,-1.95781618

>  <Name>
lig.pdb

>  <RI>
3.31443e+07

>  <Rbt.Current_Directory>
/home/itssahil/PROJECTS/Mol_Feturizer/New_Systems/rnas/2mxs

>  <Rbt.Executable>
rbdock ($Id: //depot/dev/client3/rdock/2013.1/src/exe/rbdock.cxx#4 $)

>  <Rbt.Library>
libRbt.so (2013.1, Build901 2013/11/27)

>  <Rbt.Parameter_File>
/export/apps/rDock/src/rDock_2013.1_src/data/scripts/dock_solv.prm

>  <Rbt.Receptor>
prm/blind_docking_40.prm

>  <SCORE>
20.9527

>  <SCORE.INTER>
-14.2902

>  <SCORE.INTER.CONST>
1

>  <SCORE.INTER.POLAR>
-3.42196

>  <SCORE.INTER.ROT>
9

>  <SCORE.INTER.SOLV>
25.3983

>  <SCORE.INTER.VDW>
-16.1864

>  <SCORE.INTER.norm>
-0.340244

>  <SCORE.INTRA>
5.00562

>  <SCORE.INTRA.DIHEDRAL>
-1.62325

>  <SCORE.INTRA.DIHEDRAL.0>
30.1357

>  <SCORE.INTRA.POLAR>
-0.862993

>  <SCORE.INTRA.POLAR.0>
-0.631696

>  <SCORE.INTRA.REPUL>
0

>  <SCORE.INTRA.REPUL.0>
0

>  <SCORE.INTRA.SOLV>
1.89285

>  <SCORE.INTRA.SOLV.lig_0>
-55.904

>  <SCORE.INTRA.VDW>
7.805

>  <SCORE.INTRA.VDW.0>
-8.21197

>  <SCORE.INTRA.norm>
0.119182

>  <SCORE.RESTR>
30.2373

>  <SCORE.RESTR.CAVITY>
30.2373

>  <SCORE.RESTR.norm>
0.719936

>  <SCORE.SYSTEM>
0

>  <SCORE.SYSTEM.CONST>
0

>  <SCORE.SYSTEM.DIHEDRAL>
0

>  <SCORE.SYSTEM.SOLV>
0

>  <SCORE.SYSTEM.norm>
0

>  <SCORE.heavy>
42

>  <SCORE.norm>
0.498874

>  <RMSD>
15.660

$$$$
lig.pdb
 OpenBabel11021811453D
libRbt.so/2013.1/901 2013/11/27
 42 45  0  0  0  0  0  0  0  0999 V2000
   -7.4812   -9.3950   -2.8195 C   0  0  2  0  0  0  0  0  0  0  0  0
   -7.7110  -10.7872   -3.0436 O   0  0  0  0  0  0  0  0  0  0  0  0
   -8.6038   -8.5486   -3.4385 C   0  0  2  0  0  0  0  0  0  0  0  0
   -9.9248   -8.9789   -2.9445 N   0  0  0  0  0  0  0  0  0  0  0  0
   -8.5467   -8.5956   -4.9709 C   0  0  1  0  0  0  0  0  0  0  0  0
   -9.4928   -7.6889   -5.5041 O   0  0  0  0  0  0  0  0  0  0  0  0
   -7.1425   -8.2138   -5.4630 C   0  0  2  0  0  0  0  0  0  0  0  0
   -7.0651   -8.4157   -6.8611 O   0  0  0  0  0  0  0  0  0  0  0  0
   -6.0506   -9.0412   -4.7548 C   0  0  2  0  0  0  0  0  0  0  0  0
   -6.2123   -9.0031   -3.3373 O   0  0  0  0  0  0  0  0  0  0  0  0
   -4.6795   -8.4527   -5.1381 C   0  0  0  0  0  0  0  0  0  0  0  0
   -4.6155   -7.0194   -4.9100 O   0  0  0  0  0  0  0  0  0  0  0  0
   -4.7193  -13.6908   -4.1160 C   0  0  2  0  0  0  0  0  0  0  0  0
   -3.7193  -14.2629   -5.0396 N   0  0  0  0  0  0  0  0  0  0  0  0
   -6.1066  -13.6987   -4.7628 C   0  0  0  0  0  0  0  0  0  0  0  0
   -7.1173  -12.9830   -3.8744 C   0  0  2  0  0  0  0  0  0  0  0  0
   -8.4621  -13.0812   -4.4555 N   0  0  0  0  0  0  0  0  0  0  0  0
   -6.6650  -11.5140   -3.7046 C   0  0  2  0  0  0  0  0  0  0  0  0
   -5.3863  -11.4989   -2.9299 C   0  0  2  0  0  0  0  0  0  0  0  0
   -5.0124  -10.1452   -2.7499 O   0  0  0  0  0  0  0  0  0  0  0  0
   -4.3203  -12.2655   -3.6897 C   0  0  1  0  0  0  0  0  0  0  0  0
   -3.1097  -12.3551   -2.9620 O   0  0  0  0  0  0  0  0  0  0  0  0
   -4.1805   -9.8293   -1.6386 C   0  0  1  0  0  0  0  0  0  0  0  0
   -5.0367   -9.0885   -0.6093 C   0  0  2  0  0  0  0  0  0  0  0  0
   -4.2512   -8.0984    0.0274 O   0  0  0  0  0  0  0  0  0  0  0  0
   -5.4607  -10.2162    0.3412 C   0  0  2  0  0  0  0  0  0  0  0  0
   -5.8544   -9.7371    1.6273 O   0  0  0  0  0  0  0  0  0  0  0  0
   -4.1834  -11.0650    0.3331 C   0  0  2  0  0  0  0  0  0  0  0  0
   -3.7386  -11.0288   -1.0157 O   0  0  0  0  0  0  0  0  0  0  0  0
   -4.3913  -12.5256    0.7498 C   0  0  0  0  0  0  0  0  0  0  0  0
   -4.0717  -13.4160   -0.2981 O   0  0  0  0  0  0  0  0  0  0  0  0
   -6.5679  -10.6831    2.4212 C   0  0  2  0  0  0  0  0  0  0  0  0
   -7.8374  -11.1803    1.7130 C   0  0  2  0  0  0  0  0  0  0  0  0
   -7.5181  -11.7293    0.3846 N   0  0  0  0  0  0  0  0  0  0  0  0
   -8.8935  -10.0685    1.6230 C   0  0  1  0  0  0  0  0  0  0  0  0
  -10.0662  -10.6057    1.0425 O   0  0  0  0  0  0  0  0  0  0  0  0
   -9.1893   -9.5625    3.0451 C   0  0  2  0  0  0  0  0  0  0  0  0
  -10.1284   -8.5035    3.0152 O   0  0  0  0  0  0  0  0  0  0  0  0
   -7.8940   -9.1144    3.7530 C   0  0  1  0  0  0  0  0  0  0  0  0
   -6.8884  -10.1286    3.6951 O   0  0  0  0  0  0  0  0  0  0  0  0
   -7.3694   -7.7575    3.2606 C   0  0  0  0  0  0  0  0  0  0  0  0
   -7.6615   -6.6869    4.2273 N   0  0  0  0  0  0  0  0  0  0  0  0
  1  3  1  0  0  0  0
  1  2  1  6  0  0  0
  3  4  1  1  0  0  0
  5  6  1  6  0  0  0
  5  3  1  0  0  0  0
  7  9  1  0  0  0  0
  7  5  1  0  0  0  0
  7  8  1  6  0  0  0
  9 10  1  0  0  0  0
  9 11  1  1  0  0  0
 10  1  1  0  0  0  0
 11 12  1  0  0  0  0
 13 14  1  6  0  0  0
 13 21  1  0  0  0  0
 15 13  1  0  0  0  0
 16 15  1  0  0  0  0
 16 18  1  0  0  0  0
 16 17  1  6  0  0  0
 18  2  1  1  0  0  0
 18 19  1  0  0  0  0
 19 21  1  0  0  0  0
 19 20  1  6  0  0  0
 21 22  1  1  0  0  0
 23 20  1  6  0  0  0
 23 29  1  0  0  0  0
 23 24  1  0  0  0  0
 24 26  1  0  0  0  0
 24 25  1  1  0  0  0
 26 27  1  1  0  0  0
 28 26  1  0  0  0  0
 28 30  1  6  0  0  0
 29 28  1  0  0  0  0
 30 31  1  0  0  0  0
 32 27  1  6  0  0  0
 32 40  1  0  0  0  0
 32 33  1  0  0  0  0
 33 35  1  0  0  0  0
 33 34  1  6  0  0  0
 35 37  1  0  0  0  0
 35 36  1  1  0  0  0
 37 38  1  6  0  0  0
 39 37  1  0  0  0  0
 39 41  1  6  0  0  0
 40 39  1  0  0  0  0
 42 41  1  0  0  0  0
M  END
>  <CHROM.1>
-178.91668739,123.94216098,-22.40896950,61.59958247,172.04502884,-179.29682747
51.89127623,-164.61787553,-169.16180034,155.21807781,-107.85323868,-73.75506170
177.94121581,164.85471337,-57.71643087,117.38012835,-166.00758670,162.05661215
-59.98970765,-50.76082379,103.64164029,164.07027743,-6.51979810,-10.23563009
-1.52829641,1.24300677,0.79666227,-1.52220802

>  <Name>
lig.pdb

>  <RI>
3.31443e+07

>  <Rbt.Current_Directory>
/home/itssahil/PROJECTS/Mol_Feturizer/New_Systems/rnas/2mxs

>  <Rbt.Executable>
rbdock ($Id: //depot/dev/client3/rdock/2013.1/src/exe/rbdock.cxx#4 $)

>  <Rbt.Library>
libRbt.so (2013.1, Build901 2013/11/27)

>  <Rbt.Parameter_File>
/export/apps/rDock/src/rDock_2013.1_src/data/scripts/dock_solv.prm

>  <Rbt.Receptor>
prm/blind_docking_40.prm

>  <SCORE>
56.0641

>  <SCORE.INTER>
-4.79632

>  <SCORE.INTER.CONST>
1

>  <SCORE.INTER.POLAR>
-1.88397

>  <SCORE.INTER.ROT>
9

>  <SCORE.INTER.SOLV>
28.6804

>  <SCORE.INTER.VDW>
-16.0778

>  <SCORE.INTER.norm>
-0.114198

>  <SCORE.INTRA>
33.2212

>  <SCORE.INTRA.DIHEDRAL>
4.57531

>  <SCORE.INTRA.DIHEDRAL.0>
30.1357

>  <SCORE.INTRA.POLAR>
-0.528809

>  <SCORE.INTRA.POLAR.0>
-0.631696

>  <SCORE.INTRA.REPUL>
0.0479765

>  <SCORE.INTRA.REPUL.0>
0

>  <SCORE.INTRA.SOLV>
2.32935

>  <SCORE.INTRA.SOLV.lig_0>
-55.904

>  <SCORE.INTRA.VDW>
31.3269

>  <SCORE.INTRA.VDW.0>
-8.21197

>  <SCORE.INTRA.norm>
0.790981

>  <SCORE.RESTR>
27.6392

>  <SCORE.RESTR.CAVITY>
27.6392

>  <SCORE.RESTR.norm>
0.658077

>  <SCORE.SYSTEM>
0

>  <SCORE.SYSTEM.CONST>
0

>  <SCORE.SYSTEM.DIHEDRAL>
0

>  <SCORE.SYSTEM.SOLV>
0

>  <SCORE.SYSTEM.norm>
0

>  <SCORE.heavy>
42

>  <SCORE.norm>
1.33486

>  <RMSD>
15.980

$$$$
lig.pdb
 OpenBabel11021811453D
libRbt.so/2013.1/901 2013/11/27
 42 45  0  0  0  0  0  0  0  0999 V2000
   -5.8968  -10.2539   -3.3490 C   0  0  2  0  0  0  0  0  0  0  0  0
   -5.7661  -11.4035   -4.1874 O   0  0  0  0  0  0  0  0  0  0  0  0
   -7.3722   -9.8566   -3.1913 C   0  0  2  0  0  0  0  0  0  0  0  0
   -8.1768  -10.9923   -2.7043 N   0  0  0  0  0  0  0  0  0  0  0  0
   -7.9370   -9.3056   -4.5070 C   0  0  1  0  0  0  0  0  0  0  0  0
   -9.2436   -8.8102   -4.2862 O   0  0  0  0  0  0  0  0  0  0  0  0
   -7.0453   -8.1717   -5.0353 C   0  0  2  0  0  0  0  0  0  0  0  0
   -7.4908   -7.7859   -6.3214 O   0  0  0  0  0  0  0  0  0  0  0  0
   -5.5654   -8.6005   -5.1022 C   0  0  2  0  0  0  0  0  0  0  0  0
   -5.1351   -9.1646   -3.8638 O   0  0  0  0  0  0  0  0  0  0  0  0
   -4.7201   -7.3545   -5.4280 C   0  0  0  0  0  0  0  0  0  0  0  0
   -4.8609   -6.3181   -4.4199 O   0  0  0  0  0  0  0  0  0  0  0  0
   -2.9248  -14.4742   -3.1731 C   0  0  2  0  0  0  0  0  0  0  0  0
   -1.5846  -15.0912   -3.2315 N   0  0  0  0  0  0  0  0  0  0  0  0
   -3.5275  -14.3773   -4.5768 C   0  0  0  0  0  0  0  0  0  0  0  0
   -4.8471  -13.6155   -4.5431 C   0  0  2  0  0  0  0  0  0  0  0  0
   -5.4651  -13.6129   -5.8750 N   0  0  0  0  0  0  0  0  0  0  0  0
   -4.5719  -12.1833   -4.0288 C   0  0  2  0  0  0  0  0  0  0  0  0
   -4.1351  -12.2686   -2.6014 C   0  0  2  0  0  0  0  0  0  0  0  0
   -3.9292  -10.9466   -2.1385 O   0  0  0  0  0  0  0  0  0  0  0  0
   -2.8617  -13.0875   -2.5056 C   0  0  1  0  0  0  0  0  0  0  0  0
   -2.4480  -13.2718   -1.1647 O   0  0  0  0  0  0  0  0  0  0  0  0
   -3.8512  -10.7412   -0.7319 C   0  0  1  0  0  0  0  0  0  0  0  0
   -5.1466  -10.0592   -0.2865 C   0  0  2  0  0  0  0  0  0  0  0  0
   -4.8598   -9.1438    0.7540 O   0  0  0  0  0  0  0  0  0  0  0  0
   -6.0009  -11.2452    0.1808 C   0  0  2  0  0  0  0  0  0  0  0  0
   -7.0460  -10.8569    1.0729 O   0  0  0  0  0  0  0  0  0  0  0  0
   -4.9129  -12.1259    0.8076 C   0  0  2  0  0  0  0  0  0  0  0  0
   -3.8009  -11.9974   -0.0673 O   0  0  0  0  0  0  0  0  0  0  0  0
   -5.2870  -13.6082    0.9229 C   0  0  0  0  0  0  0  0  0  0  0  0
   -5.2301  -14.2579   -0.3292 O   0  0  0  0  0  0  0  0  0  0  0  0
   -6.7103   -9.7838    1.9504 C   0  0  2  0  0  0  0  0  0  0  0  0
   -7.3250   -9.9738    3.3454 C   0  0  2  0  0  0  0  0  0  0  0  0
   -6.9386  -11.2740    3.9182 N   0  0  0  0  0  0  0  0  0  0  0  0
   -8.8517   -9.8082    3.3057 C   0  0  1  0  0  0  0  0  0  0  0  0
   -9.3510   -9.9072    4.6254 O   0  0  0  0  0  0  0  0  0  0  0  0
   -9.1756   -8.4239    2.7185 C   0  0  2  0  0  0  0  0  0  0  0  0
  -10.5754   -8.2365    2.6195 O   0  0  0  0  0  0  0  0  0  0  0  0
   -8.5082   -8.2383    1.3402 C   0  0  1  0  0  0  0  0  0  0  0  0
   -7.1107   -8.5347    1.3913 O   0  0  0  0  0  0  0  0  0  0  0  0
   -9.2162   -9.0043    0.2129 C   0  0  0  0  0  0  0  0  0  0  0  0
  -10.4901   -8.3641   -0.1524 N   0  0  0  0  0  0  0  0  0  0  0  0
  1  3  1  0  0  0  0
  1  2  1  6  0  0  0
  3  4  1  6  0  0  0
  5  6  1  1  0  0  0
  5  3  1  0  0  0  0
  7  9  1  0  0  0  0
  7  5  1  0  0  0  0
  7  8  1  6  0  0  0
  9 10  1  0  0  0  0
  9 11  1  1  0  0  0
 10  1  1  0  0  0  0
 11 12  1  0  0  0  0
 13 14  1  6  0  0  0
 13 21  1  0  0  0  0
 15 13  1  0  0  0  0
 16 15  1  0  0  0  0
 16 18  1  0  0  0  0
 16 17  1  6  0  0  0
 18  2  1  1  0  0  0
 18 19  1  0  0  0  0
 19 21  1  0  0  0  0
 19 20  1  6  0  0  0
 21 22  1  1  0  0  0
 23 20  1  6  0  0  0
 23 29  1  0  0  0  0
 23 24  1  0  0  0  0
 24 26  1  0  0  0  0
 24 25  1  1  0  0  0
 26 27  1  1  0  0  0
 28 26  1  0  0  0  0
 28 30  1  6  0  0  0
 29 28  1  0  0  0  0
 30 31  1  0  0  0  0
 32 27  1  6  0  0  0
 32 40  1  0  0  0  0
 32 33  1  0  0  0  0
 33 35  1  0  0  0  0
 33 34  1  6  0  0  0
 35 37  1  0  0  0  0
 35 36  1  1  0  0  0
 37 38  1  6  0  0  0
 39 37  1  0  0  0  0
 39 41  1  6  0  0  0
 40 39  1  0  0  0  0
 42 41  1  0  0  0  0
M  END
>  <CHROM.1>
157.22025501,-156.99386081,174.29130151,-163.22516498,53.36228467,53.30377895
60.10677778,-52.65379998,63.53393753,163.88803867,-106.96929383,-174.51793106
-56.76742033,-34.97166054,-142.74443214,74.82411349,66.19234416,-58.85309143
165.15822894,-33.18612423,73.36296853,82.98837513,-6.12337352,-10.62605593
-1.38792164,0.70697552,0.81899786,-1.26085187

>  <Name>
lig.pdb

>  <RI>
3.31443e+07

>  <Rbt.Current_Directory>
/home/itssahil/PROJECTS/Mol_Feturizer/New_Systems/rnas/2mxs

>  <Rbt.Executable>
rbdock ($Id: //depot/dev/client3/rdock/2013.1/src/exe/rbdock.cxx#4 $)

>  <Rbt.Library>
libRbt.so (2013.1, Build901 2013/11/27)

>  <Rbt.Parameter_File>
/export/apps/rDock/src/rDock_2013.1_src/data/scripts/dock_solv.prm

>  <Rbt.Receptor>
prm/blind_docking_40.prm

>  <SCORE>
59.5986

>  <SCORE.INTER>
0.782206

>  <SCORE.INTER.CONST>
1

>  <SCORE.INTER.POLAR>
-1.59713

>  <SCORE.INTER.ROT>
9

>  <SCORE.INTER.SOLV>
26.9219

>  <SCORE.INTER.VDW>
-12.7287

>  <SCORE.INTER.norm>
0.0186239

>  <SCORE.INTRA>
23.6681

>  <SCORE.INTRA.DIHEDRAL>
-0.925901

>  <SCORE.INTRA.DIHEDRAL.0>
30.1357

>  <SCORE.INTRA.POLAR>
-0.427414

>  <SCORE.INTRA.POLAR.0>
-0.631696

>  <SCORE.INTRA.REPUL>
0

>  <SCORE.INTRA.REPUL.0>
0

>  <SCORE.INTRA.SOLV>
3.29521

>  <SCORE.INTRA.SOLV.lig_0>
-55.904

>  <SCORE.INTRA.VDW>
23.9367

>  <SCORE.INTRA.VDW.0>
-8.21197

>  <SCORE.INTRA.norm>
0.563527

>  <SCORE.RESTR>
35.1482

>  <SCORE.RESTR.CAVITY>
35.1482

>  <SCORE.RESTR.norm>
0.836863

>  <SCORE.SYSTEM>
0

>  <SCORE.SYSTEM.CONST>
0

>  <SCORE.SYSTEM.DIHEDRAL>
0

>  <SCORE.SYSTEM.SOLV>
0

>  <SCORE.SYSTEM.norm>
0

>  <SCORE.heavy>
42

>  <SCORE.norm>
1.41901

>  <RMSD>
16.172

$$$$
lig.pdb
 OpenBabel11021811453D
libRbt.so/2013.1/901 2013/11/27
 42 45  0  0  0  0  0  0  0  0999 V2000
   -8.0194   -8.0249   -5.4316 C   0  0  2  0  0  0  0  0  0  0  0  0
   -7.8644   -9.2887   -4.7832 O   0  0  0  0  0  0  0  0  0  0  0  0
   -9.5006   -7.6242   -5.5022 C   0  0  2  0  0  0  0  0  0  0  0  0
  -10.1172   -7.6393   -4.1627 N   0  0  0  0  0  0  0  0  0  0  0  0
  -10.2697   -8.5297   -6.4728 C   0  0  1  0  0  0  0  0  0  0  0  0
  -11.5874   -8.0390   -6.6287 O   0  0  0  0  0  0  0  0  0  0  0  0
   -9.5717   -8.5574   -7.8410 C   0  0  2  0  0  0  0  0  0  0  0  0
  -10.2019   -9.5158   -8.6691 O   0  0  0  0  0  0  0  0  0  0  0  0
   -8.0722   -8.8908   -7.7042 C   0  0  2  0  0  0  0  0  0  0  0  0
   -7.4435   -8.0526   -6.7352 O   0  0  0  0  0  0  0  0  0  0  0  0
   -7.4085   -8.6851   -9.0792 C   0  0  0  0  0  0  0  0  0  0  0  0
   -8.0082   -7.5875   -9.8182 O   0  0  0  0  0  0  0  0  0  0  0  0
   -5.2872  -12.6474   -5.5628 C   0  0  2  0  0  0  0  0  0  0  0  0
   -4.2771  -13.3665   -6.3647 N   0  0  0  0  0  0  0  0  0  0  0  0
   -6.5486  -12.4000   -6.3941 C   0  0  0  0  0  0  0  0  0  0  0  0
   -7.5396  -11.5370   -5.6220 C   0  0  2  0  0  0  0  0  0  0  0  0
   -8.7842  -11.3872   -6.3864 N   0  0  0  0  0  0  0  0  0  0  0  0
   -6.8733  -10.1733   -5.3259 C   0  0  2  0  0  0  0  0  0  0  0  0
   -5.7350  -10.3974   -4.3827 C   0  0  2  0  0  0  0  0  0  0  0  0
   -5.1663   -9.1337   -4.0925 O   0  0  0  0  0  0  0  0  0  0  0  0
   -4.7171  -11.3227   -5.0222 C   0  0  1  0  0  0  0  0  0  0  0  0
   -3.6563  -11.6370   -4.1396 O   0  0  0  0  0  0  0  0  0  0  0  0
   -4.6205   -8.9350   -2.7927 C   0  0  1  0  0  0  0  0  0  0  0  0
   -5.7857   -8.8469   -1.8049 C   0  0  2  0  0  0  0  0  0  0  0  0
   -5.4712   -7.9094   -0.7924 O   0  0  0  0  0  0  0  0  0  0  0  0
   -5.8815  -10.2849   -1.2776 C   0  0  2  0  0  0  0  0  0  0  0  0
   -6.5512  -10.3695   -0.0194 O   0  0  0  0  0  0  0  0  0  0  0  0
   -4.3935  -10.6545   -1.2416 C   0  0  2  0  0  0  0  0  0  0  0  0
   -3.8516  -10.0710   -2.4181 O   0  0  0  0  0  0  0  0  0  0  0  0
   -4.1151  -12.1621   -1.2598 C   0  0  0  0  0  0  0  0  0  0  0  0
   -2.9075  -12.4599   -1.9276 O   0  0  0  0  0  0  0  0  0  0  0  0
   -5.8410   -9.7880    1.0722 C   0  0  2  0  0  0  0  0  0  0  0  0
   -5.8508  -10.6988    2.3093 C   0  0  2  0  0  0  0  0  0  0  0  0
   -5.3280  -12.0359    1.9825 N   0  0  0  0  0  0  0  0  0  0  0  0
   -7.2548  -10.7795    2.9272 C   0  0  1  0  0  0  0  0  0  0  0  0
   -7.1851  -11.5578    4.1063 O   0  0  0  0  0  0  0  0  0  0  0  0
   -7.7223   -9.3525    3.2603 C   0  0  2  0  0  0  0  0  0  0  0  0
   -9.0332   -9.3665    3.7949 O   0  0  0  0  0  0  0  0  0  0  0  0
   -7.6579   -8.4449    2.0147 C   0  0  1  0  0  0  0  0  0  0  0  0
   -6.3735   -8.5040    1.3901 O   0  0  0  0  0  0  0  0  0  0  0  0
   -8.7946   -8.7022    1.0145 C   0  0  0  0  0  0  0  0  0  0  0  0
   -9.1979   -7.4628    0.3307 N   0  0  0  0  0  0  0  0  0  0  0  0
  1  3  1  0  0  0  0
  1  2  1  6  0  0  0
  3  4  1  1  0  0  0
  5  6  1  6  0  0  0
  5  3  1  0  0  0  0
  7  9  1  0  0  0  0
  7  5  1  0  0  0  0
  7  8  1  6  0  0  0
  9 10  1  0  0  0  0
  9 11  1  6  0  0  0
 10  1  1  0  0  0  0
 11 12  1  0  0  0  0
 13 14  1  6  0  0  0
 13 21  1  0  0  0  0
 15 13  1  0  0  0  0
 16 15  1  0  0  0  0
 16 18  1  0  0  0  0
 16 17  1  6  0  0  0
 18  2  1  1  0  0  0
 18 19  1  0  0  0  0
 19 21  1  0  0  0  0
 19 20  1  6  0  0  0
 21 22  1  1  0  0  0
 23 20  1  6  0  0  0
 23 29  1  0  0  0  0
 23 24  1  0  0  0  0
 24 26  1  0  0  0  0
 24 25  1  1  0  0  0
 26 27  1  1  0  0  0
 28 26  1  0  0  0  0
 28 30  1  6  0  0  0
 29 28  1  0  0  0  0
 30 31  1  0  0  0  0
 32 27  1  6  0  0  0
 32 40  1  0  0  0  0
 32 33  1  0  0  0  0
 33 35  1  0  0  0  0
 33 34  1  6  0  0  0
 35 37  1  0  0  0  0
 35 36  1  1  0  0  0
 37 38  1  6  0  0  0
 39 37  1  0  0  0  0
 39 41  1  6  0  0  0
 40 39  1  0  0  0  0
 42 41  1  0  0  0  0
M  END
>  <CHROM.1>
-126.46402696,141.06837951,-178.04541564,62.29251855,67.07882471,-60.02293070
34.31897434,-50.82099989,-163.99304195,146.85752129,-71.70314268,69.30026287
-179.45674741,-68.16312203,-134.62624631,147.94142433,-175.62462928,-157.50007902
96.27975602,-175.25652715,146.71834202,-49.65423393,-6.93582499,-9.82895610
-2.98720873,1.79454927,0.60914016,-1.61096793

>  <Name>
lig.pdb

>  <RI>
3.31443e+07

>  <Rbt.Current_Directory>
/home/itssahil/PROJECTS/Mol_Feturizer/New_Systems/rnas/2mxs

>  <Rbt.Executable>
rbdock ($Id: //depot/dev/client3/rdock/2013.1/src/exe/rbdock.cxx#4 $)

>  <Rbt.Library>
libRbt.so (2013.1, Build901 2013/11/27)

>  <Rbt.Parameter_File>
/export/apps/rDock/src/rDock_2013.1_src/data/scripts/dock_solv.prm

>  <Rbt.Receptor>
prm/blind_docking_40.prm

>  <SCORE>
17.7559

>  <SCORE.INTER>
-21.0945

>  <SCORE.INTER.CONST>
1

>  <SCORE.INTER.POLAR>
-3.60261

>  <SCORE.INTER.ROT>
9

>  <SCORE.INTER.SOLV>
29.0872

>  <SCORE.INTER.VDW>
-21.3501

>  <SCORE.INTER.norm>
-0.502251

>  <SCORE.INTRA>
16.8287

>  <SCORE.INTRA.DIHEDRAL>
9.89972

>  <SCORE.INTRA.DIHEDRAL.0>
30.1357

>  <SCORE.INTRA.POLAR>
-0.0594104

>  <SCORE.INTRA.POLAR.0>
-0.631696

>  <SCORE.INTRA.REPUL>
0.223284

>  <SCORE.INTRA.REPUL.0>
0

>  <SCORE.INTRA.SOLV>
3.47198

>  <SCORE.INTRA.SOLV.lig_0>
-55.904

>  <SCORE.INTRA.VDW>
9.22846

>  <SCORE.INTRA.VDW.0>
-8.21197

>  <SCORE.INTRA.norm>
0.400684

>  <SCORE.RESTR>
22.0217

>  <SCORE.RESTR.CAVITY>
22.0217

>  <SCORE.RESTR.norm>
0.524327

>  <SCORE.SYSTEM>
0

>  <SCORE.SYSTEM.CONST>
0

>  <SCORE.SYSTEM.DIHEDRAL>
0

>  <SCORE.SYSTEM.SOLV>
0

>  <SCORE.SYSTEM.norm>
0

>  <SCORE.heavy>
42

>  <SCORE.norm>
0.422761

>  <RMSD>
16.296

$$$$
lig.pdb
 OpenBabel11021811453D
libRbt.so/2013.1/901 2013/11/27
 42 45  0  0  0  0  0  0  0  0999 V2000
   -7.9719   -8.1502   -5.3259 C   0  0  2  0  0  0  0  0  0  0  0  0
   -7.8771   -9.4255   -4.6887 O   0  0  0  0  0  0  0  0  0  0  0  0
   -9.4346   -7.6890   -5.4123 C   0  0  2  0  0  0  0  0  0  0  0  0
  -10.0699   -7.6924   -4.0816 N   0  0  0  0  0  0  0  0  0  0  0  0
  -10.2260   -8.5530   -6.4027 C   0  0  1  0  0  0  0  0  0  0  0  0
  -11.5206   -8.0078   -6.5713 O   0  0  0  0  0  0  0  0  0  0  0  0
   -9.5107   -8.5954   -7.7615 C   0  0  2  0  0  0  0  0  0  0  0  0
  -10.1675   -9.5193   -8.6080 O   0  0  0  0  0  0  0  0  0  0  0  0
   -8.0280   -8.9907   -7.6080 C   0  0  2  0  0  0  0  0  0  0  0  0
   -7.3794   -8.1883   -6.6218 O   0  0  0  0  0  0  0  0  0  0  0  0
   -7.3374   -8.7985   -8.9716 C   0  0  0  0  0  0  0  0  0  0  0  0
   -7.9658   -9.5842  -10.0194 O   0  0  0  0  0  0  0  0  0  0  0  0
   -5.3085  -12.8096   -5.3820 C   0  0  2  0  0  0  0  0  0  0  0  0
   -4.3880  -13.6077   -6.2164 N   0  0  0  0  0  0  0  0  0  0  0  0
   -6.6762  -12.6943   -6.0596 C   0  0  0  0  0  0  0  0  0  0  0  0
   -7.5867  -11.7570   -5.2752 C   0  0  2  0  0  0  0  0  0  0  0  0
   -8.9256  -11.7295   -5.8771 N   0  0  0  0  0  0  0  0  0  0  0  0
   -6.9356  -10.3547   -5.2451 C   0  0  2  0  0  0  0  0  0  0  0  0
   -5.6759  -10.4346   -4.4437 C   0  0  2  0  0  0  0  0  0  0  0  0
   -5.1187   -9.1340   -4.3937 O   0  0  0  0  0  0  0  0  0  0  0  0
   -4.7191  -11.4161   -5.0937 C   0  0  1  0  0  0  0  0  0  0  0  0
   -3.5409  -11.5948   -4.3301 O   0  0  0  0  0  0  0  0  0  0  0  0
   -4.3685   -8.7781   -3.2373 C   0  0  1  0  0  0  0  0  0  0  0  0
   -5.3568   -8.3292   -2.1588 C   0  0  2  0  0  0  0  0  0  0  0  0
   -4.7832   -7.2758   -1.4075 O   0  0  0  0  0  0  0  0  0  0  0  0
   -5.5534   -9.6101   -1.3367 C   0  0  2  0  0  0  0  0  0  0  0  0
   -6.0374   -9.3526   -0.0183 O   0  0  0  0  0  0  0  0  0  0  0  0
   -4.1340  -10.1874   -1.4006 C   0  0  2  0  0  0  0  0  0  0  0  0
   -3.7011   -9.9260   -2.7283 O   0  0  0  0  0  0  0  0  0  0  0  0
   -4.0517  -11.6956   -1.1380 C   0  0  0  0  0  0  0  0  0  0  0  0
   -3.4393  -11.9747    0.1031 O   0  0  0  0  0  0  0  0  0  0  0  0
   -6.0877  -10.4975    0.8306 C   0  0  2  0  0  0  0  0  0  0  0  0
   -7.3392  -11.3487    0.5670 C   0  0  2  0  0  0  0  0  0  0  0  0
   -7.4264  -11.7308   -0.8523 N   0  0  0  0  0  0  0  0  0  0  0  0
   -8.6108  -10.6242    1.0335 C   0  0  1  0  0  0  0  0  0  0  0  0
   -9.7162  -11.4866    0.8463 O   0  0  0  0  0  0  0  0  0  0  0  0
   -8.4543  -10.2783    2.5241 C   0  0  2  0  0  0  0  0  0  0  0  0
   -9.5851   -9.5686    2.9954 O   0  0  0  0  0  0  0  0  0  0  0  0
   -7.1666   -9.4654    2.7706 C   0  0  1  0  0  0  0  0  0  0  0  0
   -6.0244  -10.1091    2.2010 O   0  0  0  0  0  0  0  0  0  0  0  0
   -7.2785   -7.9988    2.3287 C   0  0  0  0  0  0  0  0  0  0  0  0
   -8.1478   -7.8591    1.1492 N   0  0  0  0  0  0  0  0  0  0  0  0
  1  3  1  0  0  0  0
  1  2  1  6  0  0  0
  3  4  1  1  0  0  0
  5  6  1  6  0  0  0
  5  3  1  0  0  0  0
  7  9  1  0  0  0  0
  7  5  1  0  0  0  0
  7  8  1  6  0  0  0
  9 10  1  0  0  0  0
  9 11  1  6  0  0  0
 10  1  1  0  0  0  0
 11 12  1  0  0  0  0
 13 14  1  6  0  0  0
 13 21  1  0  0  0  0
 15 13  1  0  0  0  0
 16 15  1  0  0  0  0
 16 18  1  0  0  0  0
 16 17  1  6  0  0  0
 18  2  1  1  0  0  0
 18 19  1  0  0  0  0
 19 21  1  0  0  0  0
 19 20  1  6  0  0  0
 21 22  1  1  0  0  0
 23 20  1  6  0  0  0
 23 29  1  0  0  0  0
 23 24  1  0  0  0  0
 24 26  1  0  0  0  0
 24 25  1  1  0  0  0
 26 27  1  1  0  0  0
 28 26  1  0  0  0  0
 28 30  1  6  0  0  0
 29 28  1  0  0  0  0
 30 31  1  0  0  0  0
 32 27  1  6  0  0  0
 32 40  1  0  0  0  0
 32 33  1  0  0  0  0
 33 35  1  0  0  0  0
 33 34  1  6  0  0  0
 35 37  1  0  0  0  0
 35 36  1  1  0  0  0
 37 38  1  6  0  0  0
 39 37  1  0  0  0  0
 39 41  1  6  0  0  0
 40 39  1  0  0  0  0
 42 41  1  0  0  0  0
M  END
>  <CHROM.1>
-138.03990124,139.76483900,72.21344513,-70.74679112,59.64329316,53.55453441
-58.01286379,-171.22408709,54.80356119,149.31243560,-83.04076714,-176.97494031
69.78766331,-173.09319539,-80.65973744,-109.82278469,60.38101087,-67.55608190
69.96228313,177.58885457,-33.19841651,58.13053030,-7.02167186,-9.92566422
-3.13000675,1.75060044,0.46358761,-1.60894894

>  <Name>
lig.pdb

>  <RI>
3.31443e+07

>  <Rbt.Current_Directory>
/home/itssahil/PROJECTS/Mol_Feturizer/New_Systems/rnas/2mxs

>  <Rbt.Executable>
rbdock ($Id: //depot/dev/client3/rdock/2013.1/src/exe/rbdock.cxx#4 $)

>  <Rbt.Library>
libRbt.so (2013.1, Build901 2013/11/27)

>  <Rbt.Parameter_File>
/export/apps/rDock/src/rDock_2013.1_src/data/scripts/dock_solv.prm

>  <Rbt.Receptor>
prm/blind_docking_40.prm

>  <SCORE>
26.1221

>  <SCORE.INTER>
-1.51262

>  <SCORE.INTER.CONST>
1

>  <SCORE.INTER.POLAR>
-1.34232

>  <SCORE.INTER.ROT>
9

>  <SCORE.INTER.SOLV>
24.5174

>  <SCORE.INTER.VDW>
-14.3065

>  <SCORE.INTER.norm>
-0.0360149

>  <SCORE.INTRA>
3.38115

>  <SCORE.INTRA.DIHEDRAL>
-0.580109

>  <SCORE.INTRA.DIHEDRAL.0>
30.1357

>  <SCORE.INTRA.POLAR>
-1.23766

>  <SCORE.INTRA.POLAR.0>
-0.631696

>  <SCORE.INTRA.REPUL>
0

>  <SCORE.INTRA.REPUL.0>
0

>  <SCORE.INTRA.SOLV>
2.55364

>  <SCORE.INTRA.SOLV.lig_0>
-55.904

>  <SCORE.INTRA.VDW>
6.60243

>  <SCORE.INTRA.VDW.0>
-8.21197

>  <SCORE.INTRA.norm>
0.0805036

>  <SCORE.RESTR>
24.2536

>  <SCORE.RESTR.CAVITY>
24.2536

>  <SCORE.RESTR.norm>
0.577467

>  <SCORE.SYSTEM>
0

>  <SCORE.SYSTEM.CONST>
0

>  <SCORE.SYSTEM.DIHEDRAL>
0

>  <SCORE.SYSTEM.SOLV>
0

>  <SCORE.SYSTEM.norm>
0

>  <SCORE.heavy>
42

>  <SCORE.norm>
0.621955

>  <RMSD>
16.475

$$$$
lig.pdb
 OpenBabel11021811453D
libRbt.so/2013.1/901 2013/11/27
 42 45  0  0  0  0  0  0  0  0999 V2000
   -9.3649   -9.1277   -6.4790 C   0  0  2  0  0  0  0  0  0  0  0  0
   -8.8159  -10.3720   -6.0411 O   0  0  0  0  0  0  0  0  0  0  0  0
  -10.7635   -9.3285   -7.0816 C   0  0  2  0  0  0  0  0  0  0  0  0
  -11.6533  -10.0238   -6.1333 N   0  0  0  0  0  0  0  0  0  0  0  0
  -10.6845  -10.0813   -8.4160 C   0  0  1  0  0  0  0  0  0  0  0  0
  -11.9664  -10.1135   -9.0137 O   0  0  0  0  0  0  0  0  0  0  0  0
   -9.6984   -9.3820   -9.3639 C   0  0  2  0  0  0  0  0  0  0  0  0
   -9.5202  -10.1744  -10.5222 O   0  0  0  0  0  0  0  0  0  0  0  0
   -8.3362   -9.1382   -8.6834 C   0  0  2  0  0  0  0  0  0  0  0  0
   -8.4985   -8.4967   -7.4188 O   0  0  0  0  0  0  0  0  0  0  0  0
   -7.4888   -8.2488   -9.6130 C   0  0  0  0  0  0  0  0  0  0  0  0
   -7.9731   -8.2699  -10.9824 O   0  0  0  0  0  0  0  0  0  0  0  0
   -4.7750  -11.4407   -5.0117 C   0  0  2  0  0  0  0  0  0  0  0  0
   -3.3120  -11.3687   -5.1979 N   0  0  0  0  0  0  0  0  0  0  0  0
   -5.4461  -11.9831   -6.2760 C   0  0  0  0  0  0  0  0  0  0  0  0
   -6.9635  -11.9283   -6.1441 C   0  0  2  0  0  0  0  0  0  0  0  0
   -7.5969  -12.5403   -7.3189 N   0  0  0  0  0  0  0  0  0  0  0  0
   -7.3854  -10.4519   -5.9612 C   0  0  2  0  0  0  0  0  0  0  0  0
   -6.8626   -9.9696   -4.6460 C   0  0  2  0  0  0  0  0  0  0  0  0
   -7.2947   -8.6316   -4.4798 O   0  0  0  0  0  0  0  0  0  0  0  0
   -5.3485  -10.0620   -4.6338 C   0  0  1  0  0  0  0  0  0  0  0  0
   -4.8037   -9.6964   -3.3798 O   0  0  0  0  0  0  0  0  0  0  0  0
   -7.6408   -8.2049   -3.1664 C   0  0  1  0  0  0  0  0  0  0  0  0
   -7.9191   -9.4538   -2.3272 C   0  0  2  0  0  0  0  0  0  0  0  0
   -8.9686   -9.1821   -1.4175 O   0  0  0  0  0  0  0  0  0  0  0  0
   -6.5724   -9.6911   -1.6309 C   0  0  2  0  0  0  0  0  0  0  0  0
   -6.6923  -10.4853   -0.4503 O   0  0  0  0  0  0  0  0  0  0  0  0
   -6.1384   -8.2400   -1.3899 C   0  0  2  0  0  0  0  0  0  0  0  0
   -6.5296   -7.5495   -2.5682 O   0  0  0  0  0  0  0  0  0  0  0  0
   -4.6305   -8.0565   -1.1826 C   0  0  0  0  0  0  0  0  0  0  0  0
   -4.2834   -6.6928   -1.0685 O   0  0  0  0  0  0  0  0  0  0  0  0
   -5.4783  -10.6524    0.2795 C   0  0  2  0  0  0  0  0  0  0  0  0
   -5.2955  -12.1004    0.7590 C   0  0  2  0  0  0  0  0  0  0  0  0
   -5.3751  -13.0426   -0.3697 N   0  0  0  0  0  0  0  0  0  0  0  0
   -6.3092  -12.4526    1.8581 C   0  0  1  0  0  0  0  0  0  0  0  0
   -6.0384  -13.7621    2.3192 O   0  0  0  0  0  0  0  0  0  0  0  0
   -6.1513  -11.4423    3.0071 C   0  0  2  0  0  0  0  0  0  0  0  0
   -7.0950  -11.6966    4.0314 O   0  0  0  0  0  0  0  0  0  0  0  0
   -6.2907   -9.9945    2.4932 C   0  0  1  0  0  0  0  0  0  0  0  0
   -5.4269   -9.7486    1.3811 O   0  0  0  0  0  0  0  0  0  0  0  0
   -7.7421   -9.5925    2.1921 C   0  0  0  0  0  0  0  0  0  0  0  0
   -8.4921   -9.3249    3.4299 N   0  0  0  0  0  0  0  0  0  0  0  0
  1  3  1  0  0  0  0
  1  2  1  6  0  0  0
  3  4  1  1  0  0  0
  5  6  1  6  0  0  0
  5  3  1  0  0  0  0
  7  9  1  0  0  0  0
  7  5  1  0  0  0  0
  7  8  1  6  0  0  0
  9 10  1  0  0  0  0
  9 11  1  6  0  0  0
 10  1  1  0  0  0  0
 11 12  1  0  0  0  0
 13 14  1  6  0  0  0
 13 21  1  0  0  0  0
 15 13  1  0  0  0  0
 16 15  1  0  0  0  0
 16 18  1  0  0  0  0
 16 17  1  6  0  0  0
 18  2  1  1  0  0  0
 18 19  1  0  0  0  0
 19 21  1  0  0  0  0
 19 20  1  6  0  0  0
 21 22  1  1  0  0  0
 23 20  1  6  0  0  0
 23 29  1  0  0  0  0
 23 24  1  0  0  0  0
 24 26  1  0  0  0  0
 24 25  1  1  0  0  0
 26 27  1  1  0  0  0
 28 26  1  0  0  0  0
 28 30  1  6  0  0  0
 29 28  1  0  0  0  0
 30 31  1  0  0  0  0
 32 27  1  1  0  0  0
 32 40  1  0  0  0  0
 32 33  1  0  0  0  0
 33 35  1  0  0  0  0
 33 34  1  6  0  0  0
 35 37  1  0  0  0  0
 35 36  1  1  0  0  0
 37 38  1  1  0  0  0
 39 37  1  0  0  0  0
 39 41  1  6  0  0  0
 40 39  1  0  0  0  0
 42 41  1  0  0  0  0
M  END
>  <CHROM.1>
-153.34852941,155.92661321,-179.12052699,-172.06264882,-166.84959185,80.15806516
-19.46245308,74.64130478,73.53244207,144.01985091,-19.61578697,75.14738016
76.66831239,-175.82751886,-137.02562126,175.48540883,-41.32600614,-164.32609194
73.50468528,95.04724398,75.92541960,94.30824523,-7.24228299,-10.05925773
-3.49019531,1.83954769,0.19796491,-1.52288123

>  <Name>
lig.pdb

>  <RI>
3.31443e+07

>  <Rbt.Current_Directory>
/home/itssahil/PROJECTS/Mol_Feturizer/New_Systems/rnas/2mxs

>  <Rbt.Executable>
rbdock ($Id: //depot/dev/client3/rdock/2013.1/src/exe/rbdock.cxx#4 $)

>  <Rbt.Library>
libRbt.so (2013.1, Build901 2013/11/27)

>  <Rbt.Parameter_File>
/export/apps/rDock/src/rDock_2013.1_src/data/scripts/dock_solv.prm

>  <Rbt.Receptor>
prm/blind_docking_40.prm

>  <SCORE>
32.3991

>  <SCORE.INTER>
-13.424

>  <SCORE.INTER.CONST>
1

>  <SCORE.INTER.POLAR>
-4.82788

>  <SCORE.INTER.ROT>
9

>  <SCORE.INTER.SOLV>
23.2715

>  <SCORE.INTER.VDW>
-10.2136

>  <SCORE.INTER.norm>
-0.319619

>  <SCORE.INTRA>
16.4144

>  <SCORE.INTRA.DIHEDRAL>
12.884

>  <SCORE.INTRA.DIHEDRAL.0>
30.1357

>  <SCORE.INTRA.POLAR>
-0.469788

>  <SCORE.INTRA.POLAR.0>
-0.631696

>  <SCORE.INTRA.REPUL>
0

>  <SCORE.INTRA.REPUL.0>
0

>  <SCORE.INTRA.SOLV>
1.42341

>  <SCORE.INTRA.SOLV.lig_0>
-55.904

>  <SCORE.INTRA.VDW>
10.858

>  <SCORE.INTRA.VDW.0>
-8.21197

>  <SCORE.INTRA.norm>
0.390819

>  <SCORE.RESTR>
29.4087

>  <SCORE.RESTR.CAVITY>
29.4087

>  <SCORE.RESTR.norm>
0.700207

>  <SCORE.SYSTEM>
0

>  <SCORE.SYSTEM.CONST>
0

>  <SCORE.SYSTEM.DIHEDRAL>
0

>  <SCORE.SYSTEM.SOLV>
0

>  <SCORE.SYSTEM.norm>
0

>  <SCORE.heavy>
42

>  <SCORE.norm>
0.771407

>  <RMSD>
16.782

$$$$
lig.pdb
 OpenBabel11021811453D
libRbt.so/2013.1/901 2013/11/27
 42 45  0  0  0  0  0  0  0  0999 V2000
   -6.7472   -7.8645    1.3898 C   0  0  2  0  0  0  0  0  0  0  0  0
   -5.6974   -8.7877    1.6849 O   0  0  0  0  0  0  0  0  0  0  0  0
   -6.9928   -6.9182    2.5747 C   0  0  2  0  0  0  0  0  0  0  0  0
   -5.7485   -6.2340    2.9721 N   0  0  0  0  0  0  0  0  0  0  0  0
   -7.6106   -7.6705    3.7604 C   0  0  1  0  0  0  0  0  0  0  0  0
   -7.9629   -6.7455    4.7713 O   0  0  0  0  0  0  0  0  0  0  0  0
   -8.8649   -8.4348    3.3104 C   0  0  2  0  0  0  0  0  0  0  0  0
   -9.3269   -9.2446    4.3744 O   0  0  0  0  0  0  0  0  0  0  0  0
   -8.5800   -9.3105    2.0734 C   0  0  2  0  0  0  0  0  0  0  0  0
   -7.9443   -8.5558    1.0422 O   0  0  0  0  0  0  0  0  0  0  0  0
   -9.9224   -9.8653    1.5600 C   0  0  0  0  0  0  0  0  0  0  0  0
  -10.9576   -8.8468    1.5224 O   0  0  0  0  0  0  0  0  0  0  0  0
   -4.9061  -12.7966    0.3311 C   0  0  2  0  0  0  0  0  0  0  0  0
   -5.2975  -14.0597   -0.3260 N   0  0  0  0  0  0  0  0  0  0  0  0
   -5.8039  -12.5259    1.5409 C   0  0  0  0  0  0  0  0  0  0  0  0
   -5.4996  -11.1579    2.1399 C   0  0  2  0  0  0  0  0  0  0  0  0
   -6.2952  -10.9487    3.3561 N   0  0  0  0  0  0  0  0  0  0  0  0
   -5.7848  -10.0804    1.0680 C   0  0  2  0  0  0  0  0  0  0  0  0
   -4.7993  -10.2464   -0.0441 C   0  0  2  0  0  0  0  0  0  0  0  0
   -5.0508   -9.2261   -0.9929 O   0  0  0  0  0  0  0  0  0  0  0  0
   -4.9563  -11.6220   -0.6640 C   0  0  1  0  0  0  0  0  0  0  0  0
   -3.9902  -11.8655   -1.6691 O   0  0  0  0  0  0  0  0  0  0  0  0
   -4.7531   -9.5017   -2.3576 C   0  0  1  0  0  0  0  0  0  0  0  0
   -6.0095  -10.0935   -2.9999 C   0  0  2  0  0  0  0  0  0  0  0  0
   -5.6330  -11.0764   -3.9459 O   0  0  0  0  0  0  0  0  0  0  0  0
   -6.6618   -8.8633   -3.6450 C   0  0  2  0  0  0  0  0  0  0  0  0
   -7.5701   -9.2041   -4.6927 O   0  0  0  0  0  0  0  0  0  0  0  0
   -5.4083   -8.1058   -4.1002 C   0  0  2  0  0  0  0  0  0  0  0  0
   -4.4777   -8.2860   -3.0419 O   0  0  0  0  0  0  0  0  0  0  0  0
   -5.6226   -6.6044   -4.3246 C   0  0  0  0  0  0  0  0  0  0  0  0
   -5.8949   -5.9313   -3.1139 O   0  0  0  0  0  0  0  0  0  0  0  0
   -8.7455   -8.3979   -4.7459 C   0  0  2  0  0  0  0  0  0  0  0  0
  -10.0209   -9.2365   -4.5722 C   0  0  2  0  0  0  0  0  0  0  0  0
   -9.9680  -10.0236   -3.3289 N   0  0  0  0  0  0  0  0  0  0  0  0
  -10.2659  -10.1329   -5.7953 C   0  0  1  0  0  0  0  0  0  0  0  0
  -11.4930  -10.8136   -5.6176 O   0  0  0  0  0  0  0  0  0  0  0  0
  -10.3303   -9.2411   -7.0468 C   0  0  2  0  0  0  0  0  0  0  0  0
  -10.5124  -10.0246   -8.2119 O   0  0  0  0  0  0  0  0  0  0  0  0
   -9.0609   -8.3738   -7.1735 C   0  0  1  0  0  0  0  0  0  0  0  0
   -8.7925   -7.6595   -5.9648 O   0  0  0  0  0  0  0  0  0  0  0  0
   -7.8338   -9.1584   -7.6608 C   0  0  0  0  0  0  0  0  0  0  0  0
   -7.6725  -10.4180   -6.9166 N   0  0  0  0  0  0  0  0  0  0  0  0
  1  3  1  0  0  0  0
  1  2  1  1  0  0  0
  3  4  1  1  0  0  0
  5  6  1  1  0  0  0
  5  3  1  0  0  0  0
  7  9  1  0  0  0  0
  7  5  1  0  0  0  0
  7  8  1  1  0  0  0
  9 10  1  0  0  0  0
  9 11  1  6  0  0  0
 10  1  1  0  0  0  0
 11 12  1  0  0  0  0
 13 14  1  6  0  0  0
 13 21  1  0  0  0  0
 15 13  1  0  0  0  0
 16 15  1  0  0  0  0
 16 18  1  0  0  0  0
 16 17  1  1  0  0  0
 18  2  1  1  0  0  0
 18 19  1  0  0  0  0
 19 21  1  0  0  0  0
 19 20  1  6  0  0  0
 21 22  1  6  0  0  0
 23 20  1  1  0  0  0
 23 29  1  0  0  0  0
 23 24  1  0  0  0  0
 24 26  1  0  0  0  0
 24 25  1  6  0  0  0
 26 27  1  6  0  0  0
 28 26  1  0  0  0  0
 28 30  1  1  0  0  0
 29 28  1  0  0  0  0
 30 31  1  0  0  0  0
 32 27  1  6  0  0  0
 32 40  1  0  0  0  0
 32 33  1  0  0  0  0
 33 35  1  0  0  0  0
 33 34  1  1  0  0  0
 35 37  1  0  0  0  0
 35 36  1  1  0  0  0
 37 38  1  6  0  0  0
 39 37  1  0  0  0  0
 39 41  1  1  0  0  0
 40 39  1  0  0  0  0
 42 41  1  0  0  0  0
M  END
>  <CHROM.1>
-133.76574854,149.15546394,-35.39270516,-64.63764180,165.90898626,-179.66993763
44.65125746,-56.50671786,93.92633562,-150.15807559,90.41978946,-67.97384316
-55.04253991,141.69172827,-119.89653649,67.15367068,-55.83158572,62.23460301
-176.14893970,-51.71112073,-47.57013818,-154.30383928,-7.29251969,-9.39585011
-1.50517372,1.36232500,-0.47401975,1.44611274

>  <Name>
lig.pdb

>  <RI>
3.31443e+07

>  <Rbt.Current_Directory>
/home/itssahil/PROJECTS/Mol_Feturizer/New_Systems/rnas/2mxs

>  <Rbt.Executable>
rbdock ($Id: //depot/dev/client3/rdock/2013.1/src/exe/rbdock.cxx#4 $)

>  <Rbt.Library>
libRbt.so (2013.1, Build901 2013/11/27)

>  <Rbt.Parameter_File>
/export/apps/rDock/src/rDock_2013.1_src/data/scripts/dock_solv.prm

>  <Rbt.Receptor>
prm/blind_docking_40.prm

>  <SCORE>
26.256

>  <SCORE.INTER>
-13.5415

>  <SCORE.INTER.CONST>
1

>  <SCORE.INTER.POLAR>
-2.65812

>  <SCORE.INTER.ROT>
9

>  <SCORE.INTER.SOLV>
22.751

>  <SCORE.INTER.VDW>
-17.351

>  <SCORE.INTER.norm>
-0.322417

>  <SCORE.INTRA>
13.3786

>  <SCORE.INTRA.DIHEDRAL>
8.27845

>  <SCORE.INTRA.DIHEDRAL.0>
30.1357

>  <SCORE.INTRA.POLAR>
-0.199454

>  <SCORE.INTRA.POLAR.0>
-0.631696

>  <SCORE.INTRA.REPUL>
0.0180789

>  <SCORE.INTRA.REPUL.0>
0

>  <SCORE.INTRA.SOLV>
2.38483

>  <SCORE.INTRA.SOLV.lig_0>
-55.904

>  <SCORE.INTRA.VDW>
8.6347

>  <SCORE.INTRA.VDW.0>
-8.21197

>  <SCORE.INTRA.norm>
0.318538

>  <SCORE.RESTR>
26.419

>  <SCORE.RESTR.CAVITY>
26.419

>  <SCORE.RESTR.norm>
0.629023

>  <SCORE.SYSTEM>
0

>  <SCORE.SYSTEM.CONST>
0

>  <SCORE.SYSTEM.DIHEDRAL>
0

>  <SCORE.SYSTEM.SOLV>
0

>  <SCORE.SYSTEM.norm>
0

>  <SCORE.heavy>
42

>  <SCORE.norm>
0.625143

>  <RMSD>
17.323

$$$$
lig.pdb
 OpenBabel11021811453D
libRbt.so/2013.1/901 2013/11/27
 42 45  0  0  0  0  0  0  0  0999 V2000
   -6.7044   -8.5713    1.1248 C   0  0  2  0  0  0  0  0  0  0  0  0
   -5.6635   -9.4229    1.6073 O   0  0  0  0  0  0  0  0  0  0  0  0
   -6.4193   -7.1041    1.4790 C   0  0  2  0  0  0  0  0  0  0  0  0
   -5.0919   -6.6896    0.9884 N   0  0  0  0  0  0  0  0  0  0  0  0
   -6.5465   -6.8683    2.9896 C   0  0  1  0  0  0  0  0  0  0  0  0
   -6.4291   -5.4847    3.2605 O   0  0  0  0  0  0  0  0  0  0  0  0
   -7.9072   -7.3721    3.4940 C   0  0  2  0  0  0  0  0  0  0  0  0
   -7.9422   -7.2919    4.9061 O   0  0  0  0  0  0  0  0  0  0  0  0
   -8.1741   -8.8236    3.0467 C   0  0  2  0  0  0  0  0  0  0  0  0
   -7.9690   -8.9769    1.6426 O   0  0  0  0  0  0  0  0  0  0  0  0
   -9.6319   -9.1735    3.4009 C   0  0  0  0  0  0  0  0  0  0  0  0
   -9.8932   -9.0552    4.8250 O   0  0  0  0  0  0  0  0  0  0  0  0
   -4.2965  -13.2791    0.2689 C   0  0  2  0  0  0  0  0  0  0  0  0
   -4.5070  -14.6003   -0.3560 N   0  0  0  0  0  0  0  0  0  0  0  0
   -5.1770  -13.1325    1.5124 C   0  0  0  0  0  0  0  0  0  0  0  0
   -5.0715  -11.7226    2.0817 C   0  0  2  0  0  0  0  0  0  0  0  0
   -5.8411  -11.6202    3.3279 N   0  0  0  0  0  0  0  0  0  0  0  0
   -5.5678  -10.7242    1.0101 C   0  0  2  0  0  0  0  0  0  0  0  0
   -4.6136  -10.7518   -0.1407 C   0  0  2  0  0  0  0  0  0  0  0  0
   -5.0626   -9.8022   -1.0901 O   0  0  0  0  0  0  0  0  0  0  0  0
   -4.5735  -12.1461   -0.7370 C   0  0  1  0  0  0  0  0  0  0  0  0
   -3.6218  -12.2512   -1.7792 O   0  0  0  0  0  0  0  0  0  0  0  0
   -4.3353   -9.6880   -2.3086 C   0  0  1  0  0  0  0  0  0  0  0  0
   -4.9524  -10.6621   -3.3145 C   0  0  2  0  0  0  0  0  0  0  0  0
   -3.9298  -11.2044   -4.1287 O   0  0  0  0  0  0  0  0  0  0  0  0
   -5.9216   -9.7629   -4.0936 C   0  0  2  0  0  0  0  0  0  0  0  0
   -6.2612  -10.2945   -5.3746 O   0  0  0  0  0  0  0  0  0  0  0  0
   -5.1075   -8.4637   -4.1305 C   0  0  2  0  0  0  0  0  0  0  0  0
   -4.5052   -8.3825   -2.8463 O   0  0  0  0  0  0  0  0  0  0  0  0
   -5.9422   -7.2002   -4.3697 C   0  0  0  0  0  0  0  0  0  0  0  0
   -5.2283   -6.2391   -5.1179 O   0  0  0  0  0  0  0  0  0  0  0  0
   -7.2697  -11.3028   -5.3513 C   0  0  2  0  0  0  0  0  0  0  0  0
   -7.5742  -11.8378   -6.7588 C   0  0  2  0  0  0  0  0  0  0  0  0
   -6.3481  -12.3225   -7.4143 N   0  0  0  0  0  0  0  0  0  0  0  0
   -8.2869  -10.7781   -7.6125 C   0  0  1  0  0  0  0  0  0  0  0  0
   -8.6179  -11.3527   -8.8619 O   0  0  0  0  0  0  0  0  0  0  0  0
   -9.5637  -10.3385   -6.8759 C   0  0  2  0  0  0  0  0  0  0  0  0
  -10.2385   -9.3277   -7.6021 O   0  0  0  0  0  0  0  0  0  0  0  0
   -9.2385   -9.8511   -5.4489 C   0  0  1  0  0  0  0  0  0  0  0  0
   -8.4569  -10.8107   -4.7337 O   0  0  0  0  0  0  0  0  0  0  0  0
   -8.6040   -8.4529   -5.4130 C   0  0  0  0  0  0  0  0  0  0  0  0
   -9.6082   -7.4023   -5.6453 N   0  0  0  0  0  0  0  0  0  0  0  0
  1  3  1  0  0  0  0
  1  2  1  1  0  0  0
  3  4  1  1  0  0  0
  5  6  1  6  0  0  0
  5  3  1  0  0  0  0
  7  9  1  0  0  0  0
  7  5  1  0  0  0  0
  7  8  1  1  0  0  0
  9 10  1  0  0  0  0
  9 11  1  6  0  0  0
 10  1  1  0  0  0  0
 11 12  1  0  0  0  0
 13 14  1  6  0  0  0
 13 21  1  0  0  0  0
 15 13  1  0  0  0  0
 16 15  1  0  0  0  0
 16 18  1  0  0  0  0
 16 17  1  1  0  0  0
 18  2  1  1  0  0  0
 18 19  1  0  0  0  0
 19 21  1  0  0  0  0
 19 20  1  6  0  0  0
 21 22  1  6  0  0  0
 23 20  1  1  0  0  0
 23 29  1  0  0  0  0
 23 24  1  0  0  0  0
 24 26  1  0  0  0  0
 24 25  1  6  0  0  0
 26 27  1  6  0  0  0
 28 26  1  0  0  0  0
 28 30  1  1  0  0  0
 29 28  1  0  0  0  0
 30 31  1  0  0  0  0
 32 27  1  6  0  0  0
 32 40  1  0  0  0  0
 32 33  1  0  0  0  0
 33 35  1  0  0  0  0
 33 34  1  6  0  0  0
 35 37  1  0  0  0  0
 35 36  1  6  0  0  0
 37 38  1  6  0  0  0
 39 37  1  0  0  0  0
 39 41  1  6  0  0  0
 40 39  1  0  0  0  0
 42 41  1  0  0  0  0
M  END
>  <CHROM.1>
-146.90533484,-161.07628987,58.13444898,-169.04888424,-75.07364814,64.87678497
-59.47478446,64.15337595,-160.68226530,-177.45952563,89.96172259,62.96889869
68.31756502,80.56000178,-179.44575003,-146.45806877,99.46880178,-44.70833681
66.77616702,178.96305250,75.87354528,-73.20684439,-6.59610549,-9.75696456
-1.68964298,1.44141847,-0.91927480,1.32209417

>  <Name>
lig.pdb

>  <RI>
3.31443e+07

>  <Rbt.Current_Directory>
/home/itssahil/PROJECTS/Mol_Feturizer/New_Systems/rnas/2mxs

>  <Rbt.Executable>
rbdock ($Id: //depot/dev/client3/rdock/2013.1/src/exe/rbdock.cxx#4 $)

>  <Rbt.Library>
libRbt.so (2013.1, Build901 2013/11/27)

>  <Rbt.Parameter_File>
/export/apps/rDock/src/rDock_2013.1_src/data/scripts/dock_solv.prm

>  <Rbt.Receptor>
prm/blind_docking_40.prm

>  <SCORE>
14.1676

>  <SCORE.INTER>
-16.5931

>  <SCORE.INTER.CONST>
1

>  <SCORE.INTER.POLAR>
-3.5794

>  <SCORE.INTER.ROT>
9

>  <SCORE.INTER.SOLV>
30.3141

>  <SCORE.INTER.VDW>
-18.8354

>  <SCORE.INTER.norm>
-0.395074

>  <SCORE.INTRA>
2.34639

>  <SCORE.INTRA.DIHEDRAL>
-4.69561

>  <SCORE.INTRA.DIHEDRAL.0>
30.1357

>  <SCORE.INTRA.POLAR>
-0.29225

>  <SCORE.INTRA.POLAR.0>
-0.631696

>  <SCORE.INTRA.REPUL>
0

>  <SCORE.INTRA.REPUL.0>
0

>  <SCORE.INTRA.SOLV>
0.323576

>  <SCORE.INTRA.SOLV.lig_0>
-55.904

>  <SCORE.INTRA.VDW>
5.52606

>  <SCORE.INTRA.VDW.0>
-8.21197

>  <SCORE.INTRA.norm>
0.0558665

>  <SCORE.RESTR>
28.4143

>  <SCORE.RESTR.CAVITY>
28.4143

>  <SCORE.RESTR.norm>
0.676532

>  <SCORE.SYSTEM>
0

>  <SCORE.SYSTEM.CONST>
0

>  <SCORE.SYSTEM.DIHEDRAL>
0

>  <SCORE.SYSTEM.SOLV>
0

>  <SCORE.SYSTEM.norm>
0

>  <SCORE.heavy>
42

>  <SCORE.norm>
0.337324

>  <RMSD>
17.465

$$$$
lig.pdb
 OpenBabel11021811453D
libRbt.so/2013.1/901 2013/11/27
 42 45  0  0  0  0  0  0  0  0999 V2000
   -7.1711  -10.4156    2.1260 C   0  0  2  0  0  0  0  0  0  0  0  0
   -6.3269  -10.0458    1.0342 O   0  0  0  0  0  0  0  0  0  0  0  0
   -8.6209  -10.6075    1.6560 C   0  0  2  0  0  0  0  0  0  0  0  0
   -8.6936  -11.5759    0.5464 N   0  0  0  0  0  0  0  0  0  0  0  0
   -9.2524   -9.2669    1.2594 C   0  0  1  0  0  0  0  0  0  0  0  0
  -10.6259   -9.4591    0.9798 O   0  0  0  0  0  0  0  0  0  0  0  0
   -9.1029   -8.2498    2.4009 C   0  0  2  0  0  0  0  0  0  0  0  0
   -9.5469   -6.9813    1.9592 O   0  0  0  0  0  0  0  0  0  0  0  0
   -7.6415   -8.1525    2.8838 C   0  0  2  0  0  0  0  0  0  0  0  0
   -7.1045   -9.4442    3.1670 O   0  0  0  0  0  0  0  0  0  0  0  0
   -7.6149   -7.2871    4.1581 C   0  0  0  0  0  0  0  0  0  0  0  0
   -7.9321   -5.8965    3.8825 O   0  0  0  0  0  0  0  0  0  0  0  0
   -3.1435  -12.6034   -0.3280 C   0  0  2  0  0  0  0  0  0  0  0  0
   -2.6314  -13.8318   -0.9675 N   0  0  0  0  0  0  0  0  0  0  0  0
   -3.9751  -12.9543    0.9083 C   0  0  0  0  0  0  0  0  0  0  0  0
   -4.6229  -11.7044    1.4921 C   0  0  2  0  0  0  0  0  0  0  0  0
   -5.3367  -12.0352    2.7318 N   0  0  0  0  0  0  0  0  0  0  0  0
   -5.5640  -11.0978    0.4255 C   0  0  2  0  0  0  0  0  0  0  0  0
   -4.7321  -10.6080   -0.7163 C   0  0  2  0  0  0  0  0  0  0  0  0
   -5.6078  -10.0200   -1.6608 O   0  0  0  0  0  0  0  0  0  0  0  0
   -3.9681  -11.7683   -1.3256 C   0  0  1  0  0  0  0  0  0  0  0  0
   -3.0982  -11.3475   -2.3595 O   0  0  0  0  0  0  0  0  0  0  0  0
   -5.2336  -10.0712   -3.0335 C   0  0  1  0  0  0  0  0  0  0  0  0
   -6.5033  -10.3016   -3.8558 C   0  0  2  0  0  0  0  0  0  0  0  0
   -6.2006  -11.1310   -4.9618 O   0  0  0  0  0  0  0  0  0  0  0  0
   -6.8933   -8.8758   -4.2683 C   0  0  2  0  0  0  0  0  0  0  0  0
   -7.7444   -8.8445   -5.4143 O   0  0  0  0  0  0  0  0  0  0  0  0
   -5.5005   -8.2710   -4.4834 C   0  0  2  0  0  0  0  0  0  0  0  0
   -4.7100   -8.8111   -3.4337 O   0  0  0  0  0  0  0  0  0  0  0  0
   -5.4557   -6.7406   -4.4035 C   0  0  0  0  0  0  0  0  0  0  0  0
   -6.4948   -6.2314   -3.5947 O   0  0  0  0  0  0  0  0  0  0  0  0
   -8.6841   -9.9150   -5.4862 C   0  0  2  0  0  0  0  0  0  0  0  0
   -8.7132  -10.5560   -6.8821 C   0  0  2  0  0  0  0  0  0  0  0  0
   -7.3680  -10.9969   -7.2869 N   0  0  0  0  0  0  0  0  0  0  0  0
   -9.3276   -9.6019   -7.9175 C   0  0  1  0  0  0  0  0  0  0  0  0
   -9.4075  -10.2742   -9.1594 O   0  0  0  0  0  0  0  0  0  0  0  0
  -10.7339   -9.2042   -7.4380 C   0  0  2  0  0  0  0  0  0  0  0  0
  -11.3300   -8.2883   -8.3382 O   0  0  0  0  0  0  0  0  0  0  0  0
  -10.6851   -8.6081   -6.0161 C   0  0  1  0  0  0  0  0  0  0  0  0
   -9.9850   -9.4665   -5.1126 O   0  0  0  0  0  0  0  0  0  0  0  0
  -10.1452   -7.1708   -5.9767 C   0  0  0  0  0  0  0  0  0  0  0  0
  -11.1866   -6.1967   -6.3412 N   0  0  0  0  0  0  0  0  0  0  0  0
  1  3  1  0  0  0  0
  1  2  1  6  0  0  0
  3  4  1  6  0  0  0
  5  6  1  1  0  0  0
  5  3  1  0  0  0  0
  7  9  1  0  0  0  0
  7  5  1  0  0  0  0
  7  8  1  6  0  0  0
  9 10  1  0  0  0  0
  9 11  1  1  0  0  0
 10  1  1  0  0  0  0
 11 12  1  0  0  0  0
 13 14  1  6  0  0  0
 13 21  1  0  0  0  0
 15 13  1  0  0  0  0
 16 15  1  0  0  0  0
 16 18  1  0  0  0  0
 16 17  1  1  0  0  0
 18  2  1  1  0  0  0
 18 19  1  0  0  0  0
 19 21  1  0  0  0  0
 19 20  1  6  0  0  0
 21 22  1  6  0  0  0
 23 20  1  1  0  0  0
 23 29  1  0  0  0  0
 23 24  1  0  0  0  0
 24 26  1  0  0  0  0
 24 25  1  6  0  0  0
 26 27  1  6  0  0  0
 28 26  1  0  0  0  0
 28 30  1  1  0  0  0
 29 28  1  0  0  0  0
 30 31  1  0  0  0  0
 32 27  1  6  0  0  0
 32 40  1  0  0  0  0
 32 33  1  0  0  0  0
 33 35  1  0  0  0  0
 33 34  1  6  0  0  0
 35 37  1  0  0  0  0
 35 36  1  6  0  0  0
 37 38  1  6  0  0  0
 39 37  1  0  0  0  0
 39 41  1  6  0  0  0
 40 39  1  0  0  0  0
 42 41  1  0  0  0  0
M  END
>  <CHROM.1>
-60.91354150,-98.30365925,62.80121839,-171.08295387,84.35009935,-173.51284209
-68.46587107,-58.46632040,-77.72123821,-149.94867310,142.32020335,-72.94841713
62.55958938,36.01141366,-133.10066252,26.36569744,-60.86571814,52.39648594
-168.08969430,174.52282200,80.62770931,-45.75137733,-7.27946985,-9.62011209
-2.14619488,1.19072671,-0.63316951,1.46368890

>  <Name>
lig.pdb

>  <RI>
3.31443e+07

>  <Rbt.Current_Directory>
/home/itssahil/PROJECTS/Mol_Feturizer/New_Systems/rnas/2mxs

>  <Rbt.Executable>
rbdock ($Id: //depot/dev/client3/rdock/2013.1/src/exe/rbdock.cxx#4 $)

>  <Rbt.Library>
libRbt.so (2013.1, Build901 2013/11/27)

>  <Rbt.Parameter_File>
/export/apps/rDock/src/rDock_2013.1_src/data/scripts/dock_solv.prm

>  <Rbt.Receptor>
prm/blind_docking_40.prm

>  <SCORE>
21.7755

>  <SCORE.INTER>
-15.5036

>  <SCORE.INTER.CONST>
1

>  <SCORE.INTER.POLAR>
-2.62068

>  <SCORE.INTER.ROT>
9

>  <SCORE.INTER.SOLV>
22.3873

>  <SCORE.INTER.VDW>
-18.6625

>  <SCORE.INTER.norm>
-0.369133

>  <SCORE.INTRA>
14.313

>  <SCORE.INTRA.DIHEDRAL>
3.85513

>  <SCORE.INTRA.DIHEDRAL.0>
30.1357

>  <SCORE.INTRA.POLAR>
-0.33063

>  <SCORE.INTRA.POLAR.0>
-0.631696

>  <SCORE.INTRA.REPUL>
0

>  <SCORE.INTRA.REPUL.0>
0

>  <SCORE.INTRA.SOLV>
1.22548

>  <SCORE.INTRA.SOLV.lig_0>
-55.904

>  <SCORE.INTRA.VDW>
12.8968

>  <SCORE.INTRA.VDW.0>
-8.21197

>  <SCORE.INTRA.norm>
0.340785

>  <SCORE.RESTR>
22.9662

>  <SCORE.RESTR.CAVITY>
22.9662

>  <SCORE.RESTR.norm>
0.546813

>  <SCORE.SYSTEM>
0

>  <SCORE.SYSTEM.CONST>
0

>  <SCORE.SYSTEM.DIHEDRAL>
0

>  <SCORE.SYSTEM.SOLV>
0

>  <SCORE.SYSTEM.norm>
0

>  <SCORE.heavy>
42

>  <SCORE.norm>
0.518465

>  <RMSD>
17.783

$$$$
lig.pdb
 OpenBabel11021811453D
libRbt.so/2013.1/901 2013/11/27
 42 45  0  0  0  0  0  0  0  0999 V2000
   -6.9273  -10.4712    0.0917 C   0  0  2  0  0  0  0  0  0  0  0  0
   -5.5334  -10.3232   -0.1850 O   0  0  0  0  0  0  0  0  0  0  0  0
   -7.6499   -9.1187    0.0006 C   0  0  2  0  0  0  0  0  0  0  0  0
   -7.4090   -8.4771   -1.3051 N   0  0  0  0  0  0  0  0  0  0  0  0
   -7.2353   -8.1950    1.1531 C   0  0  1  0  0  0  0  0  0  0  0  0
   -8.0290   -7.0242    1.1254 O   0  0  0  0  0  0  0  0  0  0  0  0
   -7.4259   -8.9073    2.5008 C   0  0  2  0  0  0  0  0  0  0  0  0
   -6.8923   -8.1031    3.5352 O   0  0  0  0  0  0  0  0  0  0  0  0
   -6.7444  -10.2906    2.5107 C   0  0  2  0  0  0  0  0  0  0  0  0
   -7.1275  -11.0627    1.3731 O   0  0  0  0  0  0  0  0  0  0  0  0
   -7.1630  -11.0216    3.8005 C   0  0  0  0  0  0  0  0  0  0  0  0
   -6.3914  -12.2329    4.0188 O   0  0  0  0  0  0  0  0  0  0  0  0
   -2.8626  -13.1936   -1.9622 C   0  0  2  0  0  0  0  0  0  0  0  0
   -2.5381  -14.2543   -2.9368 N   0  0  0  0  0  0  0  0  0  0  0  0
   -4.0227  -13.6322   -1.0650 C   0  0  0  0  0  0  0  0  0  0  0  0
   -4.4560  -12.4917   -0.1516 C   0  0  2  0  0  0  0  0  0  0  0  0
   -5.5013  -12.9507    0.7716 N   0  0  0  0  0  0  0  0  0  0  0  0
   -4.9366  -11.3153   -1.0329 C   0  0  2  0  0  0  0  0  0  0  0  0
   -3.7638  -10.7822   -1.7917 C   0  0  2  0  0  0  0  0  0  0  0  0
   -4.2164   -9.6816   -2.5588 O   0  0  0  0  0  0  0  0  0  0  0  0
   -3.1929  -11.8714   -2.6800 C   0  0  1  0  0  0  0  0  0  0  0  0
   -2.0270  -11.4460   -3.3601 O   0  0  0  0  0  0  0  0  0  0  0  0
   -4.3309   -9.8572   -3.9669 C   0  0  1  0  0  0  0  0  0  0  0  0
   -5.7071  -10.4622   -4.2523 C   0  0  2  0  0  0  0  0  0  0  0  0
   -5.6054  -11.3659   -5.3366 O   0  0  0  0  0  0  0  0  0  0  0  0
   -6.5503   -9.2238   -4.5847 C   0  0  2  0  0  0  0  0  0  0  0  0
   -7.7204   -9.5377   -5.3404 O   0  0  0  0  0  0  0  0  0  0  0  0
   -5.5066   -8.3845   -5.3320 C   0  0  2  0  0  0  0  0  0  0  0  0
   -4.2998   -8.5897   -4.6109 O   0  0  0  0  0  0  0  0  0  0  0  0
   -5.8132   -6.8829   -5.3726 C   0  0  0  0  0  0  0  0  0  0  0  0
   -5.7009   -6.2944   -4.0942 O   0  0  0  0  0  0  0  0  0  0  0  0
   -8.6175   -8.4450   -5.5282 C   0  0  2  0  0  0  0  0  0  0  0  0
  -10.0849   -8.8854   -5.4145 C   0  0  2  0  0  0  0  0  0  0  0  0
  -10.3322   -9.5664   -4.1327 N   0  0  0  0  0  0  0  0  0  0  0  0
  -10.4938   -9.7642   -6.6062 C   0  0  1  0  0  0  0  0  0  0  0  0
  -11.8710  -10.0663   -6.4929 O   0  0  0  0  0  0  0  0  0  0  0  0
  -10.2277   -8.9801   -7.9025 C   0  0  2  0  0  0  0  0  0  0  0  0
  -10.5484   -9.7638   -9.0372 O   0  0  0  0  0  0  0  0  0  0  0  0
   -8.7610   -8.5072   -7.9712 C   0  0  1  0  0  0  0  0  0  0  0  0
   -8.3796   -7.8106   -6.7827 O   0  0  0  0  0  0  0  0  0  0  0  0
   -7.7744   -9.6319   -8.3185 C   0  0  0  0  0  0  0  0  0  0  0  0
   -7.3459   -9.5540   -9.7245 N   0  0  0  0  0  0  0  0  0  0  0  0
  1  3  1  0  0  0  0
  1  2  1  1  0  0  0
  3  4  1  6  0  0  0
  5  6  1  1  0  0  0
  5  3  1  0  0  0  0
  7  9  1  0  0  0  0
  7  5  1  0  0  0  0
  7  8  1  1  0  0  0
  9 10  1  0  0  0  0
  9 11  1  1  0  0  0
 10  1  1  0  0  0  0
 11 12  1  0  0  0  0
 13 14  1  6  0  0  0
 13 21  1  0  0  0  0
 15 13  1  0  0  0  0
 16 15  1  0  0  0  0
 16 18  1  0  0  0  0
 16 17  1  1  0  0  0
 18  2  1  1  0  0  0
 18 19  1  0  0  0  0
 19 21  1  0  0  0  0
 19 20  1  6  0  0  0
 21 22  1  1  0  0  0
 23 20  1  1  0  0  0
 23 29  1  0  0  0  0
 23 24  1  0  0  0  0
 24 26  1  0  0  0  0
 24 25  1  6  0  0  0
 26 27  1  6  0  0  0
 28 26  1  0  0  0  0
 28 30  1  1  0  0  0
 29 28  1  0  0  0  0
 30 31  1  0  0  0  0
 32 27  1  6  0  0  0
 32 40  1  0  0  0  0
 32 33  1  0  0  0  0
 33 35  1  0  0  0  0
 33 34  1  1  0  0  0
 35 37  1  0  0  0  0
 35 36  1  1  0  0  0
 37 38  1  6  0  0  0
 39 37  1  0  0  0  0
 39 41  1  1  0  0  0
 40 39  1  0  0  0  0
 42 41  1  0  0  0  0
M  END
>  <CHROM.1>
-88.05390859,-136.87073239,-68.66784498,100.52914111,64.61613935,167.28585730
-169.82606879,93.22783159,-164.25241552,-107.56269744,85.83917057,-168.40846284
-177.54186043,172.53875406,-140.56492925,68.44802581,-56.97526393,-175.22393065
-76.24075678,168.75966901,102.92007980,167.67500439,-6.63038621,-9.96286347
-2.83698141,1.20394356,-0.53749454,1.57635142

>  <Name>
lig.pdb

>  <RI>
3.31443e+07

>  <Rbt.Current_Directory>
/home/itssahil/PROJECTS/Mol_Feturizer/New_Systems/rnas/2mxs

>  <Rbt.Executable>
rbdock ($Id: //depot/dev/client3/rdock/2013.1/src/exe/rbdock.cxx#4 $)

>  <Rbt.Library>
libRbt.so (2013.1, Build901 2013/11/27)

>  <Rbt.Parameter_File>
/export/apps/rDock/src/rDock_2013.1_src/data/scripts/dock_solv.prm

>  <Rbt.Receptor>
prm/blind_docking_40.prm

>  <SCORE>
38.7967

>  <SCORE.INTER>
2.85826

>  <SCORE.INTER.CONST>
1

>  <SCORE.INTER.POLAR>
-2.5139

>  <SCORE.INTER.ROT>
9

>  <SCORE.INTER.SOLV>
28.266

>  <SCORE.INTER.VDW>
-8.73683

>  <SCORE.INTER.norm>
0.0680538

>  <SCORE.INTRA>
13.1908

>  <SCORE.INTRA.DIHEDRAL>
11.3425

>  <SCORE.INTRA.DIHEDRAL.0>
30.1357

>  <SCORE.INTRA.POLAR>
-0.00519284

>  <SCORE.INTRA.POLAR.0>
-0.631696

>  <SCORE.INTRA.REPUL>
0

>  <SCORE.INTRA.REPUL.0>
0

>  <SCORE.INTRA.SOLV>
0.340151

>  <SCORE.INTRA.SOLV.lig_0>
-55.904

>  <SCORE.INTRA.VDW>
7.36719

>  <SCORE.INTRA.VDW.0>
-8.21197

>  <SCORE.INTRA.norm>
0.314068

>  <SCORE.RESTR>
22.7476

>  <SCORE.RESTR.CAVITY>
22.7476

>  <SCORE.RESTR.norm>
0.541609

>  <SCORE.SYSTEM>
0

>  <SCORE.SYSTEM.CONST>
0

>  <SCORE.SYSTEM.DIHEDRAL>
0

>  <SCORE.SYSTEM.SOLV>
0

>  <SCORE.SYSTEM.norm>
0

>  <SCORE.heavy>
42

>  <SCORE.norm>
0.923731

>  <RMSD>
17.819

$$$$
lig.pdb
 OpenBabel11021811453D
libRbt.so/2013.1/901 2013/11/27
 42 45  0  0  0  0  0  0  0  0999 V2000
   -4.6679  -11.3196    1.6467 C   0  0  2  0  0  0  0  0  0  0  0  0
   -5.2438  -12.3031    0.7850 O   0  0  0  0  0  0  0  0  0  0  0  0
   -5.5950  -11.0231    2.8351 C   0  0  2  0  0  0  0  0  0  0  0  0
   -5.9397  -12.2608    3.5589 N   0  0  0  0  0  0  0  0  0  0  0  0
   -6.8581  -10.2834    2.3760 C   0  0  1  0  0  0  0  0  0  0  0  0
   -7.6116   -9.8933    3.5081 O   0  0  0  0  0  0  0  0  0  0  0  0
   -6.4787   -9.0366    1.5628 C   0  0  2  0  0  0  0  0  0  0  0  0
   -7.6493   -8.4592    1.0171 O   0  0  0  0  0  0  0  0  0  0  0  0
   -5.4890   -9.3793    0.4309 C   0  0  2  0  0  0  0  0  0  0  0  0
   -4.3771  -10.1249    0.9257 O   0  0  0  0  0  0  0  0  0  0  0  0
   -4.9951   -8.0586   -0.1896 C   0  0  0  0  0  0  0  0  0  0  0  0
   -4.1650   -7.2986    0.7289 O   0  0  0  0  0  0  0  0  0  0  0  0
   -9.1693  -14.0620    0.6184 C   0  0  2  0  0  0  0  0  0  0  0  0
  -10.5510  -14.2335    1.1101 N   0  0  0  0  0  0  0  0  0  0  0  0
   -8.1653  -14.4535    1.7055 C   0  0  0  0  0  0  0  0  0  0  0  0
   -6.7414  -14.1467    1.2569 C   0  0  2  0  0  0  0  0  0  0  0  0
   -5.7807  -14.6151    2.2636 N   0  0  0  0  0  0  0  0  0  0  0  0
   -6.6244  -12.6249    1.0078 C   0  0  2  0  0  0  0  0  0  0  0  0
   -7.4861  -12.2689   -0.1611 C   0  0  2  0  0  0  0  0  0  0  0  0
   -7.3322  -10.8815   -0.3977 O   0  0  0  0  0  0  0  0  0  0  0  0
   -8.9307  -12.6157    0.1455 C   0  0  1  0  0  0  0  0  0  0  0  0
   -9.7809  -12.3769   -0.9605 O   0  0  0  0  0  0  0  0  0  0  0  0
   -6.6859  -10.4819   -1.6016 C   0  0  1  0  0  0  0  0  0  0  0  0
   -7.3599  -11.2189   -2.7610 C   0  0  2  0  0  0  0  0  0  0  0  0
   -6.3882  -11.5433   -3.7374 O   0  0  0  0  0  0  0  0  0  0  0  0
   -8.3836  -10.1889   -3.2571 C   0  0  2  0  0  0  0  0  0  0  0  0
   -8.8014  -10.4272   -4.6014 O   0  0  0  0  0  0  0  0  0  0  0  0
   -7.5825   -8.8974   -3.0507 C   0  0  2  0  0  0  0  0  0  0  0  0
   -6.8992   -9.0931   -1.8206 O   0  0  0  0  0  0  0  0  0  0  0  0
   -8.4397   -7.6304   -2.9480 C   0  0  0  0  0  0  0  0  0  0  0  0
   -7.7180   -6.4813   -3.3378 O   0  0  0  0  0  0  0  0  0  0  0  0
   -9.7431   -9.4831   -5.1075 C   0  0  2  0  0  0  0  0  0  0  0  0
  -10.3222   -9.9238   -6.4604 C   0  0  2  0  0  0  0  0  0  0  0  0
  -10.9116  -11.2699   -6.3672 N   0  0  0  0  0  0  0  0  0  0  0  0
   -9.2606   -9.8503   -7.5682 C   0  0  1  0  0  0  0  0  0  0  0  0
   -9.8703  -10.1825   -8.8006 O   0  0  0  0  0  0  0  0  0  0  0  0
   -8.7093   -8.4153   -7.6190 C   0  0  2  0  0  0  0  0  0  0  0  0
   -7.6929   -8.3030   -8.5982 O   0  0  0  0  0  0  0  0  0  0  0  0
   -8.1781   -7.9781   -6.2383 C   0  0  1  0  0  0  0  0  0  0  0  0
   -9.1505   -8.1905   -5.2123 O   0  0  0  0  0  0  0  0  0  0  0  0
   -6.8218   -8.6043   -5.8817 C   0  0  0  0  0  0  0  0  0  0  0  0
   -5.8494   -7.5789   -5.4703 N   0  0  0  0  0  0  0  0  0  0  0  0
  1  3  1  0  0  0  0
  1  2  1  6  0  0  0
  3  4  1  6  0  0  0
  5  6  1  1  0  0  0
  5  3  1  0  0  0  0
  7  9  1  0  0  0  0
  7  5  1  0  0  0  0
  7  8  1  6  0  0  0
  9 10  1  0  0  0  0
  9 11  1  1  0  0  0
 10  1  1  0  0  0  0
 11 12  1  0  0  0  0
 13 14  1  1  0  0  0
 13 21  1  0  0  0  0
 15 13  1  0  0  0  0
 16 15  1  0  0  0  0
 16 18  1  0  0  0  0
 16 17  1  1  0  0  0
 18  2  1  6  0  0  0
 18 19  1  0  0  0  0
 19 21  1  0  0  0  0
 19 20  1  1  0  0  0
 21 22  1  6  0  0  0
 23 20  1  1  0  0  0
 23 29  1  0  0  0  0
 23 24  1  0  0  0  0
 24 26  1  0  0  0  0
 24 25  1  6  0  0  0
 26 27  1  6  0  0  0
 28 26  1  0  0  0  0
 28 30  1  1  0  0  0
 29 28  1  0  0  0  0
 30 31  1  0  0  0  0
 32 27  1  6  0  0  0
 32 40  1  0  0  0  0
 32 33  1  0  0  0  0
 33 35  1  0  0  0  0
 33 34  1  1  0  0  0
 35 37  1  0  0  0  0
 35 36  1  6  0  0  0
 37 38  1  6  0  0  0
 39 37  1  0  0  0  0
 39 41  1  1  0  0  0
 40 39  1  0  0  0  0
 42 41  1  0  0  0  0
M  END
>  <CHROM.1>
-123.51503489,11.89346278,-93.21199867,17.29467618,-76.66891204,-50.46222020
67.92813944,173.47649342,-157.75475473,112.72587638,50.54207106,-57.26501174
172.99659629,-179.35204729,-170.58001377,-154.32970408,87.21875751,-47.31274216
59.77152362,-61.31803135,128.36938348,-172.63242813,-7.48596560,-10.40320317
-1.78799546,-1.18863687,-0.89393865,-0.94224831

>  <Name>
lig.pdb

>  <RI>
3.31443e+07

>  <Rbt.Current_Directory>
/home/itssahil/PROJECTS/Mol_Feturizer/New_Systems/rnas/2mxs

>  <Rbt.Executable>
rbdock ($Id: //depot/dev/client3/rdock/2013.1/src/exe/rbdock.cxx#4 $)

>  <Rbt.Library>
libRbt.so (2013.1, Build901 2013/11/27)

>  <Rbt.Parameter_File>
/export/apps/rDock/src/rDock_2013.1_src/data/scripts/dock_solv.prm

>  <Rbt.Receptor>
prm/blind_docking_40.prm

>  <SCORE>
55.6466

>  <SCORE.INTER>
-19.2253

>  <SCORE.INTER.CONST>
1

>  <SCORE.INTER.POLAR>
-5.91687

>  <SCORE.INTER.ROT>
9

>  <SCORE.INTER.SOLV>
22.3961

>  <SCORE.INTER.VDW>
-10.1594

>  <SCORE.INTER.norm>
-0.457746

>  <SCORE.INTRA>
32.2014

>  <SCORE.INTRA.DIHEDRAL>
13.8598

>  <SCORE.INTRA.DIHEDRAL.0>
30.1357

>  <SCORE.INTRA.POLAR>
-0.505037

>  <SCORE.INTRA.POLAR.0>
-0.631696

>  <SCORE.INTRA.REPUL>
0

>  <SCORE.INTRA.REPUL.0>
0

>  <SCORE.INTRA.SOLV>
3.78375

>  <SCORE.INTRA.SOLV.lig_0>
-55.904

>  <SCORE.INTRA.VDW>
25.0967

>  <SCORE.INTRA.VDW.0>
-8.21197

>  <SCORE.INTRA.norm>
0.7667

>  <SCORE.RESTR>
42.6706

>  <SCORE.RESTR.CAVITY>
42.6706

>  <SCORE.RESTR.norm>
1.01597

>  <SCORE.SYSTEM>
0

>  <SCORE.SYSTEM.CONST>
0

>  <SCORE.SYSTEM.DIHEDRAL>
0

>  <SCORE.SYSTEM.SOLV>
0

>  <SCORE.SYSTEM.norm>
0

>  <SCORE.heavy>
42

>  <SCORE.norm>
1.32492

>  <RMSD>
17.987

$$$$
lig.pdb
 OpenBabel11021811453D
libRbt.so/2013.1/901 2013/11/27
 42 45  0  0  0  0  0  0  0  0999 V2000
   -7.2429   -9.6380   -0.4294 C   0  0  2  0  0  0  0  0  0  0  0  0
   -5.8293   -9.6388   -0.6374 O   0  0  0  0  0  0  0  0  0  0  0  0
   -7.7384   -8.2359   -0.0443 C   0  0  2  0  0  0  0  0  0  0  0  0
   -7.3248   -7.2351   -1.0452 N   0  0  0  0  0  0  0  0  0  0  0  0
   -7.2519   -7.8466    1.3576 C   0  0  1  0  0  0  0  0  0  0  0  0
   -7.8497   -6.6223    1.7390 O   0  0  0  0  0  0  0  0  0  0  0  0
   -7.6294   -8.9354    2.3733 C   0  0  2  0  0  0  0  0  0  0  0  0
   -7.0374   -8.6359    3.6229 O   0  0  0  0  0  0  0  0  0  0  0  0
   -7.1744  -10.3313    1.9013 C   0  0  2  0  0  0  0  0  0  0  0  0
   -7.6070  -10.5909    0.5661 O   0  0  0  0  0  0  0  0  0  0  0  0
   -7.7763  -11.3796    2.8563 C   0  0  0  0  0  0  0  0  0  0  0  0
   -7.1325  -11.3679    4.1585 O   0  0  0  0  0  0  0  0  0  0  0  0
   -2.8695  -12.7555   -0.4004 C   0  0  2  0  0  0  0  0  0  0  0  0
   -2.4442  -14.1407   -0.1163 N   0  0  0  0  0  0  0  0  0  0  0  0
   -3.4483  -12.1077    0.8599 C   0  0  0  0  0  0  0  0  0  0  0  0
   -4.0178  -10.7301    0.5423 C   0  0  2  0  0  0  0  0  0  0  0  0
   -4.4811  -10.0770    1.7730 N   0  0  0  0  0  0  0  0  0  0  0  0
   -5.1577  -10.8982   -0.4892 C   0  0  2  0  0  0  0  0  0  0  0  0
   -4.5656  -11.3805   -1.7746 C   0  0  2  0  0  0  0  0  0  0  0  0
   -5.6181  -11.4875   -2.7156 O   0  0  0  0  0  0  0  0  0  0  0  0
   -3.8895  -12.7205   -1.5540 C   0  0  1  0  0  0  0  0  0  0  0  0
   -3.2380  -13.1857   -2.7211 O   0  0  0  0  0  0  0  0  0  0  0  0
   -5.3447  -11.1131   -4.0616 C   0  0  1  0  0  0  0  0  0  0  0  0
   -6.6194  -11.3381   -4.8776 C   0  0  2  0  0  0  0  0  0  0  0  0
   -6.2721  -11.7846   -6.1748 O   0  0  0  0  0  0  0  0  0  0  0  0
   -7.2618   -9.9444   -4.8784 C   0  0  2  0  0  0  0  0  0  0  0  0
   -8.1906   -9.7638   -5.9477 O   0  0  0  0  0  0  0  0  0  0  0  0
   -6.0034   -9.0718   -4.9636 C   0  0  2  0  0  0  0  0  0  0  0  0
   -5.0604   -9.7211   -4.1225 O   0  0  0  0  0  0  0  0  0  0  0  0
   -6.1976   -7.6316   -4.4752 C   0  0  0  0  0  0  0  0  0  0  0  0
   -5.2693   -6.7507   -5.0713 O   0  0  0  0  0  0  0  0  0  0  0  0
   -8.3772   -8.4083   -6.3503 C   0  0  2  0  0  0  0  0  0  0  0  0
   -9.8514   -8.1012   -6.6544 C   0  0  2  0  0  0  0  0  0  0  0  0
  -10.7076   -8.4408   -5.5056 N   0  0  0  0  0  0  0  0  0  0  0  0
  -10.3147   -8.8172   -7.9321 C   0  0  1  0  0  0  0  0  0  0  0  0
  -11.6470   -8.4306   -8.2085 O   0  0  0  0  0  0  0  0  0  0  0  0
   -9.3900   -8.3975   -9.0873 C   0  0  2  0  0  0  0  0  0  0  0  0
   -9.7480   -9.0645  -10.2837 O   0  0  0  0  0  0  0  0  0  0  0  0
   -7.9121   -8.6707   -8.7395 C   0  0  1  0  0  0  0  0  0  0  0  0
   -7.5581   -8.1022   -7.4766 O   0  0  0  0  0  0  0  0  0  0  0  0
   -7.5305  -10.1558   -8.8273 C   0  0  0  0  0  0  0  0  0  0  0  0
   -7.2767  -10.5627  -10.2188 N   0  0  0  0  0  0  0  0  0  0  0  0
  1  3  1  0  0  0  0
  1  2  1  1  0  0  0
  3  4  1  6  0  0  0
  5  6  1  1  0  0  0
  5  3  1  0  0  0  0
  7  9  1  0  0  0  0
  7  5  1  0  0  0  0
  7  8  1  1  0  0  0
  9 10  1  0  0  0  0
  9 11  1  1  0  0  0
 10  1  1  0  0  0  0
 11 12  1  0  0  0  0
 13 14  1  1  0  0  0
 13 21  1  0  0  0  0
 15 13  1  0  0  0  0
 16 15  1  0  0  0  0
 16 18  1  0  0  0  0
 16 17  1  1  0  0  0
 18  2  1  6  0  0  0
 18 19  1  0  0  0  0
 19 21  1  0  0  0  0
 19 20  1  6  0  0  0
 21 22  1  6  0  0  0
 23 20  1  1  0  0  0
 23 29  1  0  0  0  0
 23 24  1  0  0  0  0
 24 26  1  0  0  0  0
 24 25  1  6  0  0  0
 26 27  1  6  0  0  0
 28 26  1  0  0  0  0
 28 30  1  1  0  0  0
 29 28  1  0  0  0  0
 30 31  1  0  0  0  0
 32 27  1  6  0  0  0
 32 40  1  0  0  0  0
 32 33  1  0  0  0  0
 33 35  1  0  0  0  0
 33 34  1  1  0  0  0
 35 37  1  0  0  0  0
 35 36  1  6  0  0  0
 37 38  1  6  0  0  0
 39 37  1  0  0  0  0
 39 41  1  1  0  0  0
 40 39  1  0  0  0  0
 42 41  1  0  0  0  0
M  END
>  <CHROM.1>
-125.26975523,156.58545029,70.04845072,58.68815398,62.19201624,-61.67659478
-72.26680189,-174.00554362,-40.98418045,141.87115557,179.08219912,-179.48066424
-56.86645110,-154.52592423,-139.62026545,-154.75570583,-62.20525152,177.80420673
-67.48029226,62.32684787,80.34871030,75.14683900,-6.77003997,-9.85273270
-2.95972521,1.17502573,-0.71363622,1.46032114

>  <Name>
lig.pdb

>  <RI>
3.31443e+07

>  <Rbt.Current_Directory>
/home/itssahil/PROJECTS/Mol_Feturizer/New_Systems/rnas/2mxs

>  <Rbt.Executable>
rbdock ($Id: //depot/dev/client3/rdock/2013.1/src/exe/rbdock.cxx#4 $)

>  <Rbt.Library>
libRbt.so (2013.1, Build901 2013/11/27)

>  <Rbt.Parameter_File>
/export/apps/rDock/src/rDock_2013.1_src/data/scripts/dock_solv.prm

>  <Rbt.Receptor>
prm/blind_docking_40.prm

>  <SCORE>
23.3732

>  <SCORE.INTER>
-6.8751

>  <SCORE.INTER.CONST>
1

>  <SCORE.INTER.POLAR>
-2.87829

>  <SCORE.INTER.ROT>
9

>  <SCORE.INTER.SOLV>
27.4236

>  <SCORE.INTER.VDW>
-13.7303

>  <SCORE.INTER.norm>
-0.163693

>  <SCORE.INTRA>
4.42468

>  <SCORE.INTRA.DIHEDRAL>
-0.853516

>  <SCORE.INTRA.DIHEDRAL.0>
30.1357

>  <SCORE.INTRA.POLAR>
0.00637986

>  <SCORE.INTRA.POLAR.0>
-0.631696

>  <SCORE.INTRA.REPUL>
0

>  <SCORE.INTRA.REPUL.0>
0

>  <SCORE.INTRA.SOLV>
0.451495

>  <SCORE.INTRA.SOLV.lig_0>
-55.904

>  <SCORE.INTRA.VDW>
4.60399

>  <SCORE.INTRA.VDW.0>
-8.21197

>  <SCORE.INTRA.norm>
0.105349

>  <SCORE.RESTR>
25.8236

>  <SCORE.RESTR.CAVITY>
25.8236

>  <SCORE.RESTR.norm>
0.614847

>  <SCORE.SYSTEM>
0

>  <SCORE.SYSTEM.CONST>
0

>  <SCORE.SYSTEM.DIHEDRAL>
0

>  <SCORE.SYSTEM.SOLV>
0

>  <SCORE.SYSTEM.norm>
0

>  <SCORE.heavy>
42

>  <SCORE.norm>
0.556504

>  <RMSD>
18.026

$$$$
lig.pdb
 OpenBabel11021811453D
libRbt.so/2013.1/901 2013/11/27
 42 45  0  0  0  0  0  0  0  0999 V2000
   -7.4010  -11.0520    1.5093 C   0  0  2  0  0  0  0  0  0  0  0  0
   -6.3618  -10.6303    0.6240 O   0  0  0  0  0  0  0  0  0  0  0  0
   -8.7732  -10.9616    0.8247 C   0  0  2  0  0  0  0  0  0  0  0  0
   -8.7835  -11.7169   -0.4417 N   0  0  0  0  0  0  0  0  0  0  0  0
   -9.1791   -9.4997    0.5975 C   0  0  1  0  0  0  0  0  0  0  0  0
  -10.5058   -9.4512    0.1085 O   0  0  0  0  0  0  0  0  0  0  0  0
   -9.0928   -8.7126    1.9138 C   0  0  2  0  0  0  0  0  0  0  0  0
   -9.3159   -7.3399    1.6544 O   0  0  0  0  0  0  0  0  0  0  0  0
   -7.7220   -8.8991    2.5954 C   0  0  2  0  0  0  0  0  0  0  0  0
   -7.3858  -10.2816    2.7085 O   0  0  0  0  0  0  0  0  0  0  0  0
   -7.7940   -8.2648    3.9974 C   0  0  0  0  0  0  0  0  0  0  0  0
   -9.0994   -8.4383    4.6108 O   0  0  0  0  0  0  0  0  0  0  0  0
   -2.9082  -13.0055   -0.3570 C   0  0  2  0  0  0  0  0  0  0  0  0
   -2.2618  -14.2227   -0.8868 N   0  0  0  0  0  0  0  0  0  0  0  0
   -3.8041  -13.3543    0.8342 C   0  0  0  0  0  0  0  0  0  0  0  0
   -4.5827  -12.1288    1.2975 C   0  0  2  0  0  0  0  0  0  0  0  0
   -5.3632  -12.4485    2.4993 N   0  0  0  0  0  0  0  0  0  0  0  0
   -5.4811  -11.6513    0.1328 C   0  0  2  0  0  0  0  0  0  0  0  0
   -4.6021  -11.1593   -0.9721 C   0  0  2  0  0  0  0  0  0  0  0  0
   -5.4433  -10.6890   -2.0093 O   0  0  0  0  0  0  0  0  0  0  0  0
   -3.7124  -12.2880   -1.4574 C   0  0  1  0  0  0  0  0  0  0  0  0
   -2.7988  -11.8562   -2.4483 O   0  0  0  0  0  0  0  0  0  0  0  0
   -4.8593  -10.4711   -3.2892 C   0  0  1  0  0  0  0  0  0  0  0  0
   -5.8838  -10.8858   -4.3473 C   0  0  2  0  0  0  0  0  0  0  0  0
   -5.2108  -11.4688   -5.4473 O   0  0  0  0  0  0  0  0  0  0  0  0
   -6.5557   -9.5514   -4.6980 C   0  0  2  0  0  0  0  0  0  0  0  0
   -7.1972   -9.5732   -5.9734 O   0  0  0  0  0  0  0  0  0  0  0  0
   -5.3475   -8.6118   -4.6004 C   0  0  2  0  0  0  0  0  0  0  0  0
   -4.6190   -9.0818   -3.4749 O   0  0  0  0  0  0  0  0  0  0  0  0
   -5.7080   -7.1380   -4.3801 C   0  0  0  0  0  0  0  0  0  0  0  0
   -7.0419   -6.9887   -3.9426 O   0  0  0  0  0  0  0  0  0  0  0  0
   -7.7603   -8.3265   -6.3769 C   0  0  2  0  0  0  0  0  0  0  0  0
   -9.2563   -8.2399   -6.0383 C   0  0  2  0  0  0  0  0  0  0  0  0
   -9.4872   -8.4927   -4.6062 N   0  0  0  0  0  0  0  0  0  0  0  0
  -10.0799   -9.1929   -6.9175 C   0  0  1  0  0  0  0  0  0  0  0  0
  -11.4509   -9.0077   -6.6228 O   0  0  0  0  0  0  0  0  0  0  0  0
   -9.8038   -8.8546   -8.3924 C   0  0  2  0  0  0  0  0  0  0  0  0
  -10.5078   -9.7351   -9.2489 O   0  0  0  0  0  0  0  0  0  0  0  0
   -8.2922   -8.9008   -8.6965 C   0  0  1  0  0  0  0  0  0  0  0  0
   -7.5475   -8.1073   -7.7697 O   0  0  0  0  0  0  0  0  0  0  0  0
   -7.7365  -10.3285   -8.8054 C   0  0  0  0  0  0  0  0  0  0  0  0
   -6.9989  -10.5221  -10.0643 N   0  0  0  0  0  0  0  0  0  0  0  0
  1  3  1  0  0  0  0
  1  2  1  6  0  0  0
  3  4  1  6  0  0  0
  5  6  1  1  0  0  0
  5  3  1  0  0  0  0
  7  9  1  0  0  0  0
  7  5  1  0  0  0  0
  7  8  1  6  0  0  0
  9 10  1  0  0  0  0
  9 11  1  1  0  0  0
 10  1  1  0  0  0  0
 11 12  1  0  0  0  0
 13 14  1  6  0  0  0
 13 21  1  0  0  0  0
 15 13  1  0  0  0  0
 16 15  1  0  0  0  0
 16 18  1  0  0  0  0
 16 17  1  1  0  0  0
 18  2  1  1  0  0  0
 18 19  1  0  0  0  0
 19 21  1  0  0  0  0
 19 20  1  6  0  0  0
 21 22  1  6  0  0  0
 23 20  1  1  0  0  0
 23 29  1  0  0  0  0
 23 24  1  0  0  0  0
 24 26  1  0  0  0  0
 24 25  1  6  0  0  0
 26 27  1  6  0  0  0
 28 26  1  0  0  0  0
 28 30  1  1  0  0  0
 29 28  1  0  0  0  0
 30 31  1  0  0  0  0
 32 27  1  6  0  0  0
 32 40  1  0  0  0  0
 32 33  1  0  0  0  0
 33 35  1  0  0  0  0
 33 34  1  1  0  0  0
 35 37  1  0  0  0  0
 35 36  1  1  0  0  0
 37 38  1  6  0  0  0
 39 37  1  0  0  0  0
 39 41  1  1  0  0  0
 40 39  1  0  0  0  0
 42 41  1  0  0  0  0
M  END
>  <CHROM.1>
-70.83853553,-109.43109750,48.02813429,78.44906420,168.57271431,51.17098511
35.69577606,-177.74657525,47.17875522,-165.13865035,142.90275459,82.10117587
-122.36957350,-176.13733770,-95.77286456,16.48877184,-105.78947386,42.89927795
-63.86890843,-176.05057140,127.39544204,130.15669667,-7.02510787,-10.03781969
-2.54634664,1.35879812,-0.55422984,1.61319014

>  <Name>
lig.pdb

>  <RI>
3.31443e+07

>  <Rbt.Current_Directory>
/home/itssahil/PROJECTS/Mol_Feturizer/New_Systems/rnas/2mxs

>  <Rbt.Executable>
rbdock ($Id: //depot/dev/client3/rdock/2013.1/src/exe/rbdock.cxx#4 $)

>  <Rbt.Library>
libRbt.so (2013.1, Build901 2013/11/27)

>  <Rbt.Parameter_File>
/export/apps/rDock/src/rDock_2013.1_src/data/scripts/dock_solv.prm

>  <Rbt.Receptor>
prm/blind_docking_40.prm

>  <SCORE>
10.2291

>  <SCORE.INTER>
-28.3756

>  <SCORE.INTER.CONST>
1

>  <SCORE.INTER.POLAR>
-4.00107

>  <SCORE.INTER.ROT>
9

>  <SCORE.INTER.SOLV>
27.31

>  <SCORE.INTER.VDW>
-24.2835

>  <SCORE.INTER.norm>
-0.675609

>  <SCORE.INTRA>
15.5457

>  <SCORE.INTRA.DIHEDRAL>
22.1618

>  <SCORE.INTRA.DIHEDRAL.0>
30.1357

>  <SCORE.INTRA.POLAR>
-1.29936

>  <SCORE.INTRA.POLAR.0>
-0.631696

>  <SCORE.INTRA.REPUL>
0

>  <SCORE.INTRA.REPUL.0>
0

>  <SCORE.INTRA.SOLV>
0.509055

>  <SCORE.INTRA.SOLV.lig_0>
-55.904

>  <SCORE.INTRA.VDW>
8.62807

>  <SCORE.INTRA.VDW.0>
-8.21197

>  <SCORE.INTRA.norm>
0.370135

>  <SCORE.RESTR>
23.059

>  <SCORE.RESTR.CAVITY>
23.059

>  <SCORE.RESTR.norm>
0.549023

>  <SCORE.SYSTEM>
0

>  <SCORE.SYSTEM.CONST>
0

>  <SCORE.SYSTEM.DIHEDRAL>
0

>  <SCORE.SYSTEM.SOLV>
0

>  <SCORE.SYSTEM.norm>
0

>  <SCORE.heavy>
42

>  <SCORE.norm>
0.24355

>  <RMSD>
18.138

$$$$
lig.pdb
 OpenBabel11021811453D
libRbt.so/2013.1/901 2013/11/27
 42 45  0  0  0  0  0  0  0  0999 V2000
   -6.0830  -10.1370    1.8277 C   0  0  2  0  0  0  0  0  0  0  0  0
   -6.6737  -11.0514    0.9023 O   0  0  0  0  0  0  0  0  0  0  0  0
   -6.9639   -9.9761    3.0759 C   0  0  2  0  0  0  0  0  0  0  0  0
   -7.2491  -11.2839    3.6944 N   0  0  0  0  0  0  0  0  0  0  0  0
   -8.2620   -9.2306    2.7403 C   0  0  1  0  0  0  0  0  0  0  0  0
   -8.9740   -8.9667    3.9340 O   0  0  0  0  0  0  0  0  0  0  0  0
   -7.9463   -7.9044    2.0322 C   0  0  2  0  0  0  0  0  0  0  0  0
   -9.1521   -7.3100    1.5916 O   0  0  0  0  0  0  0  0  0  0  0  0
   -6.9994   -8.1149    0.8334 C   0  0  2  0  0  0  0  0  0  0  0  0
   -5.8506   -8.8735    1.2101 O   0  0  0  0  0  0  0  0  0  0  0  0
   -6.5626   -6.7300    0.3192 C   0  0  0  0  0  0  0  0  0  0  0  0
   -5.5607   -6.8256   -0.7284 O   0  0  0  0  0  0  0  0  0  0  0  0
   -3.1765  -12.5835   -1.0859 C   0  0  2  0  0  0  0  0  0  0  0  0
   -2.4921  -13.5230   -1.9964 N   0  0  0  0  0  0  0  0  0  0  0  0
   -3.8371  -13.3450    0.0660 C   0  0  0  0  0  0  0  0  0  0  0  0
   -4.6624  -12.3997    0.9310 C   0  0  2  0  0  0  0  0  0  0  0  0
   -5.2111  -13.1195    2.0872 N   0  0  0  0  0  0  0  0  0  0  0  0
   -5.7743  -11.7791    0.0535 C   0  0  2  0  0  0  0  0  0  0  0  0
   -5.1324  -10.9047   -0.9756 C   0  0  2  0  0  0  0  0  0  0  0  0
   -6.1678  -10.3148   -1.7401 O   0  0  0  0  0  0  0  0  0  0  0  0
   -4.2117  -11.7358   -1.8490 C   0  0  1  0  0  0  0  0  0  0  0  0
   -3.5120  -10.9426   -2.7893 O   0  0  0  0  0  0  0  0  0  0  0  0
   -6.9847  -11.1760   -2.5262 C   0  0  1  0  0  0  0  0  0  0  0  0
   -7.8070  -10.3022   -3.4757 C   0  0  2  0  0  0  0  0  0  0  0  0
   -9.0904  -10.8742   -3.6450 O   0  0  0  0  0  0  0  0  0  0  0  0
   -6.9677  -10.3291   -4.7602 C   0  0  2  0  0  0  0  0  0  0  0  0
   -7.7269  -10.0015   -5.9242 O   0  0  0  0  0  0  0  0  0  0  0  0
   -6.4535  -11.7732   -4.7115 C   0  0  2  0  0  0  0  0  0  0  0  0
   -6.1627  -12.0032   -3.3401 O   0  0  0  0  0  0  0  0  0  0  0  0
   -5.1863  -12.0220   -5.5377 C   0  0  0  0  0  0  0  0  0  0  0  0
   -4.8173  -13.3847   -5.5263 O   0  0  0  0  0  0  0  0  0  0  0  0
   -7.8356   -8.6044   -6.1893 C   0  0  2  0  0  0  0  0  0  0  0  0
   -9.3012   -8.1495   -6.2612 C   0  0  2  0  0  0  0  0  0  0  0  0
  -10.0278   -8.5195   -5.0352 N   0  0  0  0  0  0  0  0  0  0  0  0
   -9.9934   -8.7057   -7.5146 C   0  0  1  0  0  0  0  0  0  0  0  0
  -11.3078   -8.1862   -7.5726 O   0  0  0  0  0  0  0  0  0  0  0  0
   -9.1923   -8.2613   -8.7502 C   0  0  2  0  0  0  0  0  0  0  0  0
   -9.7654   -8.7850   -9.9342 O   0  0  0  0  0  0  0  0  0  0  0  0
   -7.7142   -8.6868   -8.6330 C   0  0  1  0  0  0  0  0  0  0  0  0
   -7.1457   -8.2666   -7.3906 O   0  0  0  0  0  0  0  0  0  0  0  0
   -7.4896  -10.1844   -8.8893 C   0  0  0  0  0  0  0  0  0  0  0  0
   -7.0520  -10.4318  -10.2726 N   0  0  0  0  0  0  0  0  0  0  0  0
  1  3  1  0  0  0  0
  1  2  1  6  0  0  0
  3  4  1  6  0  0  0
  5  6  1  1  0  0  0
  5  3  1  0  0  0  0
  7  9  1  0  0  0  0
  7  5  1  0  0  0  0
  7  8  1  6  0  0  0
  9 10  1  0  0  0  0
  9 11  1  1  0  0  0
 10  1  1  0  0  0  0
 11 12  1  0  0  0  0
 13 14  1  6  0  0  0
 13 21  1  0  0  0  0
 15 13  1  0  0  0  0
 16 15  1  0  0  0  0
 16 18  1  0  0  0  0
 16 17  1  1  0  0  0
 18  2  1  1  0  0  0
 18 19  1  0  0  0  0
 19 21  1  0  0  0  0
 19 20  1  6  0  0  0
 21 22  1  6  0  0  0
 23 20  1  1  0  0  0
 23 29  1  0  0  0  0
 23 24  1  0  0  0  0
 24 26  1  0  0  0  0
 24 25  1  6  0  0  0
 26 27  1  6  0  0  0
 28 26  1  0  0  0  0
 28 30  1  6  0  0  0
 29 28  1  0  0  0  0
 30 31  1  0  0  0  0
 32 27  1  6  0  0  0
 32 40  1  0  0  0  0
 32 33  1  0  0  0  0
 33 35  1  0  0  0  0
 33 34  1  1  0  0  0
 35 37  1  0  0  0  0
 35 36  1  6  0  0  0
 37 38  1  6  0  0  0
 39 37  1  0  0  0  0
 39 41  1  1  0  0  0
 40 39  1  0  0  0  0
 42 41  1  0  0  0  0
M  END
>  <CHROM.1>
49.44839353,-151.43009779,66.08663038,171.80969999,-52.08677484,-53.33090444
174.23547557,-71.83328442,-154.40949553,-64.71274542,-167.84999803,-55.34651265
69.89656280,85.56837809,-122.90918174,-175.94649074,-146.35359509,59.69152239
-177.37629695,176.71710615,97.76122752,-145.00485147,-6.88497577,-10.14394969
-2.67866518,1.27380489,-0.75334045,1.47187051

>  <Name>
lig.pdb

>  <RI>
3.31443e+07

>  <Rbt.Current_Directory>
/home/itssahil/PROJECTS/Mol_Feturizer/New_Systems/rnas/2mxs

>  <Rbt.Executable>
rbdock ($Id: //depot/dev/client3/rdock/2013.1/src/exe/rbdock.cxx#4 $)

>  <Rbt.Library>
libRbt.so (2013.1, Build901 2013/11/27)

>  <Rbt.Parameter_File>
/export/apps/rDock/src/rDock_2013.1_src/data/scripts/dock_solv.prm

>  <Rbt.Receptor>
prm/blind_docking_40.prm

>  <SCORE>
12.6064

>  <SCORE.INTER>
-23.0484

>  <SCORE.INTER.CONST>
1

>  <SCORE.INTER.POLAR>
-4.35174

>  <SCORE.INTER.ROT>
9

>  <SCORE.INTER.SOLV>
25.694

>  <SCORE.INTER.VDW>
-19.0244

>  <SCORE.INTER.norm>
-0.548771

>  <SCORE.INTRA>
6.08051

>  <SCORE.INTRA.DIHEDRAL>
-1.38736

>  <SCORE.INTRA.DIHEDRAL.0>
30.1357

>  <SCORE.INTRA.POLAR>
0.0492658

>  <SCORE.INTRA.POLAR.0>
-0.631696

>  <SCORE.INTRA.REPUL>
0

>  <SCORE.INTRA.REPUL.0>
0

>  <SCORE.INTRA.SOLV>
0.677546

>  <SCORE.INTRA.SOLV.lig_0>
-55.904

>  <SCORE.INTRA.VDW>
6.26791

>  <SCORE.INTRA.VDW.0>
-8.21197

>  <SCORE.INTRA.norm>
0.144774

>  <SCORE.RESTR>
29.5743

>  <SCORE.RESTR.CAVITY>
29.5743

>  <SCORE.RESTR.norm>
0.70415

>  <SCORE.SYSTEM>
0

>  <SCORE.SYSTEM.CONST>
0

>  <SCORE.SYSTEM.DIHEDRAL>
0

>  <SCORE.SYSTEM.SOLV>
0

>  <SCORE.SYSTEM.norm>
0

>  <SCORE.heavy>
42

>  <SCORE.norm>
0.300153

>  <RMSD>
18.149

$$$$
lig.pdb
 OpenBabel11021811453D
libRbt.so/2013.1/901 2013/11/27
 42 45  0  0  0  0  0  0  0  0999 V2000
   -7.4944  -11.2889    1.5313 C   0  0  2  0  0  0  0  0  0  0  0  0
   -6.5282  -10.8503    0.5744 O   0  0  0  0  0  0  0  0  0  0  0  0
   -8.9125  -11.2290    0.9439 C   0  0  2  0  0  0  0  0  0  0  0  0
   -8.9957  -11.9897   -0.3166 N   0  0  0  0  0  0  0  0  0  0  0  0
   -9.3628   -9.7765    0.7414 C   0  0  1  0  0  0  0  0  0  0  0  0
  -10.7211   -9.7567    0.3460 O   0  0  0  0  0  0  0  0  0  0  0  0
   -9.2009   -8.9823    2.0463 C   0  0  2  0  0  0  0  0  0  0  0  0
   -9.4694   -7.6154    1.7992 O   0  0  0  0  0  0  0  0  0  0  0  0
   -7.7825   -9.1384    2.6311 C   0  0  2  0  0  0  0  0  0  0  0  0
   -7.4112  -10.5134    2.7243 O   0  0  0  0  0  0  0  0  0  0  0  0
   -7.7694   -8.4997    4.0329 C   0  0  0  0  0  0  0  0  0  0  0  0
   -7.8233   -7.0492    3.9745 O   0  0  0  0  0  0  0  0  0  0  0  0
   -2.8072  -12.8843   -0.1657 C   0  0  2  0  0  0  0  0  0  0  0  0
   -2.0154  -14.0627   -0.5719 N   0  0  0  0  0  0  0  0  0  0  0  0
   -3.6696  -13.2178    1.0542 C   0  0  0  0  0  0  0  0  0  0  0  0
   -4.5928  -12.0535    1.3934 C   0  0  2  0  0  0  0  0  0  0  0  0
   -5.3443  -12.3435    2.6211 N   0  0  0  0  0  0  0  0  0  0  0  0
   -5.5274  -11.8031    0.1871 C   0  0  2  0  0  0  0  0  0  0  0  0
   -4.6996  -11.3217   -0.9612 C   0  0  2  0  0  0  0  0  0  0  0  0
   -5.5781  -11.0591   -2.0400 O   0  0  0  0  0  0  0  0  0  0  0  0
   -3.6773  -12.3794   -1.3320 C   0  0  1  0  0  0  0  0  0  0  0  0
   -2.8094  -11.9421   -2.3608 O   0  0  0  0  0  0  0  0  0  0  0  0
   -5.0130  -10.9389   -3.3411 C   0  0  1  0  0  0  0  0  0  0  0  0
   -6.1361  -11.1459   -4.3596 C   0  0  2  0  0  0  0  0  0  0  0  0
   -5.6248  -11.8312   -5.4873 O   0  0  0  0  0  0  0  0  0  0  0  0
   -6.5625   -9.7066   -4.6787 C   0  0  2  0  0  0  0  0  0  0  0  0
   -7.2449   -9.5958   -5.9280 O   0  0  0  0  0  0  0  0  0  0  0  0
   -5.1985   -9.0074   -4.6254 C   0  0  2  0  0  0  0  0  0  0  0  0
   -4.5272   -9.6160   -3.5311 O   0  0  0  0  0  0  0  0  0  0  0  0
   -5.2716   -7.4948   -4.3857 C   0  0  0  0  0  0  0  0  0  0  0  0
   -5.6046   -6.7967   -5.5668 O   0  0  0  0  0  0  0  0  0  0  0  0
   -7.7270   -8.2875   -6.2279 C   0  0  2  0  0  0  0  0  0  0  0  0
   -9.1835   -8.0988   -5.7774 C   0  0  2  0  0  0  0  0  0  0  0  0
   -9.3362   -8.4102   -4.3464 N   0  0  0  0  0  0  0  0  0  0  0  0
  -10.1431   -8.9326   -6.6398 C   0  0  1  0  0  0  0  0  0  0  0  0
  -11.4701   -8.6536   -6.2373 O   0  0  0  0  0  0  0  0  0  0  0  0
   -9.9412   -8.5375   -8.1125 C   0  0  2  0  0  0  0  0  0  0  0  0
  -10.7741   -9.3099   -8.9575 O   0  0  0  0  0  0  0  0  0  0  0  0
   -8.4633   -8.6891   -8.5279 C   0  0  1  0  0  0  0  0  0  0  0  0
   -7.5924   -8.0103   -7.6201 O   0  0  0  0  0  0  0  0  0  0  0  0
   -8.0390  -10.1488   -8.7466 C   0  0  0  0  0  0  0  0  0  0  0  0
   -7.1425  -10.2785   -9.9067 N   0  0  0  0  0  0  0  0  0  0  0  0
  1  3  1  0  0  0  0
  1  2  1  6  0  0  0
  3  4  1  6  0  0  0
  5  6  1  1  0  0  0
  5  3  1  0  0  0  0
  7  9  1  0  0  0  0
  7  5  1  0  0  0  0
  7  8  1  6  0  0  0
  9 10  1  0  0  0  0
  9 11  1  1  0  0  0
 10  1  1  0  0  0  0
 11 12  1  0  0  0  0
 13 14  1  6  0  0  0
 13 21  1  0  0  0  0
 15 13  1  0  0  0  0
 16 15  1  0  0  0  0
 16 18  1  0  0  0  0
 16 17  1  1  0  0  0
 18  2  1  1  0  0  0
 18 19  1  0  0  0  0
 19 21  1  0  0  0  0
 19 20  1  6  0  0  0
 21 22  1  6  0  0  0
 23 20  1  1  0  0  0
 23 29  1  0  0  0  0
 23 24  1  0  0  0  0
 24 26  1  0  0  0  0
 24 25  1  6  0  0  0
 26 27  1  6  0  0  0
 28 26  1  0  0  0  0
 28 30  1  1  0  0  0
 29 28  1  0  0  0  0
 30 31  1  0  0  0  0
 32 27  1  6  0  0  0
 32 40  1  0  0  0  0
 32 33  1  0  0  0  0
 33 35  1  0  0  0  0
 33 34  1  1  0  0  0
 35 37  1  0  0  0  0
 35 36  1  1  0  0  0
 37 38  1  6  0  0  0
 39 37  1  0  0  0  0
 39 41  1  1  0  0  0
 40 39  1  0  0  0  0
 42 41  1  0  0  0  0
M  END
>  <CHROM.1>
-68.80653973,-119.14897060,63.70406257,-172.11725806,-60.79516845,-58.53613436
-72.29851167,50.52673305,-78.32781834,-163.37262285,160.68178513,93.68364205
-76.90486850,176.55646801,-93.48219580,-78.73494090,-178.99095878,61.53742751
63.33538733,173.56317417,140.53543507,56.12913798,-6.99862659,-10.06261333
-2.50479191,1.32964517,-0.54029263,1.63748859

>  <Name>
lig.pdb

>  <RI>
3.31443e+07

>  <Rbt.Current_Directory>
/home/itssahil/PROJECTS/Mol_Feturizer/New_Systems/rnas/2mxs

>  <Rbt.Executable>
rbdock ($Id: //depot/dev/client3/rdock/2013.1/src/exe/rbdock.cxx#4 $)

>  <Rbt.Library>
libRbt.so (2013.1, Build901 2013/11/27)

>  <Rbt.Parameter_File>
/export/apps/rDock/src/rDock_2013.1_src/data/scripts/dock_solv.prm

>  <Rbt.Receptor>
prm/blind_docking_40.prm

>  <SCORE>
12.1433

>  <SCORE.INTER>
-16.4461

>  <SCORE.INTER.CONST>
1

>  <SCORE.INTER.POLAR>
-1.84276

>  <SCORE.INTER.ROT>
9

>  <SCORE.INTER.SOLV>
28.3038

>  <SCORE.INTER.VDW>
-23.8561

>  <SCORE.INTER.norm>
-0.391574

>  <SCORE.INTRA>
6.29128

>  <SCORE.INTRA.DIHEDRAL>
-2.0942

>  <SCORE.INTRA.DIHEDRAL.0>
30.1357

>  <SCORE.INTRA.POLAR>
-0.0178524

>  <SCORE.INTRA.POLAR.0>
-0.631696

>  <SCORE.INTRA.REPUL>
0

>  <SCORE.INTRA.REPUL.0>
0

>  <SCORE.INTRA.SOLV>
-0.34783

>  <SCORE.INTRA.SOLV.lig_0>
-55.904

>  <SCORE.INTRA.VDW>
7.57299

>  <SCORE.INTRA.VDW.0>
-8.21197

>  <SCORE.INTRA.norm>
0.149792

>  <SCORE.RESTR>
22.2981

>  <SCORE.RESTR.CAVITY>
22.2981

>  <SCORE.RESTR.norm>
0.530908

>  <SCORE.SYSTEM>
0

>  <SCORE.SYSTEM.CONST>
0

>  <SCORE.SYSTEM.DIHEDRAL>
0

>  <SCORE.SYSTEM.SOLV>
0

>  <SCORE.SYSTEM.norm>
0

>  <SCORE.heavy>
42

>  <SCORE.norm>
0.289126

>  <RMSD>
18.149

$$$$
lig.pdb
 OpenBabel11021811453D
libRbt.so/2013.1/901 2013/11/27
 42 45  0  0  0  0  0  0  0  0999 V2000
   -7.2203   -9.8024   -0.5827 C   0  0  2  0  0  0  0  0  0  0  0  0
   -5.7925   -9.7506   -0.5910 O   0  0  0  0  0  0  0  0  0  0  0  0
   -7.8034   -8.6825    0.2923 C   0  0  2  0  0  0  0  0  0  0  0  0
   -7.2990   -7.3632   -0.1312 N   0  0  0  0  0  0  0  0  0  0  0  0
   -7.5085   -8.9344    1.7766 C   0  0  1  0  0  0  0  0  0  0  0  0
   -8.1869   -7.9715    2.5603 O   0  0  0  0  0  0  0  0  0  0  0  0
   -7.9761  -10.3407    2.1809 C   0  0  2  0  0  0  0  0  0  0  0  0
   -7.5547  -10.6123    3.5038 O   0  0  0  0  0  0  0  0  0  0  0  0
   -7.4226  -11.4172    1.2253 C   0  0  2  0  0  0  0  0  0  0  0  0
   -7.6765  -11.0773   -0.1374 O   0  0  0  0  0  0  0  0  0  0  0  0
   -8.1066  -12.7555    1.5639 C   0  0  0  0  0  0  0  0  0  0  0  0
   -7.3917  -13.8918    1.0089 O   0  0  0  0  0  0  0  0  0  0  0  0
   -2.7809  -12.8123   -0.2953 C   0  0  2  0  0  0  0  0  0  0  0  0
   -2.3437  -14.2026   -0.0583 N   0  0  0  0  0  0  0  0  0  0  0  0
   -3.4751  -12.2534    0.9492 C   0  0  0  0  0  0  0  0  0  0  0  0
   -4.0531  -10.8718    0.6667 C   0  0  2  0  0  0  0  0  0  0  0  0
   -4.6299  -10.3034    1.8915 N   0  0  0  0  0  0  0  0  0  0  0  0
   -5.1023  -11.0021   -0.4619 C   0  0  2  0  0  0  0  0  0  0  0  0
   -4.3972  -11.3939   -1.7208 C   0  0  2  0  0  0  0  0  0  0  0  0
   -5.3682  -11.4668   -2.7486 O   0  0  0  0  0  0  0  0  0  0  0  0
   -3.7062  -12.7300   -1.5239 C   0  0  1  0  0  0  0  0  0  0  0  0
   -2.9518  -13.1106   -2.6593 O   0  0  0  0  0  0  0  0  0  0  0  0
   -4.9886  -11.0350   -4.0511 C   0  0  1  0  0  0  0  0  0  0  0  0
   -6.1593  -11.3145   -4.9959 C   0  0  2  0  0  0  0  0  0  0  0  0
   -5.6575  -11.6984   -6.2622 O   0  0  0  0  0  0  0  0  0  0  0  0
   -6.8884   -9.9645   -5.0273 C   0  0  2  0  0  0  0  0  0  0  0  0
   -7.7172   -9.8099   -6.1797 O   0  0  0  0  0  0  0  0  0  0  0  0
   -5.6877   -9.0124   -4.9649 C   0  0  2  0  0  0  0  0  0  0  0  0
   -4.7916   -9.6267   -4.0494 O   0  0  0  0  0  0  0  0  0  0  0  0
   -6.0229   -7.6029   -4.4636 C   0  0  0  0  0  0  0  0  0  0  0  0
   -6.2706   -7.5904   -3.0738 O   0  0  0  0  0  0  0  0  0  0  0  0
   -8.0350   -8.4584   -6.5063 C   0  0  2  0  0  0  0  0  0  0  0  0
   -9.5503   -8.2458   -6.6437 C   0  0  2  0  0  0  0  0  0  0  0  0
  -10.2554   -8.6822   -5.4270 N   0  0  0  0  0  0  0  0  0  0  0  0
  -10.0978   -8.9503   -7.8941 C   0  0  1  0  0  0  0  0  0  0  0  0
  -11.4746   -8.6493   -8.0155 O   0  0  0  0  0  0  0  0  0  0  0  0
   -9.3306   -8.4290   -9.1211 C   0  0  2  0  0  0  0  0  0  0  0  0
   -9.7683   -9.0798  -10.2998 O   0  0  0  0  0  0  0  0  0  0  0  0
   -7.8094   -8.6089   -8.9393 C   0  0  1  0  0  0  0  0  0  0  0  0
   -7.3621   -8.0588   -7.6981 O   0  0  0  0  0  0  0  0  0  0  0  0
   -7.3415  -10.0598   -9.1255 C   0  0  0  0  0  0  0  0  0  0  0  0
   -7.4455  -10.4804  -10.5322 N   0  0  0  0  0  0  0  0  0  0  0  0
  1  3  1  0  0  0  0
  1  2  1  1  0  0  0
  3  4  1  6  0  0  0
  5  6  1  1  0  0  0
  5  3  1  0  0  0  0
  7  9  1  0  0  0  0
  7  5  1  0  0  0  0
  7  8  1  1  0  0  0
  9 10  1  0  0  0  0
  9 11  1  1  0  0  0
 10  1  1  0  0  0  0
 11 12  1  0  0  0  0
 13 14  1  1  0  0  0
 13 21  1  0  0  0  0
 15 13  1  0  0  0  0
 16 15  1  0  0  0  0
 16 18  1  0  0  0  0
 16 17  1  1  0  0  0
 18  2  1  6  0  0  0
 18 19  1  0  0  0  0
 19 21  1  0  0  0  0
 19 20  1  6  0  0  0
 21 22  1  6  0  0  0
 23 20  1  1  0  0  0
 23 29  1  0  0  0  0
 23 24  1  0  0  0  0
 24 26  1  0  0  0  0
 24 25  1  6  0  0  0
 26 27  1  6  0  0  0
 28 26  1  0  0  0  0
 28 30  1  1  0  0  0
 29 28  1  0  0  0  0
 30 31  1  0  0  0  0
 32 27  1  6  0  0  0
 32 40  1  0  0  0  0
 32 33  1  0  0  0  0
 33 35  1  0  0  0  0
 33 34  1  1  0  0  0
 35 37  1  0  0  0  0
 35 36  1  6  0  0  0
 37 38  1  6  0  0  0
 39 37  1  0  0  0  0
 39 41  1  1  0  0  0
 40 39  1  0  0  0  0
 42 41  1  0  0  0  0
M  END
>  <CHROM.1>
-129.06775409,136.65222391,158.34992282,59.94442832,-57.23482020,59.89653301
-163.06828874,179.08052738,-130.11255575,143.25632291,175.54868833,-178.71959336
-171.15397043,-159.06193419,-126.73846901,73.26144500,-52.99211015,-56.15635801
58.26967932,171.69514358,69.93025388,62.69248105,-6.71797533,-10.19615954
-3.01901021,1.21144237,-0.64633305,1.57353664

>  <Name>
lig.pdb

>  <RI>
3.31443e+07

>  <Rbt.Current_Directory>
/home/itssahil/PROJECTS/Mol_Feturizer/New_Systems/rnas/2mxs

>  <Rbt.Executable>
rbdock ($Id: //depot/dev/client3/rdock/2013.1/src/exe/rbdock.cxx#4 $)

>  <Rbt.Library>
libRbt.so (2013.1, Build901 2013/11/27)

>  <Rbt.Parameter_File>
/export/apps/rDock/src/rDock_2013.1_src/data/scripts/dock_solv.prm

>  <Rbt.Receptor>
prm/blind_docking_40.prm

>  <SCORE>
32.9501

>  <SCORE.INTER>
1.07502

>  <SCORE.INTER.CONST>
1

>  <SCORE.INTER.POLAR>
-1.03899

>  <SCORE.INTER.ROT>
9

>  <SCORE.INTER.SOLV>
24.4697

>  <SCORE.INTER.VDW>
-13.5766

>  <SCORE.INTER.norm>
0.0255957

>  <SCORE.INTRA>
6.29568

>  <SCORE.INTRA.DIHEDRAL>
4.44783

>  <SCORE.INTRA.DIHEDRAL.0>
30.1357

>  <SCORE.INTRA.POLAR>
-0.600801

>  <SCORE.INTRA.POLAR.0>
-0.631696

>  <SCORE.INTRA.REPUL>
0

>  <SCORE.INTRA.REPUL.0>
0

>  <SCORE.INTRA.SOLV>
1.19238

>  <SCORE.INTRA.SOLV.lig_0>
-55.904

>  <SCORE.INTRA.VDW>
5.51829

>  <SCORE.INTRA.VDW.0>
-8.21197

>  <SCORE.INTRA.norm>
0.149897

>  <SCORE.RESTR>
25.5794

>  <SCORE.RESTR.CAVITY>
25.5794

>  <SCORE.RESTR.norm>
0.609032

>  <SCORE.SYSTEM>
0

>  <SCORE.SYSTEM.CONST>
0

>  <SCORE.SYSTEM.DIHEDRAL>
0

>  <SCORE.SYSTEM.SOLV>
0

>  <SCORE.SYSTEM.norm>
0

>  <SCORE.heavy>
42

>  <SCORE.norm>
0.784525

>  <RMSD>
18.261

$$$$
lig.pdb
 OpenBabel11021811453D
libRbt.so/2013.1/901 2013/11/27
 42 45  0  0  0  0  0  0  0  0999 V2000
   -7.4863  -10.2252    0.1528 C   0  0  2  0  0  0  0  0  0  0  0  0
   -6.1725   -9.9595   -0.3420 O   0  0  0  0  0  0  0  0  0  0  0  0
   -7.7109   -9.5351    1.5067 C   0  0  2  0  0  0  0  0  0  0  0  0
   -7.4345   -8.0894    1.4160 N   0  0  0  0  0  0  0  0  0  0  0  0
   -6.8635  -10.1900    2.6051 C   0  0  1  0  0  0  0  0  0  0  0  0
   -7.2082   -9.6330    3.8591 O   0  0  0  0  0  0  0  0  0  0  0  0
   -7.1116  -11.7057    2.6360 C   0  0  2  0  0  0  0  0  0  0  0  0
   -6.2091  -12.3098    3.5426 O   0  0  0  0  0  0  0  0  0  0  0  0
   -6.9461  -12.3344    1.2376 C   0  0  2  0  0  0  0  0  0  0  0  0
   -7.7107  -11.6287    0.2607 O   0  0  0  0  0  0  0  0  0  0  0  0
   -7.4205  -13.7983    1.3115 C   0  0  0  0  0  0  0  0  0  0  0  0
   -6.6793  -14.5651    2.2978 O   0  0  0  0  0  0  0  0  0  0  0  0
   -3.0913  -12.5379   -1.8877 C   0  0  2  0  0  0  0  0  0  0  0  0
   -2.5602  -13.8604   -2.2739 N   0  0  0  0  0  0  0  0  0  0  0  0
   -3.4441  -12.5206   -0.3983 C   0  0  0  0  0  0  0  0  0  0  0  0
   -4.1227  -11.2087   -0.0225 C   0  0  2  0  0  0  0  0  0  0  0  0
   -4.3680  -11.1611    1.4244 N   0  0  0  0  0  0  0  0  0  0  0  0
   -5.4314  -11.0844   -0.8368 C   0  0  2  0  0  0  0  0  0  0  0  0
   -5.0777  -10.9396   -2.2823 C   0  0  2  0  0  0  0  0  0  0  0  0
   -6.2860  -10.7855   -3.0039 O   0  0  0  0  0  0  0  0  0  0  0  0
   -4.3148  -12.1660   -2.7463 C   0  0  1  0  0  0  0  0  0  0  0  0
   -3.8808  -12.0459   -4.0880 O   0  0  0  0  0  0  0  0  0  0  0  0
   -6.1957  -10.5330   -4.4021 C   0  0  1  0  0  0  0  0  0  0  0  0
   -7.6200  -10.4171   -4.9492 C   0  0  2  0  0  0  0  0  0  0  0  0
   -7.6684  -10.9727   -6.2499 O   0  0  0  0  0  0  0  0  0  0  0  0
   -7.8558   -8.9008   -4.9389 C   0  0  2  0  0  0  0  0  0  0  0  0
   -8.8962   -8.4965   -5.8294 O   0  0  0  0  0  0  0  0  0  0  0  0
   -6.4537   -8.4111   -5.3217 C   0  0  2  0  0  0  0  0  0  0  0  0
   -5.5697   -9.2751   -4.6214 O   0  0  0  0  0  0  0  0  0  0  0  0
   -6.1573   -6.9621   -4.9182 C   0  0  0  0  0  0  0  0  0  0  0  0
   -4.9442   -6.5045   -5.4769 O   0  0  0  0  0  0  0  0  0  0  0  0
   -9.4569   -9.5526   -6.6068 C   0  0  2  0  0  0  0  0  0  0  0  0
   -8.9950   -9.4908   -8.0707 C   0  0  2  0  0  0  0  0  0  0  0  0
   -7.5253   -9.4836   -8.1590 N   0  0  0  0  0  0  0  0  0  0  0  0
   -9.6078   -8.2825   -8.7948 C   0  0  1  0  0  0  0  0  0  0  0  0
   -9.2186   -8.3256  -10.1540 O   0  0  0  0  0  0  0  0  0  0  0  0
  -11.1389   -8.3710   -8.6783 C   0  0  2  0  0  0  0  0  0  0  0  0
  -11.7539   -7.2543   -9.2943 O   0  0  0  0  0  0  0  0  0  0  0  0
  -11.5756   -8.4809   -7.2029 C   0  0  1  0  0  0  0  0  0  0  0  0
  -10.8804   -9.5321   -6.5284 O   0  0  0  0  0  0  0  0  0  0  0  0
  -11.4842   -7.1509   -6.4403 C   0  0  0  0  0  0  0  0  0  0  0  0
  -11.6505   -6.0017   -7.3447 N   0  0  0  0  0  0  0  0  0  0  0  0
  1  3  1  0  0  0  0
  1  2  1  1  0  0  0
  3  4  1  6  0  0  0
  5  6  1  1  0  0  0
  5  3  1  0  0  0  0
  7  9  1  0  0  0  0
  7  5  1  0  0  0  0
  7  8  1  1  0  0  0
  9 10  1  0  0  0  0
  9 11  1  1  0  0  0
 10  1  1  0  0  0  0
 11 12  1  0  0  0  0
 13 14  1  6  0  0  0
 13 21  1  0  0  0  0
 15 13  1  0  0  0  0
 16 15  1  0  0  0  0
 16 18  1  0  0  0  0
 16 17  1  1  0  0  0
 18  2  1  1  0  0  0
 18 19  1  0  0  0  0
 19 21  1  0  0  0  0
 19 20  1  6  0  0  0
 21 22  1  6  0  0  0
 23 20  1  1  0  0  0
 23 29  1  0  0  0  0
 23 24  1  0  0  0  0
 24 26  1  0  0  0  0
 24 25  1  6  0  0  0
 26 27  1  6  0  0  0
 28 26  1  0  0  0  0
 28 30  1  1  0  0  0
 29 28  1  0  0  0  0
 30 31  1  0  0  0  0
 32 27  1  1  0  0  0
 32 40  1  0  0  0  0
 32 33  1  0  0  0  0
 33 35  1  0  0  0  0
 33 34  1  1  0  0  0
 35 37  1  0  0  0  0
 35 36  1  6  0  0  0
 37 38  1  1  0  0  0
 39 37  1  0  0  0  0
 39 41  1  1  0  0  0
 40 39  1  0  0  0  0
 42 41  1  0  0  0  0
M  END
>  <CHROM.1>
-121.13102033,133.21076813,-24.86685858,65.19517427,67.53545751,-57.37184758
-58.27463019,-153.55592835,70.56729237,175.59303692,179.59254834,63.48961749
68.07875361,-3.50089060,-105.94124778,-170.74128837,83.96792094,169.35408917
-60.33117447,74.47666501,27.88222299,164.32198764,-7.18588909,-10.09975779
-3.09462779,1.12877398,-0.51935281,1.71468356

>  <Name>
lig.pdb

>  <RI>
3.31443e+07

>  <Rbt.Current_Directory>
/home/itssahil/PROJECTS/Mol_Feturizer/New_Systems/rnas/2mxs

>  <Rbt.Executable>
rbdock ($Id: //depot/dev/client3/rdock/2013.1/src/exe/rbdock.cxx#4 $)

>  <Rbt.Library>
libRbt.so (2013.1, Build901 2013/11/27)

>  <Rbt.Parameter_File>
/export/apps/rDock/src/rDock_2013.1_src/data/scripts/dock_solv.prm

>  <Rbt.Receptor>
prm/blind_docking_40.prm

>  <SCORE>
32.0947

>  <SCORE.INTER>
-16.9113

>  <SCORE.INTER.CONST>
1

>  <SCORE.INTER.POLAR>
-4.31365

>  <SCORE.INTER.ROT>
9

>  <SCORE.INTER.SOLV>
27.0248

>  <SCORE.INTER.VDW>
-15.5037

>  <SCORE.INTER.norm>
-0.40265

>  <SCORE.INTRA>
26.9841

>  <SCORE.INTRA.DIHEDRAL>
9.62631

>  <SCORE.INTRA.DIHEDRAL.0>
30.1357

>  <SCORE.INTRA.POLAR>
-0.431765

>  <SCORE.INTRA.POLAR.0>
-0.631696

>  <SCORE.INTRA.REPUL>
0

>  <SCORE.INTRA.REPUL.0>
0

>  <SCORE.INTRA.SOLV>
3.4819

>  <SCORE.INTRA.SOLV.lig_0>
-55.904

>  <SCORE.INTRA.VDW>
21.898

>  <SCORE.INTRA.VDW.0>
-8.21197

>  <SCORE.INTRA.norm>
0.642478

>  <SCORE.RESTR>
22.0219

>  <SCORE.RESTR.CAVITY>
22.0219

>  <SCORE.RESTR.norm>
0.524332

>  <SCORE.SYSTEM>
0

>  <SCORE.SYSTEM.CONST>
0

>  <SCORE.SYSTEM.DIHEDRAL>
0

>  <SCORE.SYSTEM.SOLV>
0

>  <SCORE.SYSTEM.norm>
0

>  <SCORE.heavy>
42

>  <SCORE.norm>
0.764159

>  <RMSD>
18.481

$$$$
lig.pdb
 OpenBabel11021811453D
libRbt.so/2013.1/901 2013/11/27
 42 45  0  0  0  0  0  0  0  0999 V2000
   -7.2359  -10.8043   -0.0293 C   0  0  2  0  0  0  0  0  0  0  0  0
   -6.4860   -9.7906   -0.7014 O   0  0  0  0  0  0  0  0  0  0  0  0
   -8.5510  -10.2355    0.5243 C   0  0  2  0  0  0  0  0  0  0  0  0
   -9.3339   -9.5807   -0.5400 N   0  0  0  0  0  0  0  0  0  0  0  0
   -8.2864   -9.2701    1.6869 C   0  0  1  0  0  0  0  0  0  0  0  0
   -9.5178   -8.8865    2.2683 O   0  0  0  0  0  0  0  0  0  0  0  0
   -7.4097   -9.9468    2.7514 C   0  0  2  0  0  0  0  0  0  0  0  0
   -7.0470   -8.9952    3.7335 O   0  0  0  0  0  0  0  0  0  0  0  0
   -6.1411  -10.5650    2.1297 C   0  0  2  0  0  0  0  0  0  0  0  0
   -6.4646  -11.3944    1.0141 O   0  0  0  0  0  0  0  0  0  0  0  0
   -5.4360  -11.4026    3.2135 C   0  0  0  0  0  0  0  0  0  0  0  0
   -6.2631  -12.5016    3.6809 O   0  0  0  0  0  0  0  0  0  0  0  0
   -3.7962  -10.4025   -4.0062 C   0  0  2  0  0  0  0  0  0  0  0  0
   -3.4550  -10.9484   -5.3350 N   0  0  0  0  0  0  0  0  0  0  0  0
   -4.1408  -11.5367   -3.0376 C   0  0  0  0  0  0  0  0  0  0  0  0
   -4.6295  -10.9765   -1.7071 C   0  0  2  0  0  0  0  0  0  0  0  0
   -4.8636  -12.0677   -0.7530 N   0  0  0  0  0  0  0  0  0  0  0  0
   -5.9095  -10.1482   -1.9659 C   0  0  2  0  0  0  0  0  0  0  0  0
   -5.5413   -8.9501   -2.7810 C   0  0  2  0  0  0  0  0  0  0  0  0
   -6.7175   -8.1852   -2.9707 O   0  0  0  0  0  0  0  0  0  0  0  0
   -4.9574   -9.3957   -4.1083 C   0  0  1  0  0  0  0  0  0  0  0  0
   -4.5129   -8.3012   -4.8877 O   0  0  0  0  0  0  0  0  0  0  0  0
   -7.8596   -8.8466   -3.5048 C   0  0  1  0  0  0  0  0  0  0  0  0
   -8.0203   -8.4006   -4.9596 C   0  0  2  0  0  0  0  0  0  0  0  0
   -9.3977   -8.3029   -5.2698 O   0  0  0  0  0  0  0  0  0  0  0  0
   -7.3135   -9.5241   -5.7299 C   0  0  2  0  0  0  0  0  0  0  0  0
   -7.7264   -9.6041   -7.0944 O   0  0  0  0  0  0  0  0  0  0  0  0
   -7.7082  -10.7280   -4.8657 C   0  0  2  0  0  0  0  0  0  0  0  0
   -7.6312  -10.2499   -3.5300 O   0  0  0  0  0  0  0  0  0  0  0  0
   -6.7853  -11.9432   -5.0136 C   0  0  0  0  0  0  0  0  0  0  0  0
   -7.0588  -12.9259   -4.0376 O   0  0  0  0  0  0  0  0  0  0  0  0
   -8.7939   -8.7257   -7.4449 C   0  0  2  0  0  0  0  0  0  0  0  0
  -10.1292   -9.4741   -7.5757 C   0  0  2  0  0  0  0  0  0  0  0  0
  -10.4350  -10.2235   -6.3457 N   0  0  0  0  0  0  0  0  0  0  0  0
  -10.1325  -10.3907   -8.8083 C   0  0  1  0  0  0  0  0  0  0  0  0
  -11.4109  -10.9847   -8.9257 O   0  0  0  0  0  0  0  0  0  0  0  0
   -9.8284   -9.5363  -10.0506 C   0  0  2  0  0  0  0  0  0  0  0  0
   -9.7770  -10.3425  -11.2132 O   0  0  0  0  0  0  0  0  0  0  0  0
   -8.5083   -8.7574   -9.8761 C   0  0  1  0  0  0  0  0  0  0  0  0
   -8.4916   -8.0244   -8.6490 O   0  0  0  0  0  0  0  0  0  0  0  0
   -7.2580   -9.6346  -10.0374 C   0  0  0  0  0  0  0  0  0  0  0  0
   -6.1953   -8.9244  -10.7671 N   0  0  0  0  0  0  0  0  0  0  0  0
  1  3  1  0  0  0  0
  1  2  1  1  0  0  0
  3  4  1  6  0  0  0
  5  6  1  1  0  0  0
  5  3  1  0  0  0  0
  7  9  1  0  0  0  0
  7  5  1  0  0  0  0
  7  8  1  1  0  0  0
  9 10  1  0  0  0  0
  9 11  1  1  0  0  0
 10  1  1  0  0  0  0
 11 12  1  0  0  0  0
 13 14  1  6  0  0  0
 13 21  1  0  0  0  0
 15 13  1  0  0  0  0
 16 15  1  0  0  0  0
 16 18  1  0  0  0  0
 16 17  1  1  0  0  0
 18  2  1  1  0  0  0
 18 19  1  0  0  0  0
 19 21  1  0  0  0  0
 19 20  1  6  0  0  0
 21 22  1  1  0  0  0
 23 20  1  6  0  0  0
 23 29  1  0  0  0  0
 23 24  1  0  0  0  0
 24 26  1  0  0  0  0
 24 25  1  6  0  0  0
 26 27  1  6  0  0  0
 28 26  1  0  0  0  0
 28 30  1  1  0  0  0
 29 28  1  0  0  0  0
 30 31  1  0  0  0  0
 32 27  1  6  0  0  0
 32 40  1  0  0  0  0
 32 33  1  0  0  0  0
 33 35  1  0  0  0  0
 33 34  1  1  0  0  0
 35 37  1  0  0  0  0
 35 36  1  6  0  0  0
 37 38  1  6  0  0  0
 39 37  1  0  0  0  0
 39 41  1  1  0  0  0
 40 39  1  0  0  0  0
 42 41  1  0  0  0  0
M  END
>  <CHROM.1>
-78.62175620,-135.33925779,-171.24833548,61.68999574,135.81246830,-149.29481673
62.09320584,77.85057824,51.84998703,-53.17921724,-105.83083081,-176.41805159
68.06240394,-5.73552335,-104.06819627,169.95819137,76.21236242,168.69107265
-54.08021429,65.12948703,140.63680841,-32.08289052,-7.33470682,-10.01316701
-3.69949684,1.38448745,-0.19336105,1.62164127

>  <Name>
lig.pdb

>  <RI>
3.31443e+07

>  <Rbt.Current_Directory>
/home/itssahil/PROJECTS/Mol_Feturizer/New_Systems/rnas/2mxs

>  <Rbt.Executable>
rbdock ($Id: //depot/dev/client3/rdock/2013.1/src/exe/rbdock.cxx#4 $)

>  <Rbt.Library>
libRbt.so (2013.1, Build901 2013/11/27)

>  <Rbt.Parameter_File>
/export/apps/rDock/src/rDock_2013.1_src/data/scripts/dock_solv.prm

>  <Rbt.Receptor>
prm/blind_docking_40.prm

>  <SCORE>
37.6318

>  <SCORE.INTER>
-17.3063

>  <SCORE.INTER.CONST>
1

>  <SCORE.INTER.POLAR>
-4.8704

>  <SCORE.INTER.ROT>
9

>  <SCORE.INTER.SOLV>
24.1246

>  <SCORE.INTER.VDW>
-12.9444

>  <SCORE.INTER.norm>
-0.412054

>  <SCORE.INTRA>
29.8386

>  <SCORE.INTRA.DIHEDRAL>
16.2085

>  <SCORE.INTRA.DIHEDRAL.0>
30.1357

>  <SCORE.INTRA.POLAR>
-0.595168

>  <SCORE.INTRA.POLAR.0>
-0.631696

>  <SCORE.INTRA.REPUL>
0

>  <SCORE.INTRA.REPUL.0>
0

>  <SCORE.INTRA.SOLV>
3.41393

>  <SCORE.INTRA.SOLV.lig_0>
-55.904

>  <SCORE.INTRA.VDW>
22.0509

>  <SCORE.INTRA.VDW.0>
-8.21197

>  <SCORE.INTRA.norm>
0.710442

>  <SCORE.RESTR>
25.0995

>  <SCORE.RESTR.CAVITY>
25.0995

>  <SCORE.RESTR.norm>
0.597607

>  <SCORE.SYSTEM>
0

>  <SCORE.SYSTEM.CONST>
0

>  <SCORE.SYSTEM.DIHEDRAL>
0

>  <SCORE.SYSTEM.SOLV>
0

>  <SCORE.SYSTEM.norm>
0

>  <SCORE.heavy>
42

>  <SCORE.norm>
0.895995

>  <RMSD>
18.645

$$$$
