@<TRIPOS>MOLECULE
2mxs_rdock.pdb
 851 914 0 0 0
SMALL
GASTEIGER

@<TRIPOS>ATOM
      1  O5'      -15.9010   -9.0760    2.8960 O.3     1  G1         -0.2320
      2  C5'      -14.5630   -8.6050    2.9670 C.3     1  G1          0.1116
      3  C4'      -13.9940   -8.9110    4.3200 C.3     1  G1          0.1165
      4  O4'      -13.8540  -10.3210    4.4270 O.3     1  G1         -0.3455
      5  C3'      -12.6200   -8.3550    4.6670 C.3     1  G1          0.1242
      6  O3'      -12.6450   -7.0100    5.0890 O.3     1  G1         -0.3187
      7  C2'      -12.2290   -9.2890    5.8020 C.3     1  G1          0.1292
      8  O2'      -12.8430   -8.9380    7.0290 O.3     1  G1         -0.3846
      9  C1'      -12.8080  -10.6210    5.3330 C.3     1  G1          0.1667
     10   N9      -11.7560  -11.4320    4.6880 N.ar    1  G1         -0.2854
     11   C8      -11.4340  -11.5020    3.3600 C.ar    1  G1          0.1005
     12   N7      -10.3970  -12.2560    3.1100 N.ar    1  G1         -0.2286
     13   C5       -9.9590  -12.6640    4.3710 C.ar    1  G1          0.1721
     14   C6       -8.8100  -13.4290    4.7650 C.ar    1  G1          0.2803
     15   O6       -7.9230  -13.9000    4.0590 O.2     1  G1         -0.2654
     16   N.1      -8.7310  -13.6100    6.1400 N.ar    1  G1         -0.2934
     17   C.2      -9.6550  -13.1330    7.0380 C.ar    1  G1          0.1950
     18   N.2      -9.5180  -13.4330    8.3220 N.pl3   1  G1         -0.3289
     19   N.3     -10.7500  -12.4380    6.6860 N.ar    1  G1         -0.1963
     20   C4      -10.8220  -12.2050    5.3390 C.ar    1  G1          0.1712
     21  H5'      -14.5100   -7.5370    2.7550 H       1  G1          0.0618
     22 H5''      -13.9300   -9.1800    2.3310 H       1  G1          0.0618
     23  H4'      -14.6950   -8.5480    5.0350 H       1  G1          0.0648
     24  H3'      -11.9490   -8.4870    3.8170 H       1  G1          0.0655
     25  H2'      -11.1470   -9.3310    5.9160 H       1  G1          0.0666
     26 HO2'      -12.2920   -9.3690    7.7220 H       1  G1          0.2101
     27  H1'      -13.2330  -11.1610    6.1630 H       1  G1          0.0866
     28   H8      -12.0110  -10.9760    2.6090 H       1  G1          0.1030
     29   H1       -7.8980  -14.0850    6.4730 H       1  G1          0.1716
     30  H21       -8.6910  -13.9480    8.6370 H       1  G1          0.1451
     31  H22      -10.1980  -13.1620    9.0140 H       1  G1          0.1451
     32    P.3    -11.3210   -6.1420    5.2020 P.3     2  G2          0.2131
     33  OP1      -11.7850   -4.7430    5.3430 O.3     2  G2         -0.4373
     34  OP2      -10.3910   -6.4650    4.1020 O.2     2  G2         -0.5172
     35  O5'      -10.6170   -6.5880    6.5650 O.3     2  G2         -0.3248
     36  C5'      -11.1450   -6.2120    7.8240 C.3     2  G2          0.0837
     37  C4'      -10.2540   -6.6420    8.9870 C.3     2  G2          0.1139
     38  O4'      -10.1260   -8.0510    9.0720 O.3     2  G2         -0.3456
     39  C3'       -8.8340   -6.0990    8.8980 C.3     2  G2          0.1241
     40  O3'       -8.7300   -4.7990    9.4570 O.3     2  G2         -0.3187
     41  C2'       -8.0780   -7.1010    9.7580 C.3     2  G2          0.1292
     42  O2'       -8.2840   -6.7730   11.1230 O.3     2  G2         -0.3846
     43  C1'       -8.7910   -8.4050    9.4320 C.3     2  G2          0.1667
     44   N9       -8.1250   -9.1480    8.3350 N.ar    2  G2         -0.2854
     45   C8       -8.5040   -9.2950    7.0250 C.ar    2  G2          0.1005
     46   N7       -7.8060  -10.1800    6.3610 N.ar    2  G2         -0.2286
     47   C5       -6.8420  -10.5930    7.2760 C.ar    2  G2          0.1721
     48   C6       -5.7650  -11.5260    7.1350 C.ar    2  G2          0.2803
     49   O6       -5.4870  -12.2340    6.1690 O.2     2  G2         -0.2654
     50   N.1      -4.9660  -11.6010    8.2680 N.ar    2  G2         -0.2934
     51   C.2      -5.2060  -10.8930    9.4260 C.ar    2  G2          0.1950
     52   N.2      -4.3390  -10.9880   10.4190 N.pl3   2  G2         -0.3289
     53   N.3      -6.2420  -10.0630    9.5970 N.ar    2  G2         -0.1963
     54   C4       -7.0150   -9.9420    8.4780 C.ar    2  G2          0.1712
     55  H5'      -12.1400   -6.6370    7.9450 H       2  G2          0.0591
     56 H5''      -11.2240   -5.1280    7.8600 H       2  G2          0.0591
     57  H4'      -10.7020   -6.2710    9.9120 H       2  G2          0.0647
     58  H3'       -8.4780   -6.1300    7.8660 H       2  G2          0.0655
     59  H2'       -7.0190   -7.1370    9.5070 H       2  G2          0.0666
     60 HO2'       -8.3840   -5.8110   11.1330 H       2  G2          0.2101
     61  H1'       -8.7740   -9.0440   10.3130 H       2  G2          0.0866
     62   H8       -9.3280   -8.7350    6.6070 H       2  G2          0.1030
     63   H1       -4.1340  -12.1690    8.1650 H       2  G2          0.1716
     64  H21       -3.4600  -11.4940   10.3280 H       2  G2          0.1451
     65  H22       -4.4720  -10.4000   11.2350 H       2  G2          0.1451
     66    P.3     -7.5790   -3.8020    8.9860 P.3     3  C.3         0.2131
     67  OP1       -7.7610   -2.5590    9.7630 O.3     3  C.3        -0.4373
     68  OP2       -7.5860   -3.7250    7.5150 O.2     3  C.3        -0.5172
     69  O5'       -6.2280   -4.4980    9.4280 O.3     3  C.3        -0.3248
     70  C5'       -5.7270   -4.4540   10.7550 C.3     3  C.3         0.0837
     71  C4'       -4.4820   -5.3480   10.8000 C.3     3  C.3         0.1139
     72  O4'       -4.7710   -6.6310   10.2690 O.3     3  C.3        -0.3456
     73  C3'       -3.3650   -4.7870    9.9370 C.3     3  C.3         0.1241
     74  O3'       -2.6220   -3.9000   10.7570 O.3     3  C.3        -0.3187
     75  C2'       -2.5800   -6.0460    9.5890 C.3     3  C.3         0.1293
     76  O2'       -1.5450   -6.3520   10.4940 O.3     3  C.3        -0.3846
     77  C1'       -3.6540   -7.1310    9.5470 C.3     3  C.3         0.1680
     78   N.1      -3.9660   -7.5570    8.1590 N.ar    3  C.3        -0.2700
     79   C.2      -3.2000   -8.5980    7.6330 C.ar    3  C.3         0.3522
     80   O.2      -2.2910   -9.1340    8.2800 O.2     3  C.3        -0.2444
     81   N.3      -3.4490   -9.0430    6.3760 N.ar    3  C.3        -0.1783
     82   C4       -4.4220   -8.4900    5.6390 C.ar    3  C.3         0.1230
     83   N.4      -4.6070   -8.9680    4.4220 N.pl3   3  C.3        -0.3430
     84   C5       -5.2080   -7.4020    6.1390 C.ar    3  C.3        -0.0056
     85   C6       -4.9440   -6.9600    7.3950 C.ar    3  C.3         0.0152
     86  H5'       -6.4750   -4.8330   11.4470 H       3  C.3         0.0591
     87 H5''       -5.4660   -3.4290   11.0190 H       3  C.3         0.0591
     88  H4'       -4.1230   -5.4470   11.8260 H       3  C.3         0.0647
     89  H3'       -3.7590   -4.2990    9.0420 H       3  C.3         0.0655
     90  H2'       -2.1390   -5.9250    8.6020 H       3  C.3         0.0666
     91 HO2'       -0.7540   -5.9990   10.0540 H       3  C.3         0.2101
     92  H1'       -3.2790   -8.0100   10.0720 H       3  C.3         0.0867
     93  H41       -4.0490   -9.7410    4.0730 H       3  C.3         0.1437
     94  H42       -5.3290   -8.5920    3.8200 H       3  C.3         0.1437
     95   H5       -5.9820   -6.9130    5.5590 H       3  C.3         0.0666
     96   H6       -5.5060   -6.1320    7.7990 H       3  C.3         0.0812
     97    P.3     -1.7660   -2.7010   10.1840 P.3     4  U4          0.2131
     98  OP1       -1.1440   -2.0920   11.3840 O.3     4  U4         -0.4373
     99  OP2       -2.6510   -1.8770    9.3380 O.2     4  U4         -0.5172
    100  O5'       -0.6330   -3.4080    9.3000 O.3     4  U4         -0.3248
    101  C5'        0.5980   -3.8070    9.8790 C.3     4  U4          0.0837
    102  C4'        1.3800   -4.7710    8.9790 C.3     4  U4          0.1139
    103  O4'        0.5300   -5.8030    8.5000 O.3     4  U4         -0.3456
    104  C3'        1.9820   -4.1360    7.7340 C.3     4  U4          0.1241
    105  O3'        3.2120   -3.5160    8.0910 O.3     4  U4         -0.3187
    106  C2'        2.1820   -5.3590    6.8310 C.3     4  U4          0.1293
    107  O2'        3.3930   -6.0610    7.0980 O.3     4  U4         -0.3846
    108  C1'        0.9900   -6.2500    7.2240 C.3     4  U4          0.1680
    109   N.1      -0.0810   -6.2910    6.1880 N.ar    4  U4         -0.2715
    110   C.2       0.0290   -7.2700    5.1960 C.ar    4  U4          0.3314
    111   O.2       0.9310   -8.1140    5.1880 O.2     4  U4         -0.2464
    112   N.3      -0.9490   -7.2650    4.2150 N.ar    4  U4         -0.2749
    113   C4       -2.0420   -6.4160    4.1490 C.ar    4  U4          0.2539
    114   O4       -2.8470   -6.4940    3.2180 O.2     4  U4         -0.2677
    115   C5       -2.1250   -5.4830    5.2530 C.ar    4  U4          0.0192
    116   C6       -1.1590   -5.4340    6.2070 C.ar    4  U4          0.0171
    117  H5'        0.3950   -4.3080   10.8240 H       4  U4          0.0591
    118 H5''        1.2100   -2.9270   10.0770 H       4  U4          0.0591
    119  H4'        2.1940   -5.2050    9.5620 H       4  U4          0.0647
    120  H3'        1.2660   -3.4420    7.2960 H       4  U4          0.0655
    121  H2'        2.1330   -5.0680    5.7770 H       4  U4          0.0666
    122 HO2'        3.7170   -6.4100    6.2400 H       4  U4          0.2101
    123  H1'        1.3480   -7.2740    7.3400 H       4  U4          0.0867
    124   H3       -0.7900   -7.8870    3.4320 H       4  U4          0.1734
    125   H5       -2.9530   -4.7840    5.2840 H       4  U4          0.0686
    126   H6       -1.2320   -4.7000    6.9910 H       4  U4          0.0813
    127    P.3      3.7860   -2.2250    7.3510 P.3     5  G5          0.2131
    128  OP1        4.7100   -1.5920    8.3200 O.3     5  G5         -0.4373
    129  OP2        2.6560   -1.4390    6.8370 O.2     5  G5         -0.5172
    130  O5'        4.6570   -2.7350    6.1080 O.3     5  G5         -0.3248
    131  C5'        5.9030   -3.3790    6.3010 C.3     5  G5          0.0837
    132  C4'        6.6500   -3.7010    4.9950 C.3     5  G5          0.1139
    133  O4'        5.8380   -4.4570    4.1120 O.3     5  G5         -0.3456
    134  C3'        7.0900   -2.4710    4.2120 C.3     5  G5          0.1241
    135  O3'        8.3060   -2.7610    3.5190 O.3     5  G5         -0.3187
    136  C2'        5.9220   -2.2570    3.2460 C.3     5  G5          0.1292
    137  O2'        6.3510   -1.5490    2.0940 O.3     5  G5         -0.3846
    138  C1'        5.4650   -3.6940    2.9630 C.3     5  G5          0.1667
    139   N9        4.0040   -3.8440    2.6950 N.ar    5  G5         -0.2854
    140   C8        2.9460   -3.3870    3.4440 C.ar    5  G5          0.1005
    141   N7        1.7740   -3.7580    3.0060 N.ar    5  G5         -0.2286
    142   C5        2.0550   -4.4420    1.8270 C.ar    5  G5          0.1721
    143   C6        1.1590   -5.0270    0.8650 C.ar    5  G5          0.2803
    144   O6       -0.0750   -5.0690    0.8840 O.2     5  G5         -0.2654
    145   N.1       1.8350   -5.6160   -0.1960 N.ar    5  G5         -0.2934
    146   C.2       3.2090   -5.6680   -0.3120 C.ar    5  G5          0.1950
    147   N.2       3.7100   -6.3060   -1.3660 N.pl3   5  G5         -0.3289
    148   N.3       4.0620   -5.1720    0.6090 N.ar    5  G5         -0.1963
    149   C4        3.4220   -4.5290    1.6390 C.ar    5  G5          0.1712
    150  H5'        5.7250   -4.2990    6.8520 H       5  G5          0.0591
    151 H5''        6.5430   -2.7400    6.9100 H       5  G5          0.0591
    152  H4'        7.5380   -4.2790    5.2640 H       5  G5          0.0647
    153  H3'        7.2110   -1.6000    4.8540 H       5  G5          0.0655
    154  H2'        5.1320   -1.7030    3.7590 H       5  G5          0.0666
    155 HO2'        5.5680   -1.1400    1.6560 H       5  G5          0.2101
    156  H1'        6.0110   -4.0710    2.0960 H       5  G5          0.0866
    157   H8        3.0740   -2.7950    4.3400 H       5  G5          0.1030
    158   H1        1.2390   -5.9860   -0.9280 H       5  G5          0.1716
    159  H21        3.0930   -6.7160   -2.0690 H       5  G5          0.1451
    160  H22        4.7150   -6.3220   -1.5390 H       5  G5          0.1451
    161    P.3      9.7170   -2.2030    4.0390 P.3     6  C6          0.2131
    162  OP1       10.7340   -2.4960    3.0080 O.2     6  C6         -0.5172
    163  OP2        9.9550   -2.7400    5.4010 O.3     6  C6         -0.4373
    164  O5'        9.5720   -0.6220    4.1720 O.3     6  C6         -0.3248
    165  C5'        9.6220    0.2260    3.0360 C.3     6  C6          0.0837
    166  C4'        9.7840    1.7180    3.3750 C.3     6  C6          0.1139
    167  O4'        8.5360    2.3780    3.2120 O.3     6  C6         -0.3456
    168  C3'       10.2140    2.0480    4.8090 C.3     6  C6          0.1241
    169  O3'       11.6170    2.0920    5.0140 O.3     6  C6         -0.3187
    170  C2'        9.6410    3.4410    4.9990 C.3     6  C6          0.1293
    171  O2'       10.4880    4.3940    4.3610 O.3     6  C6         -0.3846
    172  C1'        8.2910    3.2770    4.2860 C.3     6  C6          0.1680
    173   N.1       7.2450    2.7390    5.2170 N.ar    6  C6         -0.2700
    174   C.2       6.7290    3.6000    6.1870 C.ar    6  C6          0.3522
    175   O.2       7.0400    4.7940    6.2090 O.2     6  C6         -0.2444
    176   N.3       5.8750    3.1210    7.1420 N.ar    6  C6         -0.1783
    177   C4        5.4700    1.8430    7.1020 C.ar    6  C6          0.1230
    178   N.4       4.6670    1.4100    8.0640 N.pl3   6  C6         -0.3430
    179   C5        5.9290    0.9480    6.0830 C.ar    6  C6         -0.0056
    180   C6        6.8010    1.4350    5.1650 C.ar    6  C6          0.0152
    181  H5'        8.7150    0.0900    2.4480 H       6  C6          0.0591
    182 H5''       10.4590   -0.0800    2.4190 H       6  C6          0.0591
    183  H4'       10.5040    2.1620    2.6770 H       6  C6          0.0647
    184  H3'        9.7160    1.3720    5.5040 H       6  C6          0.0655
    185  H2'        9.5200    3.6830    6.0560 H       6  C6          0.0666
    186 HO2'       11.1490    3.9020    3.8350 H       6  C6          0.2101
    187  H1'        7.9460    4.2440    3.9090 H       6  C6          0.0867
    188  H41        4.3380    2.0350    8.7850 H       6  C6          0.1437
    189  H42        4.3750    0.4330    8.0750 H       6  C6          0.1437
    190   H5        5.5960   -0.0780    6.0100 H       6  C6          0.0666
    191   H6        7.1500    0.7870    4.3760 H       6  C6          0.0812
    192    P.3     12.2950    1.5060    6.3230 P.3     7  U7          0.2131
    193  OP1       11.3320    0.6950    7.0890 O.3     7  U7         -0.4373
    194  OP2       13.0260    2.6060    6.9980 O.2     7  U7         -0.5172
    195  O5'       13.4000    0.4910    5.7840 O.3     7  U7         -0.3248
    196  C5'       13.2390   -0.1360    4.5270 C.3     7  U7          0.0837
    197  C4'       14.0320    0.6590    3.4770 C.3     7  U7          0.1139
    198  O4'       15.2990    0.0520    3.2800 O.3     7  U7         -0.3456
    199  C3'       13.3790    0.6980    2.0960 C.3     7  U7          0.1241
    200  O3'       13.8530    1.7660    1.2930 O.3     7  U7         -0.3187
    201  C2'       13.8760   -0.6220    1.5290 C.3     7  U7          0.1293
    202  O2'       13.7420   -0.7060    0.1270 O.3     7  U7         -0.3846
    203  C1'       15.3240   -0.6120    2.0240 C.3     7  U7          0.1680
    204   N.1      15.9050   -1.9680    2.1730 N.ar    7  U7         -0.2715
    205   C.2      17.1560   -2.2270    1.6050 C.ar    7  U7          0.3314
    206   O.2      17.8510   -1.3590    1.0710 O.2     7  U7         -0.2464
    207   N.3      17.6080   -3.5390    1.6950 N.ar    7  U7         -0.2749
    208   C4       16.9500   -4.5790    2.3300 C.ar    7  U7          0.2539
    209   O4       17.4390   -5.7100    2.3640 O.2     7  U7         -0.2677
    210   C5       15.6900   -4.2130    2.9370 C.ar    7  U7          0.0192
    211   C6       15.2180   -2.9440    2.8520 C.ar    7  U7          0.0171
    212  H5'       12.1830   -0.1880    4.2610 H       7  U7          0.0591
    213 H5''       13.6190   -1.1510    4.5900 H       7  U7          0.0591
    214  H4'       14.1610    1.6680    3.8470 H       7  U7          0.0647
    215  H3'       12.2960    0.7350    2.1590 H       7  U7          0.0655
    216  H2'       13.2970   -1.4180    1.9930 H       7  U7          0.0666
    217 HO2'       12.7720   -0.6370   -0.0270 H       7  U7          0.2101
    218  H1'       15.9200   -0.0130    1.3330 H       7  U7          0.0867
    219   H3       18.5100   -3.7470    1.2840 H       7  U7          0.1734
    220   H5       15.1130   -4.9520    3.4680 H       7  U7          0.0686
    221   H6       14.2910   -2.6680    3.3350 H       7  U7          0.0813
    222    P.3     13.3650    3.2760    1.4700 P.3     8  U8          0.2131
    223  OP1       14.5180    4.0790    1.0110 O.2     8  U8         -0.5172
    224  OP2       12.8420    3.4860    2.8320 O.3     8  U8         -0.4373
    225  O5'       12.1510    3.4530    0.4470 O.3     8  U8         -0.3248
    226  C5'       12.3560    3.3450   -0.9440 C.3     8  U8          0.0837
    227  C4'       11.0410    3.3260   -1.7480 C.3     8  U8          0.1139
    228  O4'       11.0860    4.2830   -2.7960 O.3     8  U8         -0.3456
    229  C3'       10.8330    1.9920   -2.4620 C.3     8  U8          0.1241
    230  O3'        9.4630    1.8340   -2.8000 O.3     8  U8         -0.3187
    231  C2'       11.7080    2.1920   -3.6860 C.3     8  U8          0.1293
    232  O2'       11.5640    1.1430   -4.6260 O.3     8  U8         -0.3846
    233  C1'       11.3220    3.6370   -4.0500 C.3     8  U8          0.1680
    234   N.1      12.3250    4.4090   -4.8400 N.ar    8  U8         -0.2715
    235   C.2      11.8540    5.1830   -5.9120 C.ar    8  U8          0.3314
    236   O.2      10.6540    5.3820   -6.1300 O.2     8  U8         -0.2464
    237   N.3      12.8230    5.8010   -6.6960 N.ar    8  U8         -0.2749
    238   C4       14.1910    5.7550   -6.4810 C.ar    8  U8          0.2539
    239   O4       14.9840    6.3630   -7.2100 O.2     8  U8         -0.2677
    240   C5       14.5890    5.0010   -5.3130 C.ar    8  U8          0.0192
    241   C6       13.6710    4.3640   -4.5410 C.ar    8  U8          0.0171
    242  H5'       12.9070    2.4280   -1.1380 H       8  U8          0.0591
    243 H5''       12.9720    4.1850   -1.2690 H       8  U8          0.0591
    244  H4'       10.2050    3.5290   -1.0740 H       8  U8          0.0647
    245  H3'       11.1860    1.1610   -1.8600 H       8  U8          0.0655
    246  H2'       12.7470    2.1720   -3.3580 H       8  U8          0.0666
    247 HO2'       10.6860    1.1570   -5.0800 H       8  U8          0.2101
    248  H1'       10.3800    3.6010   -4.6030 H       8  U8          0.0867
    249   H3       12.4870    6.2600   -7.5330 H       8  U8          0.1734
    250   H5       15.6330    4.9410   -5.0450 H       8  U8          0.0686
    251   H6       14.0180    3.8210   -3.6750 H       8  U8          0.0813
    252    P.3      8.4180    1.1120   -1.8300 P.3     9  G9          0.2131
    253  OP1        7.1600    1.8810   -1.9160 O.2     9  G9         -0.5172
    254  OP2        9.0830    0.9250   -0.5210 O.3     9  G9         -0.4373
    255  O5'        8.1860   -0.3650   -2.4020 O.3     9  G9         -0.3248
    256  C5'        9.2700   -1.2470   -2.6470 C.3     9  G9          0.0837
    257  C4'        8.8610   -2.4480   -3.4860 C.3     9  G9          0.1139
    258  O4'        7.9280   -3.2740   -2.8330 O.3     9  G9         -0.3456
    259  C3'        8.2480   -2.0170   -4.7960 C.3     9  G9          0.1241
    260  O3'        9.3110   -1.8860   -5.7280 O.3     9  G9         -0.3187
    261  C2'        7.3090   -3.1740   -5.1170 C.3     9  G9          0.1292
    262  O2'        8.0490   -4.1550   -5.8180 O.3     9  G9         -0.3846
    263  C1'        6.9230   -3.7060   -3.7320 C.3     9  G9          0.1667
    264   N9        5.6200   -3.2110   -3.2420 N.ar    9  G9         -0.2854
    265   C8        5.3760   -2.3710   -2.1830 C.ar    9  G9          0.1005
    266   N7        4.1090   -2.2130   -1.9250 N.ar    9  G9         -0.2286
    267   C5        3.4600   -2.9830   -2.8820 C.ar    9  G9          0.1721
    268   C6        2.0600   -3.1960   -3.1020 C.ar    9  G9          0.2803
    269   O6        1.0990   -2.7530   -2.4710 O.2     9  G9         -0.2654
    270   N.1       1.8190   -4.0270   -4.1840 N.ar    9  G9         -0.2934
    271   C.2       2.7980   -4.7050   -4.8750 C.ar    9  G9          0.1950
    272   N.2       2.4270   -5.5980   -5.7880 N.pl3   9  G9         -0.3289
    273   N.3       4.1180   -4.5260   -4.6860 N.ar    9  G9         -0.1963
    274   C4        4.3820   -3.6310   -3.6780 C.ar    9  G9          0.1712
    275  H5'        9.6820   -1.6090   -1.7140 H       9  G9          0.0591
    276 H5''       10.0240   -0.7020   -3.2070 H       9  G9          0.0591
    277  H4'        9.7630   -3.0330   -3.7040 H       9  G9          0.0647
    278  H3'        7.6860   -1.0880   -4.6780 H       9  G9          0.0655
    279  H2'        6.4450   -2.8360   -5.6920 H       9  G9          0.0666
    280 HO2'        8.8360   -3.6810   -6.1370 H       9  G9          0.2101
    281  H1'        6.8730   -4.7930   -3.7410 H       9  G9          0.0866
    282   H8        6.1660   -1.9030   -1.6050 H       9  G9          0.1030
    283   H1        0.8300   -4.1300   -4.3890 H       9  G9          0.1716
    284  H21        1.4200   -5.7370   -5.9200 H       9  G9          0.1451
    285  H22        3.0770   -6.3510   -5.9960 H       9  G9          0.1451
    286    P.3      9.3310   -0.7480   -6.8270 P.3    10  U10         0.2131
    287  OP1       10.3250   -1.2110   -7.8290 O.2    10  U10        -0.5172
    288  OP2        9.5470    0.5490   -6.1770 O.3    10  U10        -0.4373
    289  O5'        7.8980   -0.7530   -7.5070 O.3    10  U10        -0.3248
    290  C5'        7.7560   -0.7530   -8.9120 C.3    10  U10         0.0837
    291  C4'        6.2830   -0.6110   -9.2830 C.3    10  U10         0.1139
    292  O4'        5.4270   -1.2380   -8.3410 O.3    10  U10        -0.3456
    293  C3'        5.8400    0.8430   -9.3430 C.3    10  U10         0.1241
    294  O3'        6.1840    1.3500  -10.6320 O.3    10  U10        -0.3187
    295  C2'        4.3300    0.6780   -9.2030 C.3    10  U10         0.1293
    296  O2'        3.8490    0.3910  -10.5050 O.3    10  U10        -0.3846
    297  C1'        4.1940   -0.5220   -8.2560 C.3    10  U10         0.1680
    298   N.1       3.8730   -0.1060   -6.8560 N.ar   10  U10        -0.2715
    299   C.2       2.5180    0.0380   -6.5150 C.ar   10  U10         0.3314
    300   O.2       1.6200   -0.0070   -7.3670 O.2    10  U10        -0.2464
    301   N.3       2.2230    0.2250   -5.1700 N.ar   10  U10        -0.2749
    302   C4        3.1670    0.3140   -4.1540 C.ar   10  U10         0.2539
    303   O4        2.8230    0.4180   -2.9880 O.2    10  U10        -0.2677
    304   C5        4.5440    0.2610   -4.6020 C.ar   10  U10         0.0192
    305   C6        4.8580    0.0590   -5.9060 C.ar   10  U10         0.0171
    306  H5'        8.1490   -1.6790   -9.3240 H      10  U10         0.0591
    307 H5''        8.3230    0.0780   -9.3380 H      10  U10         0.0591
    308  H4'        6.1230   -1.0630  -10.2660 H      10  U10         0.0647
    309  H3'        6.2670    1.4170   -8.5150 H      10  U10         0.0655
    310  H2'        3.8680    1.5780   -8.7970 H      10  U10         0.0666
    311 HO2'        4.5080    0.8470  -11.0590 H      10  U10         0.2101
    312  H1'        3.3750   -1.1610   -8.5980 H      10  U10         0.0867
    313   H3        1.2470    0.2950   -4.8850 H      10  U10         0.1734
    314   H5        5.3220    0.3850   -3.8560 H      10  U10         0.0686
    315   H6        5.9000    0.0180   -6.1890 H      10  U10         0.0813
    316    P.3      6.7150    2.8310  -10.8820 P.3    11  C11         0.2131
    317  OP1        7.4050    2.7700  -12.1900 O.2    11  C11        -0.5172
    318  OP2        7.4820    3.2870   -9.7110 O.3    11  C11        -0.4373
    319  O5'        5.4190    3.7410  -11.0110 O.3    11  C11        -0.3248
    320  C5'        4.8450    4.0540  -12.2690 C.3    11  C11         0.0837
    321  C4'        3.3190    3.9790  -12.2200 C.3    11  C11         0.1139
    322  O4'        2.8980    2.9900  -11.2850 O.3    11  C11        -0.3456
    323  C3'        2.5070    5.2220  -11.8810 C.3    11  C11         0.1241
    324  O3'        2.2390    6.0240  -13.0210 O.3    11  C11        -0.3187
    325  C2'        1.2050    4.5980  -11.4070 C.3    11  C11         0.1293
    326  O2'        0.4720    4.1810  -12.5400 O.3    11  C11        -0.3846
    327  C1'        1.6960    3.3870  -10.6300 C.3    11  C11         0.1680
    328   N.1       1.8460    3.6990   -9.1760 N.ar   11  C11        -0.2700
    329   C.2       0.6950    3.5990   -8.3890 C.ar   11  C11         0.3522
    330   O.2      -0.4030    3.3170   -8.8900 O.2    11  C11        -0.2444
    331   N.3       0.7770    3.7600   -7.0470 N.ar   11  C11        -0.1783
    332   C4        1.9510    4.0240   -6.4550 C.ar   11  C11         0.1230
    333   N.4       1.9870    4.1480   -5.1400 N.pl3  11  C11        -0.3430
    334   C5        3.1480    4.1490   -7.2330 C.ar   11  C11        -0.0056
    335   C6        3.0530    3.9920   -8.5770 C.ar   11  C11         0.0152
    336  H5'        5.1730    3.3280  -13.0120 H      11  C11         0.0591
    337 H5''        5.1640    5.0450  -12.5860 H      11  C11         0.0591
    338  H4'        2.9930    3.6760  -13.2180 H      11  C11         0.0647
    339  H3'        2.9710    5.7850  -11.0710 H      11  C11         0.0655
    340  H2'        0.6160    5.2750  -10.7920 H      11  C11         0.0666
    341 HO2'        0.6980    4.8230  -13.2380 H      11  C11         0.2101
    342  H1'        0.9440    2.5990  -10.7030 H      11  C11         0.0867
    343  H41        1.1300    4.1300   -4.5790 H      11  C11         0.1437
    344  H42        2.8520    4.3140   -4.6460 H      11  C11         0.1437
    345   H5        4.1140    4.3690   -6.7920 H      11  C11         0.0666
    346   H6        3.9550    4.0750   -9.1600 H      11  C11         0.0812
    347    P.3      2.5920    7.5760  -13.0660 P.3    12  C12         0.2131
    348  OP1        2.8850    7.9670  -14.4620 O.2    12  C12        -0.5172
    349  OP2        3.5770    7.9170  -12.0250 O.3    12  C12        -0.4373
    350  O5'        1.1860    8.2170  -12.6610 O.3    12  C12        -0.3248
    351  C5'        0.0940    8.1150  -13.5580 C.3    12  C12         0.0837
    352  C4'       -1.2270    7.8050  -12.8530 C.3    12  C12         0.1139
    353  O4'       -1.0730    6.8100  -11.8550 O.3    12  C12        -0.3456
    354  C3'       -1.8600    8.9920  -12.1530 C.3    12  C12         0.1241
    355  O3'       -2.6380    9.7420  -13.0660 O.3    12  C12        -0.3187
    356  C2'       -2.7750    8.2960  -11.1480 C.3    12  C12         0.1293
    357  O2'       -4.0000    7.8920  -11.7560 O.3    12  C12        -0.3846
    358  C1'       -1.9690    7.0490  -10.7690 C.3    12  C12         0.1680
    359   N.1      -1.2830    7.2010   -9.4550 N.ar   12  C12        -0.2700
    360   C.2      -2.0690    7.0730   -8.3050 C.ar   12  C12         0.3522
    361   O.2      -3.3020    7.0150   -8.3650 O.2    12  C12        -0.2444
    362   N.3      -1.4710    7.0310   -7.0860 N.ar   12  C12        -0.1783
    363   C4       -0.1370    7.0960   -6.9750 C.ar   12  C12         0.1230
    364   N.4       0.3910    7.0800   -5.7640 N.pl3  12  C12        -0.3430
    365   C5        0.6930    7.2600   -8.1320 C.ar   12  C12        -0.0056
    366   C6        0.0820    7.3310   -9.3410 C.ar   12  C12         0.0152
    367  H5'        0.2910    7.3070  -14.2600 H      12  C12         0.0591
    368 H5''        0.0070    9.0400  -14.1290 H      12  C12         0.0591
    369  H4'       -1.9340    7.4490  -13.6070 H      12  C12         0.0647
    370  H3'       -1.0970    9.5910  -11.6500 H      12  C12         0.0655
    371  H2'       -2.9650    8.9360  -10.2860 H      12  C12         0.0666
    372 HO2'       -3.8650    7.0160  -12.1800 H      12  C12         0.2101
    373  H1'       -2.6470    6.2000  -10.6500 H      12  C12         0.0867
    374  H41       -0.1470    7.0370   -4.8940 H      12  C12         0.1437
    375  H42        1.3830    7.1690   -5.6370 H      12  C12         0.1437
    376   H5        1.7700    7.3650   -8.0720 H      12  C12         0.0666
    377   H6        0.6840    7.4790  -10.2260 H      12  C12         0.0812
    378    P.3     -2.7280   11.3220  -12.9940 P.3    13  U13         0.2131
    379  OP1       -3.7770   11.7000  -13.9750 O.2    13  U13        -0.5172
    380  OP2       -1.3790   11.8620  -13.1820 O.3    13  U13        -0.4373
    381  O5'       -3.2270   11.6960  -11.5270 O.3    13  U13        -0.3248
    382  C5'       -4.5850   11.5260  -11.1760 C.3    13  U13         0.0837
    383  C4'       -4.8480   11.6810   -9.6750 C.3    13  U13         0.1139
    384  O4'       -4.3130   10.5400   -9.0110 O.3    13  U13        -0.3456
    385  C3'       -4.2090   12.8700   -8.9570 C.3    13  U13         0.1241
    386  O3'       -4.9840   14.0430   -9.1230 O.3    13  U13        -0.3187
    387  C2'       -4.2390   12.3740   -7.5140 C.3    13  U13         0.1293
    388  O2'       -5.5380   12.4100   -6.9460 O.3    13  U13        -0.3846
    389  C1'       -3.8340   10.9160   -7.7240 C.3    13  U13         0.1680
    390   N.1      -2.3680   10.7450   -7.5570 N.ar   13  U13        -0.2715
    391   C.2      -1.9010   10.5700   -6.2490 C.ar   13  U13         0.3314
    392   O.2      -2.6500   10.6250   -5.2650 O.2    13  U13        -0.2464
    393   N.3      -0.5430   10.3620   -6.1060 N.ar   13  U13        -0.2749
    394   C4        0.3880   10.3510   -7.1320 C.ar   13  U13         0.2539
    395   O4        1.5700   10.1280   -6.9060 O.2    13  U13        -0.2677
    396   C5       -0.1630   10.6140   -8.4450 C.ar   13  U13         0.0192
    397   C6       -1.4950   10.7980   -8.6220 C.ar   13  U13         0.0171
    398  H5'       -4.9250   10.5450  -11.4990 H      13  U13         0.0591
    399 H5''       -5.1680   12.2750  -11.7110 H      13  U13         0.0591
    400  H4'       -5.9280   11.7200   -9.5080 H      13  U13         0.0647
    401  H3'       -3.1670   13.0010   -9.2620 H      13  U13         0.0655
    402  H2'       -3.5290   12.9170   -6.8850 H      13  U13         0.0666
    403 HO2'       -5.4950   11.9850   -6.0690 H      13  U13         0.2101
    404  H1'       -4.3080   10.2880   -6.9730 H      13  U13         0.0867
    405   H3       -0.1900   10.2490   -5.1630 H      13  U13         0.1734
    406   H5        0.5170   10.6590   -9.2850 H      13  U13         0.0686
    407   H6       -1.8690   10.9970   -9.6130 H      13  U13         0.0813
    408    P.3     -4.3340   15.4930   -8.9870 P.3    14  U14         0.2131
    409  OP1       -5.4300   16.4710   -9.1740 O.3    14  U14        -0.4373
    410  OP2       -3.1680   15.5610   -9.8910 O.2    14  U14        -0.5172
    411  O5'       -3.8180   15.5760   -7.4780 O.3    14  U14        -0.3248
    412  C5'       -4.7270   15.8720   -6.4340 C.3    14  U14         0.0837
    413  C4'       -4.0600   15.9770   -5.0620 C.3    14  U14         0.1139
    414  O4'       -3.4880   14.7320   -4.6790 O.3    14  U14        -0.3456
    415  C3'       -2.9070   16.9700   -5.0010 C.3    14  U14         0.1241
    416  O3'       -3.3420   18.3170   -4.8610 O.3    14  U14        -0.3187
    417  C2'       -2.2030   16.4890   -3.7300 C.3    14  U14         0.1293
    418  O2'       -2.8540   17.0010   -2.5790 O.3    14  U14        -0.3846
    419  C1'       -2.4020   14.9660   -3.7820 C.3    14  U14         0.1680
    420   N.1      -1.1600   14.2850   -4.2280 N.ar   14  U14        -0.2715
    421   C.2      -0.2580   13.8500   -3.2480 C.ar   14  U14         0.3314
    422   O.2      -0.4970   13.9530   -2.0460 O.2    14  U14        -0.2464
    423   N.3       0.9160   13.2610   -3.6830 N.ar   14  U14        -0.2749
    424   C4        1.2560   13.0780   -5.0140 C.ar   14  U14         0.2539
    425   O4        2.3440   12.6050   -5.3280 O.2    14  U14        -0.2677
    426   C5        0.2590   13.5270   -5.9690 C.ar   14  U14         0.0192
    427   C6       -0.8910   14.1110   -5.5660 C.ar   14  U14         0.0171
    428  H5'       -5.4920   15.1010   -6.3990 H      14  U14         0.0591
    429 H5''       -5.2070   16.8270   -6.6510 H      14  U14         0.0591
    430  H4'       -4.8060   16.2660   -4.3240 H      14  U14         0.0647
    431  H3'       -2.2590   16.8410   -5.8670 H      14  U14         0.0655
    432  H2'       -1.1430   16.7620   -3.7350 H      14  U14         0.0666
    433 HO2'       -2.4550   16.5650   -1.7950 H      14  U14         0.2101
    434  H1'       -2.6560   14.5870   -2.7880 H      14  U14         0.0867
    435   H3        1.5230   12.8590   -2.9730 H      14  U14         0.1734
    436   H5        0.4510   13.4290   -7.0270 H      14  U14         0.0686
    437   H6       -1.6020   14.4630   -6.3010 H      14  U14         0.0813
    438    P.3     -2.4140   19.5070   -5.3580 P.3    15  U15         0.2131
    439  OP1       -3.1560   20.7640   -5.1350 O.3    15  U15        -0.4373
    440  OP2       -1.9470   19.2310   -6.7300 O.2    15  U15        -0.5172
    441  O5'       -1.1430   19.5370   -4.4040 O.3    15  U15        -0.3248
    442  C5'        0.0340   20.1860   -4.8450 C.3    15  U15         0.0837
    443  C4'        1.0770   20.3020   -3.7400 C.3    15  U15         0.1139
    444  O4'        0.5710   21.0310   -2.6290 O.3    15  U15        -0.3456
    445  C3'        1.5660   18.9790   -3.1650 C.3    15  U15         0.1241
    446  O3'        2.6170   18.3860   -3.9040 O.3    15  U15        -0.3187
    447  C2'        2.1420   19.4630   -1.8460 C.3    15  U15         0.1293
    448  O2'        3.4050   20.0640   -2.0740 O.3    15  U15        -0.3846
    449  C1'        1.1340   20.5230   -1.4210 C.3    15  U15         0.1680
    450   N.1       0.1070   19.9340   -0.5180 N.ar   15  U15        -0.2715
    451   C.2       0.5020   19.6410    0.7940 C.ar   15  U15         0.3314
    452   O.2       1.6600   19.7890    1.2000 O.2    15  U15        -0.2464
    453   N.3      -0.4830   19.1970    1.6560 N.ar   15  U15        -0.2749
    454   C4       -1.8200   19.0470    1.3370 C.ar   15  U15         0.2539
    455   O4       -2.6230   18.7420    2.2100 O.2    15  U15        -0.2677
    456   C5       -2.1460   19.3330   -0.0440 C.ar   15  U15         0.0192
    457   C6       -1.2010   19.7520   -0.9190 C.ar   15  U15         0.0171
    458  H5'       -0.2230   21.1870   -5.1960 H      15  U15         0.0591
    459 H5''        0.4630   19.6280   -5.6760 H      15  U15         0.0591
    460  H4'        1.9430   20.8270   -4.1430 H      15  U15         0.0647
    461  H3'        0.7340   18.2900   -2.9930 H      15  U15         0.0655
    462  H2'        2.2170   18.6530   -1.1240 H      15  U15         0.0666
    463 HO2'        3.7870   19.6080   -2.8490 H      15  U15         0.2101
    464  H1'        1.6520   21.3120   -0.8730 H      15  U15         0.0867
    465   H3       -0.2220   18.9790    2.6040 H      15  U15         0.1734
    466   H5       -3.1670   19.2150   -0.3810 H      15  U15         0.0686
    467   H6       -1.4940   19.9580   -1.9400 H      15  U15         0.0813
    468    P.3      2.7990   16.8000   -3.9060 P.3    16  A16         0.2131
    469  OP1        4.1870   16.5100   -4.3240 O.3    16  A16        -0.4373
    470  OP2        1.7060   16.2400   -4.7120 O.2    16  A16        -0.5172
    471  O5'        2.6160   16.3120   -2.3890 O.3    16  A16        -0.3248
    472  C5'        3.6730   16.3990   -1.4420 C.3    16  A16         0.0837
    473  C4'        3.2410   15.9540   -0.0390 C.3    16  A16         0.1139
    474  O4'        2.1570   16.7380    0.4450 O.3    16  A16        -0.3456
    475  C3'        2.7320   14.5230    0.0280 C.3    16  A16         0.1241
    476  O3'        3.8290   13.6340    0.0740 O.3    16  A16        -0.3187
    477  C2'        1.9520   14.5340    1.3410 C.3    16  A16         0.1292
    478  O2'        2.7880   14.3720    2.4730 O.3    16  A16        -0.3846
    479  C1'        1.3860   15.9560    1.3620 C.3    16  A16         0.1667
    480   N9       -0.0490   15.9550    1.0140 N.ar   16  A16        -0.2855
    481   C8       -0.6310   16.1570   -0.2100 C.ar   16  A16         0.1004
    482   N7       -1.9380   16.0720   -0.1980 N.ar   16  A16        -0.2306
    483   C5       -2.2350   15.7880    1.1290 C.ar   16  A16         0.1473
    484   C6       -3.4460   15.5970    1.8260 C.ar   16  A16         0.1472
    485   N6       -4.6380   15.6910    1.2400 N.pl3  16  A16        -0.3413
    486   N.1      -3.4240   15.3240    3.1410 N.ar   16  A16        -0.2188
    487   C.2      -2.2330   15.3010    3.7440 C.ar   16  A16         0.1205
    488   N.3      -1.0210   15.5190    3.2330 N.ar   16  A16        -0.2159
    489   C4       -1.0900   15.7290    1.8870 C.ar   16  A16         0.1674
    490  H5'        4.0400   17.4230   -1.3970 H      16  A16         0.0591
    491 H5''        4.5000   15.7670   -1.7650 H      16  A16         0.0591
    492  H4'        4.0890   16.0370    0.6470 H      16  A16         0.0647
    493  H3'        2.0640   14.3220   -0.8120 H      16  A16         0.0655
    494  H2'        1.1680   13.7720    1.3400 H      16  A16         0.0666
    495 HO2'        2.4670   13.5780    2.9460 H      16  A16         0.2101
    496  H1'        1.4820   16.3550    2.3700 H      16  A16         0.0866
    497   H8       -0.0440   16.3650   -1.1000 H      16  A16         0.1030
    498  H61       -5.4870   15.6850    1.7840 H      16  A16         0.1438
    499  H62       -4.6420   16.0260    0.2810 H      16  A16         0.1438
    500   H2       -2.2700   15.0800    4.8000 H      16  A16         0.1048
    501    P.3      3.7080   12.1400   -0.4120 P.3    17  A17         0.2131
    502  OP1        5.0970   11.6330   -0.4200 O.3    17  A17        -0.4373
    503  OP2        2.9430   12.1670   -1.6860 O.2    17  A17        -0.5172
    504  O5'        2.8770   11.4340    0.7560 O.3    17  A17        -0.3248
    505  C5'        2.9260   10.0340    0.9590 C.3    17  A17         0.0837
    506  C4'        2.0140    9.6600    2.1370 C.3    17  A17         0.1139
    507  O4'        1.7890    8.2630    2.1640 O.3    17  A17        -0.3456
    508  C3'        2.6340    9.9890    3.4950 C.3    17  A17         0.1241
    509  O3'        1.6640   10.1810    4.5170 O.3    17  A17        -0.3187
    510  C2'        3.4280    8.7190    3.8190 C.3    17  A17         0.1292
    511  O2'        3.5690    8.5420    5.2260 O.3    17  A17        -0.3846
    512  C1'        2.5960    7.6230    3.1420 C.3    17  A17         0.1667
    513   N9        3.4370    6.5660    2.5270 N.ar   17  A17        -0.2855
    514   C8        4.2650    6.6380    1.4290 C.ar   17  A17         0.1004
    515   N7        4.8550    5.5180    1.1260 N.ar   17  A17        -0.2306
    516   C5        4.3490    4.6220    2.0540 C.ar   17  A17         0.1473
    517   C6        4.5110    3.2320    2.2260 C.ar   17  A17         0.1472
    518   N6        5.2590    2.4950    1.4120 N.pl3  17  A17        -0.3413
    519   N.1       3.8650    2.6220    3.2300 N.ar   17  A17        -0.2188
    520   C.2       3.0760    3.3540    4.0110 C.ar   17  A17         0.1205
    521   N.3       2.8250    4.6640    3.9610 N.ar   17  A17        -0.2159
    522   C4        3.4960    5.2480    2.9270 C.ar   17  A17         0.1674
    523  H5'        3.9510    9.7200    1.1520 H      17  A17         0.0591
    524 H5''        2.5790    9.5230    0.0600 H      17  A17         0.0591
    525  H4'        1.0670   10.1820    2.0050 H      17  A17         0.0647
    526  H3'        3.2940   10.8550    3.4310 H      17  A17         0.0655
    527  H2'        4.4080    8.7770    3.3410 H      17  A17         0.0666
    528 HO2'        4.0860    7.7220    5.3940 H      17  A17         0.2101
    529  H1'        1.9350    7.1470    3.8700 H      17  A17         0.0866
    530   H8        4.4100    7.5390    0.8510 H      17  A17         0.1030
    531  H61        5.1930    1.4860    1.4450 H      17  A17         0.1438
    532  H62        5.7050    2.9650    0.6340 H      17  A17         0.1438
    533   H2        2.5690    2.7990    4.7840 H      17  A17         0.1048
    534    P.3      0.8470   11.5260    4.6980 P.3    18  U18         0.2131
    535  OP1        1.6450   12.6610    4.1950 O.2    18  U18        -0.5172
    536  OP2        0.4850   11.5340    6.1400 O.3    18  U18        -0.4373
    537  O5'       -0.4830   11.3710    3.8260 O.3    18  U18        -0.3248
    538  C5'       -1.7110   11.8730    4.3210 C.3    18  U18         0.0837
    539  C4'       -2.8160   11.9480    3.2620 C.3    18  U18         0.1139
    540  O4'       -2.3250   12.4840    2.0420 O.3    18  U18        -0.3456
    541  C3'       -3.4720   10.6270    2.8900 C.3    18  U18         0.1241
    542  O3'       -4.5350   10.4130    3.8180 O.3    18  U18        -0.3187
    543  C2'       -4.0680   10.9800    1.5220 C.3    18  U18         0.1293
    544  O2'       -5.3680   11.5280    1.6610 O.3    18  U18        -0.3846
    545  C1'       -3.0820   11.9930    0.9380 C.3    18  U18         0.1680
    546   N.1      -2.2380   11.4430   -0.1590 N.ar   18  U18        -0.2715
    547   C.2      -2.8020   11.3580   -1.4410 C.ar   18  U18         0.3314
    548   O.2      -4.0010   11.5740   -1.6700 O.2    18  U18        -0.2464
    549   N.3      -1.9420   11.0210   -2.4750 N.ar   18  U18        -0.2749
    550   C4       -0.5970   10.7140   -2.3430 C.ar   18  U18         0.2539
    551   O4        0.0770   10.4750   -3.3420 O.2    18  U18        -0.2677
    552   C5       -0.1050   10.7870   -0.9860 C.ar   18  U18         0.0192
    553   C6       -0.9080   11.1480    0.0460 C.ar   18  U18         0.0171
    554  H5'       -1.5300   12.8790    4.6960 H      18  U18         0.0591
    555 H5''       -2.0480   11.2530    5.1520 H      18  U18         0.0591
    556  H4'       -3.5950   12.6030    3.6540 H      18  U18         0.0647
    557  H3'       -2.7460    9.8120    2.8460 H      18  U18         0.0655
    558  H2'       -4.1210   10.0930    0.8970 H      18  U18         0.0666
    559 HO2'       -5.8530   10.8460    2.1500 H      18  U18         0.2101
    560  H1'       -3.6510   12.8170    0.5000 H      18  U18         0.0867
    561   H3       -2.2810   11.0450   -3.4240 H      18  U18         0.1734
    562   H5        0.9380   10.5850   -0.8150 H      18  U18         0.0686
    563   H6       -0.4940   11.2390    1.0390 H      18  U18         0.0813
    564    P.3     -5.1300    8.9840    4.1920 P.3    19  G19         0.2131
    565  OP1       -6.2720    9.2870    5.0870 O.3    19  G19        -0.4373
    566  OP2       -4.0590    8.1060    4.7040 O.2    19  G19        -0.5172
    567  O5'       -5.7000    8.4280    2.8010 O.3    19  G19        -0.3248
    568  C5'       -7.0890    8.4850    2.5070 C.3    19  G19         0.0837
    569  C4'       -7.4430    8.0190    1.0900 C.3    19  G19         0.1139
    570  O4'       -6.7080    8.7380    0.1110 O.3    19  G19        -0.3456
    571  C3'       -7.1910    6.5430    0.7880 C.3    19  G19         0.1241
    572  O3'       -8.2700    5.7130    1.2000 O.3    19  G19        -0.3187
    573  C2'       -7.1340    6.5680   -0.7360 C.3    19  G19         0.1292
    574  O2'       -8.4680    6.5980   -1.2130 O.3    19  G19        -0.3846
    575  C1'       -6.4610    7.9000   -1.0230 C.3    19  G19         0.1667
    576   N9       -5.0100    7.7260   -1.2340 N.ar   19  G19        -0.2854
    577   C8       -3.9860    7.8370   -0.3290 C.ar   19  G19         0.1005
    578   N7       -2.8060    7.8690   -0.8730 N.ar   19  G19        -0.2286
    579   C5       -3.0490    7.6520   -2.2270 C.ar   19  G19         0.1721
    580   C6       -2.1500    7.5530   -3.3400 C.ar   19  G19         0.2803
    581   O6       -0.9300    7.6630   -3.3590 O.2    19  G19        -0.2654
    582   N.1      -2.8010    7.3190   -4.5430 N.ar   19  G19        -0.2934
    583   C.2      -4.1660    7.1760   -4.6670 C.ar   19  G19         0.1950
    584   N.2      -4.6920    6.9230   -5.8630 N.pl3  19  G19        -0.3289
    585   N.3      -5.0260    7.2990   -3.6450 N.ar   19  G19        -0.1963
    586   C4       -4.4020    7.5300   -2.4520 C.ar   19  G19         0.1712
    587  H5'       -7.4380    9.5100    2.6340 H      19  G19         0.0591
    588 H5''       -7.6260    7.8600    3.2210 H      19  G19         0.0591
    589  H4'       -8.5120    8.2060    0.9370 H      19  G19         0.0647
    590  H3'       -6.2380    6.2190    1.2130 H      19  G19         0.0655
    591  H2'       -6.5810    5.7220   -1.1460 H      19  G19         0.0666
    592 HO2'       -8.9640    6.1330   -0.5230 H      19  G19         0.2101
    593  H1'       -6.8760    8.3230   -1.9430 H      19  G19         0.0866
    594   H8       -4.1460    7.9530    0.7330 H      19  G19         0.1030
    595   H1       -2.1690    7.2270   -5.3360 H      19  G19         0.1716
    596  H21       -4.0900    6.8110   -6.6880 H      19  G19         0.1451
    597  H22       -5.6460    6.5960   -5.8960 H      19  G19         0.1451
    598    P.3     -8.1080    4.1290    1.3360 P.3    20  G20         0.2131
    599  OP1       -9.4380    3.6080    1.7130 O.2    20  G20        -0.5172
    600  OP2       -6.9430    3.8030    2.1760 O.3    20  G20        -0.4373
    601  O5'       -7.8030    3.6070   -0.1360 O.3    20  G20        -0.3248
    602  C5'       -8.8470    3.2690   -1.0290 C.3    20  G20         0.0837
    603  C4'       -8.3180    2.9870   -2.4340 C.3    20  G20         0.1139
    604  O4'       -7.3730    3.9700   -2.8340 O.3    20  G20        -0.3456
    605  C3'       -7.6190    1.6490   -2.6360 C.3    20  G20         0.1241
    606  O3'       -8.5870    0.6330   -2.8640 O.3    20  G20        -0.3187
    607  C2'       -6.8030    1.9370   -3.8920 C.3    20  G20         0.1292
    608  O2'       -7.6110    1.8370   -5.0510 O.3    20  G20        -0.3846
    609  C1'       -6.4240    3.4010   -3.7270 C.3    20  G20         0.1667
    610   N9       -5.0180    3.5720   -3.3150 N.ar   20  G20        -0.2854
    611   C8       -4.4660    3.8130   -2.0840 C.ar   20  G20         0.1005
    612   N7       -3.1840    4.0550   -2.1300 N.ar   20  G20        -0.2286
    613   C5       -2.8480    3.9250   -3.4770 C.ar   20  G20         0.1721
    614   C6       -1.5990    4.0830   -4.1710 C.ar   20  G20         0.2803
    615   O6       -0.4930    4.3980   -3.7450 O.2    20  G20        -0.2654
    616   N.1      -1.7130    3.8550   -5.5340 N.ar   20  G20        -0.2934
    617   C.2      -2.8830    3.5310   -6.1750 C.ar   20  G20         0.1950
    618   N.2      -2.8690    3.3430   -7.4910 N.pl3  20  G20        -0.3289
    619   N.3      -4.0660    3.4050   -5.5560 N.ar   20  G20        -0.1963
    620   C4       -3.9740    3.6110   -4.2050 C.ar   20  G20         0.1712
    621  H5'       -9.5450    4.1020   -1.0890 H      20  G20         0.0591
    622 H5''       -9.3780    2.3900   -0.6570 H      20  G20         0.0591
    623  H4'       -9.1690    3.0070   -3.1180 H      20  G20         0.0647
    624  H3'       -6.9730    1.4270   -1.7830 H      20  G20         0.0655
    625  H2'       -5.9260    1.2910   -3.9600 H      20  G20         0.0666
    626 HO2'       -7.6580    0.8930   -5.2690 H      20  G20         0.2101
    627  H1'       -6.4900    3.8910   -4.6980 H      20  G20         0.0866
    628   H8       -5.0450    3.8250   -1.1700 H      20  G20         0.1030
    629   H1       -0.8310    3.9090   -6.0310 H      20  G20         0.1716
    630  H21       -1.9950    3.4320   -8.0100 H      20  G20         0.1451
    631  H22       -3.7390    3.1480   -7.9710 H      20  G20         0.1451
    632    P.3     -8.2320   -0.9200   -2.7940 P.3    21  U21         0.2131
    633  OP1       -9.5250   -1.6230   -2.6210 O.2    21  U21        -0.5172
    634  OP2       -7.1010   -1.1520   -1.8870 O.3    21  U21        -0.4373
    635  O5'       -7.7240   -1.1840   -4.2760 O.3    21  U21        -0.3248
    636  C5'       -8.6400   -1.3240   -5.3410 C.3    21  U21         0.0837
    637  C4'       -7.8790   -1.3610   -6.6550 C.3    21  U21         0.1139
    638  O4'       -6.8650   -0.3680   -6.6460 O.3    21  U21        -0.3456
    639  C3'       -7.1550   -2.6680   -6.9270 C.3    21  U21         0.1241
    640  O3'       -8.0290   -3.6270   -7.5100 O.3    21  U21        -0.3187
    641  C2'       -6.0910   -2.2030   -7.9280 C.3    21  U21         0.1293
    642  O2'       -6.5900   -2.1190   -9.2610 O.3    21  U21        -0.3846
    643  C1'       -5.7680   -0.7840   -7.4430 C.3    21  U21         0.1680
    644   N.1      -4.4430   -0.6770   -6.7640 N.ar   21  U21        -0.2715
    645   C.2      -3.3300   -0.5590   -7.6010 C.ar   21  U21         0.3314
    646   O.2      -3.4030   -0.6660   -8.8320 O.2    21  U21        -0.2464
    647   N.3      -2.1130   -0.3110   -6.9980 N.ar   21  U21        -0.2749
    648   C4       -1.8910   -0.1650   -5.6410 C.ar   21  U21         0.2539
    649   O4       -0.7600    0.0920   -5.2470 O.2    21  U21        -0.2677
    650   C5       -3.0850   -0.3370   -4.8310 C.ar   21  U21         0.0192
    651   C6       -4.2970   -0.5920   -5.3930 C.ar   21  U21         0.0171
    652  H5'       -9.3190   -0.4730   -5.3450 H      21  U21         0.0591
    653 H5''       -9.2110   -2.2450   -5.2260 H      21  U21         0.0591
    654  H4'       -8.5790   -1.1810   -7.4650 H      21  U21         0.0647
    655  H3'       -6.6910   -3.0350   -6.0080 H      21  U21         0.0655
    656  H2'       -5.2160   -2.8500   -7.8870 H      21  U21         0.0666
    657 HO2'       -5.8640   -2.3460   -9.8650 H      21  U21         0.2101
    658  H1'       -5.7250   -0.1180   -8.3050 H      21  U21         0.0867
    659   H3       -1.3100   -0.1800   -7.5950 H      21  U21         0.1734
    660   H5       -2.9920   -0.2760   -3.7530 H      21  U21         0.0686
    661   H6       -5.1570   -0.7320   -4.7470 H      21  U21         0.0813
    662    P.3     -7.8870   -5.1710   -7.1650 P.3    22  C22         0.2131
    663  OP1       -8.7770   -5.9090   -8.0940 O.2    22  C22        -0.5172
    664  OP2       -8.0690   -5.3620   -5.7160 O.3    22  C22        -0.4373
    665  O5'       -6.3800   -5.4980   -7.5450 O.3    22  C22        -0.3248
    666  C5'       -6.0140   -5.6770   -8.8930 C.3    22  C22         0.0837
    667  C4'       -4.5160   -5.9120   -9.0810 C.3    22  C22         0.1139
    668  O4'       -3.7760   -4.7920   -8.6310 O.3    22  C22        -0.3456
    669  C3'       -3.9650   -7.1060   -8.3160 C.3    22  C22         0.1241
    670  O3'       -4.1200   -8.3190   -9.0410 O.3    22  C22        -0.3187
    671  C2'       -2.4900   -6.7350   -8.2080 C.3    22  C22         0.1293
    672  O2'       -1.8240   -7.0680   -9.4180 O.3    22  C22        -0.3846
    673  C1'       -2.5470   -5.2120   -8.0440 C.3    22  C22         0.1680
    674   N.1      -2.4570   -4.8080   -6.6160 N.ar   22  C22        -0.2700
    675   C.2      -1.1990   -4.8420   -6.0110 C.ar   22  C22         0.3522
    676   O.2      -0.2370   -5.3980   -6.5540 O.2    22  C22        -0.2444
    677   N.3      -1.0240   -4.2190   -4.8150 N.ar   22  C22        -0.1783
    678   C4       -2.0650   -3.6610   -4.1770 C.ar   22  C22         0.1230
    679   N.4      -1.8520   -2.9860   -3.0610 N.pl3  22  C22        -0.3430
    680   C5       -3.3960   -3.7770   -4.6940 C.ar   22  C22        -0.0056
    681   C6       -3.5470   -4.3620   -5.9060 C.ar   22  C22         0.0152
    682  H5'       -6.3090   -4.7970   -9.4650 H      22  C22         0.0591
    683 H5''       -6.5580   -6.5380   -9.2680 H      22  C22         0.0591
    684  H4'       -4.3160   -6.0670  -10.1450 H      22  C22         0.0647
    685  H3'       -4.4180   -7.1590   -7.3240 H      22  C22         0.0655
    686  H2'       -2.0200   -7.2250   -7.3530 H      22  C22         0.0666
    687 HO2'       -0.8750   -6.8880   -9.3130 H      22  C22         0.2101
    688  H1'       -1.6980   -4.7550   -8.5570 H      22  C22         0.0867
    689  H41       -0.9050   -2.8360   -2.7090 H      22  C22         0.1437
    690  H42       -2.6350   -2.5490   -2.5770 H      22  C22         0.1437
    691   H5       -4.2670   -3.4060   -4.1680 H      22  C22         0.0666
    692   H6       -4.5350   -4.4580   -6.3210 H      22  C22         0.0812
    693    P.3     -4.0990   -9.7210   -8.2900 P.3    23  C23         0.2131
    694  OP1       -4.0310  -10.7220   -9.3750 O.2    23  C23        -0.5172
    695  OP2       -5.2530   -9.7250   -7.3760 O.3    23  C23        -0.4373
    696  O5'       -2.7430   -9.7410   -7.4480 O.3    23  C23        -0.3248
    697  C5'       -1.5200  -10.1130   -8.0500 C.3    23  C23         0.0837
    698  C4'       -0.3440  -10.0870   -7.0760 C.3    23  C23         0.1139
    699  O4'       -0.0760   -8.7870   -6.5740 O.3    23  C23        -0.3456
    700  C3'       -0.5420  -10.9710   -5.8600 C.3    23  C23         0.1241
    701  O3'       -0.2400  -12.3030   -6.2340 O.3    23  C23        -0.3187
    702  C2'        0.5080  -10.3840   -4.9150 C.3    23  C23         0.1293
    703  O2'        1.7900  -10.9410   -5.1540 O.3    23  C23        -0.3846
    704  C1'        0.5300   -8.8950   -5.2810 C.3    23  C23         0.1680
    705   N.1      -0.1560   -8.0650   -4.2560 N.ar   23  C23        -0.2700
    706   C.2       0.6190   -7.4430   -3.2670 C.ar   23  C23         0.3522
    707   O.2       1.8530   -7.5200   -3.2640 O.2    23  C23        -0.2444
    708   N.3       0.0030   -6.7260   -2.2890 N.ar   23  C23        -0.1783
    709   C4       -1.3320   -6.6010   -2.2700 C.ar   23  C23         0.1230
    710   N.4      -1.8780   -5.9070   -1.2800 N.pl3  23  C23        -0.3430
    711   C5       -2.1460   -7.2220   -3.2790 C.ar   23  C23        -0.0056
    712   C6       -1.5230   -7.9430   -4.2400 C.ar   23  C23         0.0152
    713  H5'       -1.3060   -9.4600   -8.8930 H      23  C23         0.0591
    714 H5''       -1.6250  -11.1320   -8.4270 H      23  C23         0.0591
    715  H4'        0.5410  -10.4520   -7.5930 H      23  C23         0.0647
    716  H3'       -1.5510  -10.8620   -5.4570 H      23  C23         0.0655
    717  H2'        0.2170  -10.5350   -3.8730 H      23  C23         0.0666
    718 HO2'        2.0250  -11.3810   -4.3160 H      23  C23         0.2101
    719  H1'        1.5720   -8.5630   -5.3160 H      23  C23         0.0867
    720  H41       -1.2780   -5.5160   -0.5500 H      23  C23         0.1437
    721  H42       -2.8740   -5.7680   -1.2020 H      23  C23         0.1437
    722   H5       -3.2220   -7.1740   -3.3310 H      23  C23         0.0666
    723   H6       -2.1190   -8.4290   -5.0010 H      23  C23         0.0812
    724    P.3     -0.7300  -13.5420   -5.3830 P.3    24  A24         0.2131
    725  OP1       -0.3810  -14.7270   -6.2030 O.2    24  A24        -0.5172
    726  OP2       -2.1340  -13.3590   -4.9860 O.3    24  A24        -0.4373
    727  O5'        0.1840  -13.5490   -4.0920 O.3    24  A24        -0.3248
    728  C5'        1.4840  -14.0870   -4.1520 C.3    24  A24         0.0837
    729  C4'        2.3270  -13.6260   -2.9750 C.3    24  A24         0.1139
    730  O4'        2.1850  -12.2310   -2.7430 O.3    24  A24        -0.3456
    731  C3'        2.0190  -14.3020   -1.6490 C.3    24  A24         0.1241
    732  O3'        2.6650  -15.5610   -1.5480 O.3    24  A24        -0.3187
    733  C2'        2.6330  -13.2810   -0.6930 C.3    24  A24         0.1292
    734  O2'        4.0530  -13.3510   -0.7490 O.3    24  A24        -0.3846
    735  C1'        2.2000  -11.9710   -1.3410 C.3    24  A24         0.1667
    736   N9        0.8850  -11.4830   -0.8520 N.ar   24  A24        -0.2855
    737   C8       -0.3710  -11.5680   -1.4100 C.ar   24  A24         0.1004
    738   N7       -1.2620  -10.7890   -0.8530 N.ar   24  A24        -0.2306
    739   C5       -0.5570  -10.1880    0.1860 C.ar   24  A24         0.1473
    740   C6       -0.8990   -9.2290    1.1660 C.ar   24  A24         0.1472
    741   N6       -2.0910   -8.6310    1.2170 N.pl3  24  A24        -0.3413
    742   N.1       0.0210   -8.8970    2.0850 N.ar   24  A24        -0.2188
    743   C.2       1.2390   -9.4380    2.0200 C.ar   24  A24         0.1205
    744   N.3       1.7050  -10.3030    1.1220 N.ar   24  A24        -0.2159
    745   C4        0.7370  -10.6460    0.2260 C.ar   24  A24         0.1674
    746  H5'        1.9670  -13.7470   -5.0630 H      24  A24         0.0591
    747 H5''        1.4340  -15.1750   -4.1680 H      24  A24         0.0591
    748  H4'        3.3670  -13.8370   -3.2280 H      24  A24         0.0647
    749  H3'        0.9370  -14.3840   -1.5020 H      24  A24         0.0655
    750  H2'        2.2670  -13.3800    0.3270 H      24  A24         0.0666
    751 HO2'        4.2870  -14.1740   -1.2150 H      24  A24         0.2101
    752  H1'        2.9260  -11.1930   -1.0920 H      24  A24         0.0866
    753   H8       -0.5930  -12.1890   -2.2670 H      24  A24         0.1030
    754  H61       -2.3000   -7.9030    1.8930 H      24  A24         0.1438
    755  H62       -2.7640   -8.8340    0.4940 H      24  A24         0.1438
    756   H2        1.9370   -9.1360    2.7900 H      24  A24         0.1048
    757    P.3      2.1620  -16.6880   -0.5390 P.3    25  G25         0.2131
    758  OP1        3.0680  -17.8520   -0.6880 O.3    25  G25        -0.4373
    759  OP2        0.7270  -16.9380   -0.7340 O.2    25  G25        -0.5172
    760  O5'        2.3830  -16.0880    0.9130 O.3    25  G25        -0.3248
    761  C5'        3.6910  -15.9870    1.4430 C.3    25  G25         0.0837
    762  C4'        3.7290  -15.2420    2.7710 C.3    25  G25         0.1139
    763  O4'        3.3050  -13.8950    2.6360 O.3    25  G25        -0.3456
    764  C3'        2.8590  -15.8510    3.8570 C.3    25  G25         0.1241
    765  O3'        3.5560  -16.8570    4.5760 O.3    25  G25        -0.3187
    766  C2'        2.6160  -14.6540    4.7610 C.3    25  G25         0.1292
    767  O2'        3.7410  -14.4900    5.6000 O.3    25  G25        -0.3846
    768  C1'        2.5410  -13.5050    3.7710 C.3    25  G25         0.1667
    769   N9        1.1440  -13.2100    3.4070 N.ar   25  G25        -0.2854
    770   C8        0.4120  -13.5840    2.3120 C.ar   25  G25         0.1005
    771   N7       -0.7570  -13.0020    2.2320 N.ar   25  G25        -0.2286
    772   C5       -0.8150  -12.2140    3.3830 C.ar   25  G25         0.1721
    773   C6       -1.8440  -11.3500    3.8860 C.ar   25  G25         0.2803
    774   O6       -2.9310  -11.0860    3.3750 O.2    25  G25        -0.2654
    775   N.1      -1.5300  -10.8020    5.1260 N.ar   25  G25        -0.2934
    776   C.2      -0.3690  -11.0660    5.8100 C.ar   25  G25         0.1950
    777   N.2      -0.2330  -10.5890    7.0350 N.pl3  25  G25        -0.3289
    778   N.3       0.6020  -11.8650    5.3580 N.ar   25  G25        -0.1963
    779   C4        0.3230  -12.3930    4.1330 C.ar   25  G25         0.1712
    780  H5'        4.3350  -15.4720    0.7320 H      25  G25         0.0591
    781 H5''        4.0900  -16.9880    1.5960 H      25  G25         0.0591
    782  H4'        4.7550  -15.2560    3.1290 H      25  G25         0.0647
    783  H3'        1.9190  -16.2140    3.4380 H      25  G25         0.0655
    784  H2'        1.6970  -14.7580    5.3340 H      25  G25         0.0666
    785 HO2'        4.1470  -15.3700    5.6430 H      25  G25         0.2101
    786  H1'        2.9450  -12.6010    4.2310 H      25  G25         0.0866
    787   H8        0.7990  -14.2850    1.5830 H      25  G25         0.1030
    788   H1       -2.2210  -10.1940    5.5590 H      25  G25         0.1716
    789  H21       -0.9050   -9.9300    7.4290 H      25  G25         0.1451
    790  H22        0.6140  -10.8250    7.5440 H      25  G25         0.1451
    791    P.3      2.7800  -18.0900    5.2080 P.3    26  U26         0.2131
    792  OP1        3.7900  -18.9480    5.8630 O.3    26  U26        -0.4373
    793  OP2        1.9430  -18.6890    4.1540 O.2    26  U26        -0.5172
    794  O5'        1.8370  -17.4480    6.3290 O.3    26  U26        -0.3248
    795  C5'        2.3630  -17.0460    7.5830 C.3    26  U26         0.0837
    796  C4'        1.3800  -16.1660    8.3620 C.3    26  U26         0.1139
    797  O4'        0.9770  -15.0720    7.5600 O.3    26  U26        -0.3456
    798  C3'        0.0870  -16.8530    8.7860 C.3    26  U26         0.1241
    799  O3'        0.3220  -17.5210   10.0320 O.3    26  U26        -0.3187
    800  C2'       -0.8300  -15.6460    8.9660 C.3    26  U26         0.1293
    801  O2'       -0.6550  -15.1640   10.2830 O.3    26  U26        -0.3846
    802  C1'       -0.3360  -14.6590    7.9040 C.3    26  U26         0.1680
    803   N.1      -1.2340  -14.6360    6.7110 N.ar   26  U26        -0.2715
    804   C.2      -2.3380  -13.7780    6.7590 C.ar   26  U26         0.3314
    805   O.2      -2.6010  -13.0990    7.7560 O.2    26  U26        -0.2464
    806   N.3      -3.1520  -13.7420    5.6350 N.ar   26  U26        -0.2749
    807   C4       -2.9870  -14.5110    4.4960 C.ar   26  U26         0.2539
    808   O4       -3.7920  -14.4460    3.5740 O.2    26  U26        -0.2677
    809   C5       -1.8490  -15.4000    4.5410 C.ar   26  U26         0.0192
    810   C6       -1.0210  -15.4460    5.6140 C.ar   26  U26         0.0171
    811  H5'        3.2800  -16.4820    7.4200 H      26  U26         0.0591
    812 H5''        2.5970  -17.9330    8.1700 H      26  U26         0.0591
    813  H4'        1.8720  -15.7880    9.2620 H      26  U26         0.0647
    814  H3'       -0.3030  -17.4970    7.9970 H      26  U26         0.0655
    815  H2'       -1.8740  -15.8990    8.7830 H      26  U26         0.0666
    816 HO2'       -0.2550  -15.9130   10.7530 H      26  U26         0.2101
    817  H1'       -0.2940  -13.6530    8.3270 H      26  U26         0.0867
    818   H3       -3.9680  -13.1330    5.6440 H      26  U26         0.1734
    819   H5       -1.6730  -16.0350    3.6820 H      26  U26         0.0686
    820   H6       -0.1850  -16.1330    5.5940 H      26  U26         0.0813
    821    P.3     -0.5410  -18.7780   10.5210 P.3    27  C27         0.2131
    822  OP1        0.1320  -19.3480   11.7070 O.3    27  C27        -0.4373
    823  OP2       -0.8480  -19.6350    9.3660 O.2    27  C27        -0.5172
    824  O5'       -1.8870  -18.1430   11.0610 O.3    27  C27        -0.3248
    825  C5'       -3.0990  -18.8760   11.0330 C.3    27  C27         0.0838
    826  C4'       -4.1820  -17.9970   11.6540 C.3    27  C27         0.1165
    827  O4'       -4.0870  -16.6630   11.1890 O.3    27  C27        -0.3455
    828  C3'       -5.6050  -18.4500   11.3510 C.3    27  C27         0.1518
    829  O3'       -6.1130  -19.3880   12.3020 O.3    27  C27        -0.2255
    830  C2'       -6.3800  -17.1470   11.3890 C.3    27  C27         0.1319
    831  O2'       -6.6580  -16.9290   12.7560 O.3    27  C27        -0.3845
    832  C1'       -5.3590  -16.1630   10.8030 C.3    27  C27         0.1681
    833   N.1      -5.4590  -16.0570    9.3130 N.ar   27  C27        -0.2700
    834   C.2      -6.5250  -15.3240    8.7890 C.ar   27  C27         0.3522
    835   O.2      -7.3730  -14.8090    9.5250 O.2    27  C27        -0.2444
    836   N.3      -6.6580  -15.1950    7.4390 N.ar   27  C27        -0.1783
    837   C4       -5.7380  -15.7090    6.6140 C.ar   27  C27         0.1230
    838   N.4      -5.9220  -15.5880    5.3070 N.pl3  27  C27        -0.3430
    839   C5       -4.6250  -16.4570    7.1120 C.ar   27  C27        -0.0056
    840   C6       -4.5260  -16.6070    8.4580 C.ar   27  C27         0.0152
    841  H5'       -3.0060  -19.8080   11.5890 H      27  C27         0.0591
    842 H5''       -3.3520  -19.1100   10.0000 H      27  C27         0.0591
    843  H4'       -4.0490  -18.0010   12.7410 H      27  C27         0.0648
    844  H3'       -5.6540  -18.8650   10.3440 H      27  C27         0.0683
    845  H2'       -7.3000  -17.2080   10.8030 H      27  C27         0.0667
    846 HO2'       -6.6690  -17.8440   13.0970 H      27  C27         0.2101
    847  H1'       -5.5140  -15.1630   11.2140 H      27  C27         0.0867
    848  H41       -6.6620  -14.9960    4.9250 H      27  C27         0.1437
    849  H42       -5.1950  -15.8280    4.6410 H      27  C27         0.1437
    850   H5       -3.8750  -16.9150    6.4790 H      27  C27         0.0666
    851   H6       -3.6960  -17.1720    8.8550 H      27  C27         0.0812
@<TRIPOS>BOND
     1   348   347    2
     2   367   351    1
     3   368   351    1
     4   379   378    2
     5   369   352    1
     6   351   352    1
     7   351   350    1
     8   341   326    1
     9   338   321    1
    10   380   378    1
    11   347   324    1
    12   347   350    1
    13   347   349    1
    14   355   378    1
    15   355   354    1
    16   324   323    1
    17   336   320    1
    18   378   381    1
    19   352   354    1
    20   352   353    1
    21   337   320    1
    22   326   325    1
    23   320   321    1
    24   320   319    1
    25   321   323    1
    26   321   322    1
    27   317   316    2
    28   372   357    1
    29   354   370    1
    30   354   356    1
    31   323   325    1
    32   323   339    1
    33   353   358    1
    34   357   356    1
    35   399   382    1
    36   381   382    1
    37   398   382    1
    38   325   340    1
    39   325   327    1
    40   322   327    1
    41   382   383    1
    42   356   358    1
    43   356   371    1
    44   311   296    1
    45   319   316    1
    46   316   294    1
    47   316   318    1
    48   358   373    1
    49   358   359    1
    50   342   327    1
    51   294   293    1
    52   327   328    1
    53   296   295    1
    54   308   291    1
    55   377   366    1
    56   684   667    1
    57   410   408    2
    58   657   642    1
    59   383   400    1
    60   383   384    1
    61   383   385    1
    62   407   397    1
    63   682   666    1
    64   359   366   ar
    65   359   360   ar
    66   672   687    1
    67   672   671    1
    68   694   693    2
    69   293   291    1
    70   293   295    1
    71   293   309    1
    72   366   365   ar
    73   307   290    1
    74   306   290    1
    75   406   396    1
    76   291   290    1
    77   291   292    1
    78   683   666    1
    79   401   385    1
    80   642   641    1
    81   295   310    1
    82   295   297    1
    83   328   335   ar
    84   328   329   ar
    85   409   408    1
    86   346   335    1
    87   386   408    1
    88   386   385    1
    89   667   666    1
    90   667   668    1
    91   667   669    1
    92   670   669    1
    93   670   693    1
    94   384   389    1
    95   408   411    1
    96   385   387    1
    97   290   289    1
    98   666   665    1
    99   713   697    1
   100   330   329    2
   101   646   645    2
   102   668   673    1
   103   397   396   ar
   104   397   390   ar
   105   312   297    1
   106   335   334   ar
   107   688   673    1
   108   396   394   ar
   109   714   697    1
   110   329   331   ar
   111   361   360    2
   112   292   297    1
   113   669   671    1
   114   669   685    1
   115   360   362   ar
   116   658   643    1
   117   693   696    1
   118   693   695    1
   119   297   298    1
   120   671   673    1
   121   671   686    1
   122   365   376    1
   123   365   363   ar
   124   663   662    2
   125   697   696    1
   126   697   698    1
   127   673   674    1
   128   630   618    1
   129   631   618    1
   130   641   656    1
   131   641   643    1
   132   641   639    1
   133   287   286    2
   134   389   390    1
   135   389   387    1
   136   389   404    1
   137   645   647   ar
   138   645   644   ar
   139   659   647    1
   140   715   698    1
   141   390   391   ar
   142   665   662    1
   143   249   237    1
   144   387   388    1
   145   387   402    1
   146   640   662    1
   147   640   639    1
   148   289   286    1
   149   618   617    1
   150   411   412    1
   151   654   637    1
   152   643   644    1
   153   643   638    1
   154   300   299    2
   155   334   345    1
   156   334   332   ar
   157   239   238    2
   158   662   664    1
   159   394   395    2
   160   394   393   ar
   161   362   363   ar
   162   698   699    1
   163   698   700    1
   164   331   332   ar
   165   436   426    1
   166   647   648   ar
   167   363   364    1
   168   388   403    1
   169   639   637    1
   170   639   655    1
   171   298   299   ar
   172   298   305   ar
   173   286   288    1
   174   286   260    1
   175   644   651   ar
   176   440   438    2
   177   237   238   ar
   178   237   235   ar
   179   596   584    1
   180   637   638    1
   181   637   636    1
   182   429   412    1
   183   674   675   ar
   184   674   681   ar
   185   699   704    1
   186   676   675    2
   187   299   301   ar
   188   238   240   ar
   189   332   333    1
   190   412   428    1
   191   412   413    1
   192   692   681    1
   193   437   427    1
   194   391   393   ar
   195   391   392    2
   196   701   700    1
   197   701   724    1
   198   725   724    2
   199   315   305    1
   200   617   619   ar
   201   617   616   ar
   202   280   262    1
   203   236   235    2
   204   393   405    1
   205   629   616    1
   206   675   677   ar
   207   285   272    1
   208   426   427   ar
   209   426   424   ar
   210   284   272    1
   211   235   234   ar
   212   681   680   ar
   213   305   304   ar
   214   597   584    1
   215   431   415    1
   216   584   583    1
   217   700   716    1
   218   700   702    1
   219   262   261    1
   220   272   271    1
   221   364   375    1
   222   364   374    1
   223   260   259    1
   224   279   261    1
   225   459   442    1
   226   648   649    2
   227   648   650   ar
   228   427   420   ar
   229   619   620   ar
   230   616   614   ar
   231   651   650   ar
   232   651   661    1
   233   724   726    1
   234   724   727    1
   235   438   439    1
   236   438   416    1
   237   438   441    1
   238   652   636    1
   239   636   653    1
   240   636   635    1
   241   595   582    1
   242   425   424    2
   243   719   704    1
   244   240   250    1
   245   240   241   ar
   246   704   702    1
   247   704   705    1
   248   626   608    1
   249   458   442    1
   250   301   313    1
   251   301   302   ar
   252   703   702    1
   253   703   718    1
   254   333   344    1
   255   333   343    1
   256   261   259    1
   257   261   263    1
   258   247   232    1
   259   746   728    1
   260   413   415    1
   261   413   414    1
   262   413   430    1
   263   608   607    1
   264   424   423   ar
   265   723   712    1
   266   415   416    1
   267   415   417    1
   268   702   717    1
   269   271   273   ar
   270   271   270   ar
   271   442   441    1
   272   442   443    1
   273   234   241   ar
   274   234   233    1
   275   650   660    1
   276   677   678   ar
   277   259   278    1
   278   259   257    1
   279   470   468    2
   280   627   609    1
   281   680   678   ar
   282   680   691    1
   283   273   274   ar
   284   414   419    1
   285   583   582   ar
   286   583   585   ar
   287   232   231    1
   288   248   233    1
   289   304   302   ar
   290   304   314    1
   291   582   580   ar
   292   241   251    1
   293   283   270    1
   294   469   468    1
   295   635   632    1
   296   705   712   ar
   297   705   706   ar
   298   712   711   ar
   299   420   419    1
   300   420   421   ar
   301   620   613   ar
   302   620   610   ar
   303   270   268   ar
   304   678   679    1
   305   614   615    2
   306   614   613   ar
   307   747   728    1
   308   302   303    2
   309   728   727    1
   310   728   729    1
   311   460   443    1
   312   233   231    1
   313   233   228    1
   314   625   607    1
   315   468   446    1
   316   468   471    1
   317   446   445    1
   318   607   609    1
   319   607   605    1
   320   419   417    1
   321   419   434    1
   322   281   263    1
   323   443   445    1
   324   443   444    1
   325   432   417    1
   326   263   264    1
   327   263   258    1
   328   417   418    1
   329   609   610    1
   330   609   604    1
   331   277   257    1
   332   231   246    1
   333   231   229    1
   334   423   421   ar
   335   423   435    1
   336   274   264   ar
   337   274   267   ar
   338   585   586   ar
   339   257   258    1
   340   257   256    1
   341   613   612   ar
   342   561   549    1
   343   581   580    2
   344   551   550    2
   345   580   579   ar
   346   722   711    1
   347   610   611   ar
   348   711   709   ar
   349   706   707    2
   350   706   708   ar
   351   421   422    2
   352   264   265   ar
   353   748   729    1
   354   276   256    1
   355   445   461    1
   356   445   447    1
   357   623   603    1
   358   268   267   ar
   359   268   269    2
   360   679   689    1
   361   679   690    1
   362   729   730    1
   363   729   731    1
   364   267   266   ar
   365   606   632    1
   366   606   605    1
   367   463   448    1
   368   604   603    1
   369   230   229    1
   370   230   252    1
   371   228   227    1
   372   632   633    2
   373   632   634    1
   374   730   735    1
   375   256   255    1
   376   256   275    1
   377   605   603    1
   378   605   624    1
   379   444   449    1
   380   418   433    1
   381   549   550   ar
   382   549   547   ar
   383   229   245    1
   384   229   227    1
   385   586   579   ar
   386   586   576   ar
   387   603   602    1
   388   255   252    1
   389   471   472    1
   390   550   552   ar
   391   708   709   ar
   392   709   710    1
   393   753   737    1
   394   579   578   ar
   395   265   266   ar
   396   265   282    1
   397   612   611   ar
   398   611   628    1
   399   448   447    1
   400   159   147    1
   401   593   575    1
   402   467   457    1
   403   253   252    2
   404   447   449    1
   405   447   462    1
   406   252   254    1
   407   491   472    1
   408   227   244    1
   409   227   226    1
   410   503   501    2
   411   548   547    2
   412   731   732    1
   413   731   749    1
   414   731   733    1
   415   732   757    1
   416   160   147    1
   417   472   490    1
   418   472   473    1
   419   547   546   ar
   420   449   464    1
   421   449   450    1
   422   737   738   ar
   423   737   736   ar
   424   147   146    1
   425   735   752    1
   426   735   736    1
   427   735   733    1
   428   710   721    1
   429   710   720    1
   430   243   226    1
   431   576   575    1
   432   576   577   ar
   433   751   734    1
   434   574   573    1
   435   574   592    1
   436   591   573    1
   437   242   226    1
   438   497   481    1
   439   621   602    1
   440   602   622    1
   441   602   601    1
   442   575   573    1
   443   575   570    1
   444   552   562    1
   445   552   553   ar
   446   226   225    1
   447   158   145    1
   448   457   450   ar
   449   457   456   ar
   450   578   577   ar
   451   738   739   ar
   452   736   745   ar
   453   493   475    1
   454   734   733    1
   455   573   571    1
   456   759   757    2
   457   733   750    1
   458   758   757    1
   459   757   760    1
   460   450   451   ar
   461   502   501    1
   462   501   476    1
   463   501   504    1
   464   466   456    1
   465   577   594    1
   466   146   145   ar
   467   146   148   ar
   468   481   482   ar
   469   481   480   ar
   470   482   483   ar
   471   145   143   ar
   472   546   553   ar
   473   546   545    1
   474   601   598    1
   475   456   454   ar
   476   473   475    1
   477   473   474    1
   478   473   492    1
   479   217   202    1
   480   475   476    1
   481   475   477    1
   482   553   563    1
   483   524   505    1
   484   570   569    1
   485   202   201    1
   486   739   745   ar
   487   739   740   ar
   488   745   744   ar
   489   499   485    1
   490   474   479    1
   491   225   222    1
   492   755   741    1
   493   560   545    1
   494   148   149   ar
   495   532   518    1
   496   780   761    1
   497   504   505    1
   498   571   569    1
   499   571   572    1
   500   571   590    1
   501   451   452    2
   502   451   453   ar
   503   530   514    1
   504   143   144    2
   505   143   142   ar
   506   558   543    1
   507   760   761    1
   508   589   569    1
   509   545   543    1
   510   545   540    1
   511   505   523    1
   512   505   506    1
   513   223   222    2
   514   480   479    1
   515   480   489   ar
   516   206   205    2
   517   569   568    1
   518   744   743   ar
   519   515   514   ar
   520   515   516   ar
   521   483   484   ar
   522   483   489   ar
   523   740   741    1
   524   740   742   ar
   525   572   598    1
   526   741   754    1
   527   485   498    1
   528   485   484    1
   529   219   207    1
   530   200   222    1
   531   200   199    1
   532   218   203    1
   533   598   599    2
   534   598   600    1
   535   454   453   ar
   536   454   455    2
   537   494   477    1
   538   477   479    1
   539   477   478    1
   540   479   496    1
   541   518   531    1
   542   518   517    1
   543   514   513   ar
   544   761   781    1
   545   761   762    1
   546   222   224    1
   547   543   544    1
   548   543   541    1
   549   201   216    1
   550   201   203    1
   551   201   199    1
   552   787   770    1
   553   205   207   ar
   554   205   204   ar
   555   149   142   ar
   556   149   139   ar
   557   155   137    1
   558   453   465    1
   559   544   559    1
   560   207   208   ar
   561   484   486   ar
   562   142   141   ar
   563   489   488   ar
   564   525   506    1
   565   743   742   ar
   566   743   756    1
   567   203   204    1
   568   203   198    1
   569   540   539    1
   570   516   517   ar
   571   516   522   ar
   572   137   136    1
   573   199   215    1
   574   199   197    1
   575   156   138    1
   576   506   507    1
   577   506   508    1
   578   507   512    1
   579   204   211   ar
   580   517   519   ar
   581   771   770   ar
   582   771   772   ar
   583   770   769   ar
   584   208   209    2
   585   208   210   ar
   586    22     2    1
   587   182   165    1
   588   181   165    1
   589   478   495    1
   590   568   587    1
   591   568   567    1
   592   568   588    1
   593   513   522   ar
   594   513   512    1
   595    28    11    1
   596   763   762    1
   597   763   768    1
   598   183   166    1
   599   139   138    1
   600   139   140   ar
   601    21     2    1
   602   762   782    1
   603   762   764    1
   604   567   564    1
   605   557   541    1
   606   211   210   ar
   607   211   221    1
   608   541   539    1
   609   541   542    1
   610     1     2    1
   611   522   521   ar
   612   210   220    1
   613   138   136    1
   614   138   133    1
   615     2     3    1
   616   141   140   ar
   617   162   161    2
   618   165   166    1
   619   165   164    1
   620    12    11   ar
   621    12    13   ar
   622   486   487   ar
   623   512   510    1
   624   512   529    1
   625   167   166    1
   626   167   172    1
   627   114   113    2
   628   519   520   ar
   629   488   487   ar
   630   136   154    1
   631   136   134    1
   632   539   556    1
   633   539   538    1
   634   198   197    1
   635   527   510    1
   636    11    10   ar
   637   166   168    1
   638   774   773    2
   639   772   773   ar
   640   772   779   ar
   641   769   768    1
   642   769   779   ar
   643   526   508    1
   644   124   112    1
   645   783   764    1
   646   140   157    1
   647   197   214    1
   648   197   196    1
   649   508   510    1
   650   508   509    1
   651   135   161    1
   652   135   134    1
   653   808   807    2
   654   819   809    1
   655   487   500    1
   656   768   786    1
   657   768   766    1
   658    24     5    1
   659   542   564    1
   660   510   511    1
   661    94    83    1
   662   537   538    1
   663   537   534    1
   664   186   171    1
   665   764   765    1
   666   764   766    1
   667   773   775   ar
   668   187   172    1
   669   521   520   ar
   670   520   533    1
   671   161   164    1
   672   161   163    1
   673    15    14    2
   674    93    83    1
   675    34    32    2
   676   133   132    1
   677   779   778   ar
   678   113   112   ar
   679   113   115   ar
   680   793   791    2
   681   564   566    2
   682   564   565    1
   683   535   534    2
   684   134   153    1
   685   134   132    1
   686   112   110   ar
   687   212   196    1
   688   172   170    1
   689   172   173    1
   690     3     4    1
   691     3     5    1
   692     3    23    1
   693   538   554    1
   694   538   555    1
   695   171   170    1
   696    13    14   ar
   697    13    20   ar
   698   191   180    1
   699    83    82    1
   700     4     9    1
   701   807   809   ar
   702   807   806   ar
   703   509   534    1
   704   196   213    1
   705   196   195    1
   706   809   810   ar
   707   765   791    1
   708   849   838    1
   709     5     6    1
   710     5     7    1
   711    10     9    1
   712    10    20   ar
   713   534   536    1
   714   766   784    1
   715   766   767    1
   716    14    16   ar
   717   168   170    1
   718   168   169    1
   719   168   184    1
   720   848   838    1
   721   132   152    1
   722   132   131    1
   723   170   185    1
   724   169   192    1
   725     6    32    1
   726   775   788    1
   727   775   776   ar
   728   180   173   ar
   729   180   179   ar
   730   111   110    2
   731   110   109   ar
   732    32    33    1
   733    32    35    1
   734   791   792    1
   735   791   794    1
   736   173   174   ar
   737   511   528    1
   738   115   125    1
   739   115   116   ar
   740   838   837    1
   741     9     7    1
   742     9    27    1
   743    20    19   ar
   744   778   776   ar
   745    95    84    1
   746   820   810    1
   747   767   785    1
   748   810   803   ar
   749   806   818    1
   750   806   804   ar
   751    82    84   ar
   752    82    81   ar
   753   121   106    1
   754   195   192    1
   755     7    25    1
   756     7     8    1
   757   776   777    1
   758   190   179    1
   759   179   177   ar
   760   130   131    1
   761   130   127    1
   762    84    85   ar
   763    16    29    1
   764    16    17   ar
   765    49    48    2
   766   174   175    2
   767   174   176   ar
   768   109   116   ar
   769   109   108    1
   770   116   126    1
   771   122   107    1
   772   131   150    1
   773   131   151    1
   774   192   194    2
   775   192   193    1
   776   794   795    1
   777    46    45   ar
   778    46    47   ar
   779    81    79   ar
   780   850   839    1
   781    35    36    1
   782    62    45    1
   783   837   839   ar
   784   837   836   ar
   785    19    17   ar
   786   803   804   ar
   787   803   802    1
   788   804   805    2
   789   106   107    1
   790   106   108    1
   791   106   104    1
   792   129   127    2
   793    45    44   ar
   794     8    26    1
   795   777   789    1
   796   777   790    1
   797    17    18    1
   798   177   176   ar
   799   177   178    1
   800   839   840   ar
   801    48    47   ar
   802    48    50   ar
   803   108   123    1
   804   108   103    1
   805    47    54   ar
   806   120   104    1
   807   127   105    1
   808   127   128    1
   809    85    96    1
   810    85    78   ar
   811   811   795    1
   812   836   834   ar
   813    68    66    2
   814   797   802    1
   815   797   796    1
   816   795   812    1
   817   795   796    1
   818    79    78   ar
   819    79    80    2
   820   104   105    1
   821   104   102    1
   822    36    56    1
   823    36    55    1
   824    36    37    1
   825    58    39    1
   826   802   817    1
   827   802   800    1
   828   814   798    1
   829   178   189    1
   830   178   188    1
   831    78    77    1
   832    63    50    1
   833    50    51   ar
   834    18    30    1
   835    18    31    1
   836    44    54   ar
   837    44    43    1
   838   796   798    1
   839   796   813    1
   840   840   851    1
   841   840   833   ar
   842    54    53   ar
   843   103   102    1
   844    90    75    1
   845   815   800    1
   846   798   800    1
   847   798   799    1
   848   834   833   ar
   849   834   835    2
   850    39    37    1
   851    39    40    1
   852    39    41    1
   853   800   801    1
   854   102   119    1
   855   102   101    1
   856    66    69    1
   857    66    40    1
   858    66    67    1
   859    37    38    1
   860    37    57    1
   861    89    73    1
   862    38    43    1
   863   100   101    1
   864   100    97    1
   865   833   832    1
   866    99    97    2
   867   823   821    2
   868    51    53   ar
   869    51    52    1
   870    69    70    1
   871    43    41    1
   872    43    61    1
   873    59    41    1
   874    77    75    1
   875    77    92    1
   876    77    72    1
   877    75    73    1
   878    75    76    1
   879    41    42    1
   880   101   118    1
   881   101   117    1
   882    73    74    1
   883    73    71    1
   884   842   825    1
   885   799   821    1
   886    91    76    1
   887    97    74    1
   888    97    98    1
   889    72    71    1
   890   801   816    1
   891    64    52    1
   892   844   828    1
   893    52    65    1
   894   821   824    1
   895   821   822    1
   896    70    71    1
   897    70    87    1
   898    70    86    1
   899    71    88    1
   900   832   827    1
   901   832   847    1
   902   832   830    1
   903   845   830    1
   904   825   824    1
   905   825   841    1
   906   825   826    1
   907    42    60    1
   908   827   826    1
   909   828   830    1
   910   828   826    1
   911   828   829    1
   912   830   831    1
   913   826   843    1
   914   831   846    1
