ligand
  PyMOL2.2          3D                             0

 31 33  0  0  0  0  0  0  0  0999 V2000
  -19.6530  -15.7780  -12.3760 C   0  0  0  0  0  0  0  0  0  0  0  0
  -20.2140  -16.1740  -13.6190 O   0  0  0  0  0  0  0  0  0  0  0  0
  -23.8890  -16.0460  -15.7760 C   0  0  0  0  0  0  0  0  0  0  0  0
  -25.2920  -16.0820  -16.0360 N   0  0  0  0  0  0  0  0  0  0  0  0
  -25.0750  -12.7970  -15.0240 C   0  0  0  0  0  0  0  0  0  0  0  0
  -18.2280  -15.1580  -12.6880 C   0  0  0  0  0  0  0  0  0  0  0  0
  -18.3860  -14.0140  -13.5980 N   0  0  0  0  0  0  0  0  0  0  0  0
  -23.4670  -17.4250  -15.1050 C   0  0  0  0  0  0  0  0  0  0  0  0
  -25.3240  -11.8380  -16.2350 C   0  0  0  0  0  0  0  0  0  0  0  0
  -25.5140  -12.6280  -17.3850 O   0  0  0  0  0  0  0  0  0  0  0  0
  -17.2930  -16.2610  -13.3250 C   0  0  0  0  0  0  0  0  0  0  0  0
  -21.8980  -17.3890  -14.8200 C   0  0  0  0  0  0  0  0  0  0  0  0
  -21.4830  -18.6660  -14.2000 N   0  0  0  0  0  0  0  0  0  0  0  0
  -24.0810  -10.8680  -16.4000 C   0  0  0  0  0  0  0  0  0  0  0  0
  -24.3010   -9.9380  -17.5650 N   0  0  0  0  0  0  0  0  0  0  0  0
  -17.4770  -17.6790  -12.6410 C   0  0  0  0  0  0  0  0  0  0  0  0
  -21.5810  -16.1880  -13.8370 C   0  0  0  0  0  0  0  0  0  0  0  0
  -23.9110   -9.9850  -15.0440 C   0  0  0  0  0  0  0  0  0  0  0  0
  -25.0340   -9.1740  -14.7640 O   0  0  0  0  0  0  0  0  0  0  0  0
  -18.5090  -17.9200  -11.8010 C   0  0  0  0  0  0  0  0  0  0  0  0
  -19.4860  -16.9250  -11.4780 O   0  0  0  0  0  0  0  0  0  0  0  0
  -22.0250  -14.8260  -14.5120 C   0  0  0  0  0  0  0  0  0  0  0  0
  -21.7440  -13.7420  -13.6110 O   0  0  0  0  0  0  0  0  0  0  0  0
  -23.6910  -10.9590  -13.8390 C   0  0  0  0  0  0  0  0  0  0  0  0
  -24.8260  -11.9790  -13.7700 O   0  0  0  0  0  0  0  0  0  0  0  0
  -18.7170  -19.2730  -11.1220 C   0  0  0  0  0  0  0  0  0  0  0  0
  -20.1300  -19.5150  -11.0380 O   0  0  0  0  0  0  0  0  0  0  0  0
  -23.5790  -14.8570  -14.7970 C   0  0  0  0  0  0  0  0  0  0  0  0
  -23.9340  -13.6300  -15.4110 O   0  0  0  0  0  0  0  0  0  0  0  0
  -22.7200   -9.0030  -15.0600 C   0  0  0  0  0  0  0  0  0  0  0  0
  -23.4730  -10.1800  -18.7640 C   0  0  0  0  0  0  0  0  0  0  0  0
  1  2  1  0  0  0  0
  1  6  1  0  0  0  0
  1 21  1  0  0  0  0
  3  4  1  0  0  0  0
  3  8  1  0  0  0  0
  3 28  1  0  0  0  0
  5  9  1  0  0  0  0
  5 25  1  0  0  0  0
  5 29  1  0  0  0  0
  6  7  1  0  0  0  0
  6 11  1  0  0  0  0
  8 12  1  0  0  0  0
  9 10  1  0  0  0  0
  9 14  1  0  0  0  0
 11 16  1  0  0  0  0
 12 13  1  0  0  0  0
 12 17  1  0  0  0  0
 14 15  1  0  0  0  0
 14 18  1  0  0  0  0
 16 20  1  0  0  0  0
  2 17  1  0  0  0  0
 17 22  1  0  0  0  0
 18 19  1  0  0  0  0
 18 24  1  0  0  0  0
 18 30  1  0  0  0  0
 20 21  1  0  0  0  0
 20 26  1  0  0  0  0
 22 23  1  0  0  0  0
 22 28  1  0  0  0  0
 24 25  1  0  0  0  0
 26 27  1  0  0  0  0
 28 29  1  0  0  0  0
 15 31  1  0  0  0  0
M  END
$$$$
