ligand
 OpenBabel11021811493D
libRbt.so/2013.1/901 2013/11/27
 31 33  0  0  0  0  0  0  0  0999 V2000
  -19.3800  -15.7625  -12.5295 C   0  0  2  0  0  0  0  0  0  0  0  0
  -19.9039  -16.0317  -13.8217 O   0  0  0  0  0  0  0  0  0  0  0  0
  -23.5761  -15.9379  -15.9852 C   0  0  2  0  0  0  0  0  0  0  0  0
  -24.9703  -16.0620  -16.2644 N   0  0  0  0  0  0  0  0  0  0  0  0
  -25.1550  -13.0434  -15.0018 C   0  0  2  0  0  0  0  0  0  0  0  0
  -17.8483  -15.4006  -12.7173 C   0  0  2  0  0  0  0  0  0  0  0  0
  -17.7315  -14.2317  -13.6016 N   0  0  0  0  0  0  0  0  0  0  0  0
  -23.0328  -17.3523  -15.5012 C   0  0  0  0  0  0  0  0  0  0  0  0
  -25.5176  -12.1523  -16.2358 C   0  0  2  0  0  0  0  0  0  0  0  0
  -25.4488  -12.9565  -17.3896 O   0  0  0  0  0  0  0  0  0  0  0  0
  -17.0755  -16.6414  -13.3170 C   0  0  0  0  0  0  0  0  0  0  0  0
  -21.4732  -17.2168  -15.1954 C   0  0  2  0  0  0  0  0  0  0  0  0
  -20.9460  -18.5243  -14.7482 N   0  0  0  0  0  0  0  0  0  0  0  0
  -24.5053  -10.9352  -16.3193 C   0  0  1  0  0  0  0  0  0  0  0  0
  -24.8368  -10.0665  -17.5051 N   0  0  0  0  0  0  0  0  0  0  0  0
  -17.5587  -18.0153  -12.6914 C   0  0  0  0  0  0  0  0  0  0  0  0
  -21.2643  -16.1366  -14.0558 C   0  0  2  0  0  0  0  0  0  0  0  0
  -24.6286  -10.0461  -14.9623 C   0  0  1  0  0  0  0  0  0  0  0  0
  -25.9176   -9.4993  -14.7708 O   0  0  0  0  0  0  0  0  0  0  0  0
  -18.6790  -18.0830  -11.9370 C   0  0  2  0  0  0  0  0  0  0  0  0
  -19.4876  -16.9357  -11.6567 O   0  0  0  0  0  0  0  0  0  0  0  0
  -21.8279  -14.7404  -14.5463 C   0  0  2  0  0  0  0  0  0  0  0  0
  -21.6444  -13.7677  -13.5042 O   0  0  0  0  0  0  0  0  0  0  0  0
  -24.2905  -10.9580  -13.7362 C   0  0  0  0  0  0  0  0  0  0  0  0
  -25.1799  -12.1999  -13.7402 O   0  0  0  0  0  0  0  0  0  0  0  0
  -19.1738  -19.3886  -11.3161 C   0  0  0  0  0  0  0  0  0  0  0  0
  -19.4630  -19.1402   -9.9316 O   0  0  0  0  0  0  0  0  0  0  0  0
  -23.3730  -14.8696  -14.8513 C   0  0  1  0  0  0  0  0  0  0  0  0
  -23.8360  -13.6069  -15.2985 O   0  0  0  0  0  0  0  0  0  0  0  0
  -23.6802   -8.8295  -14.9011 C   0  0  0  0  0  0  0  0  0  0  0  0
  -24.2568  -10.4747  -18.8008 C   0  0  0  0  0  0  0  0  0  0  0  0
  1  2  1  6  0  0  0
  1  6  1  0  0  0  0
  1 21  1  0  0  0  0
  3  4  1  1  0  0  0
  3  8  1  0  0  0  0
  3 28  1  0  0  0  0
  5  9  1  0  0  0  0
  5 25  1  0  0  0  0
  5 29  1  6  0  0  0
  6  7  1  6  0  0  0
  6 11  1  0  0  0  0
  8 12  1  0  0  0  0
  9 10  1  6  0  0  0
  9 14  1  0  0  0  0
 11 16  1  0  0  0  0
 12 13  1  1  0  0  0
 12 17  1  0  0  0  0
 14 15  1  6  0  0  0
 14 18  1  0  0  0  0
 15 31  1  0  0  0  0
 16 20  1  0  0  0  0
 17  2  1  6  0  0  0
 17 22  1  0  0  0  0
 18 19  1  1  0  0  0
 18 24  1  0  0  0  0
 18 30  1  0  0  0  0
 20 21  1  0  0  0  0
 20 26  1  1  0  0  0
 22 23  1  1  0  0  0
 22 28  1  0  0  0  0
 24 25  1  0  0  0  0
 26 27  1  0  0  0  0
 28 29  1  6  0  0  0
M  END
>  <CHROM.1>
-167.67832708,-149.21981946,-85.36085526,-146.27183261,131.35405146,97.36965538
-22.13439831,-14.46308132,-14.39722263,-0.70965882,-0.60397133,0.08294420

>  <Name>
ligand

>  <RI>
0

>  <Rbt.Current_Directory>
/home/itssahil/PROJECTS/Mol_Feturizer/New_Systems/rnas/4GPW

>  <Rbt.Executable>
rbdock ($Id: //depot/dev/client3/rdock/2013.1/src/exe/rbdock.cxx#4 $)

>  <Rbt.Library>
libRbt.so (2013.1, Build901 2013/11/27)

>  <Rbt.Parameter_File>
/export/apps/rDock/src/rDock_2013.1_src/data/scripts/dock_solv.prm

>  <Rbt.Receptor>
prm/pocket_docking_2.prm

>  <SCORE>
-17.7584

>  <SCORE.INTER>
-16.5408

>  <SCORE.INTER.CONST>
1

>  <SCORE.INTER.POLAR>
0

>  <SCORE.INTER.ROT>
6

>  <SCORE.INTER.SOLV>
16.2615

>  <SCORE.INTER.VDW>
-24.0477

>  <SCORE.INTER.norm>
-0.533576

>  <SCORE.INTRA>
-1.21759

>  <SCORE.INTRA.DIHEDRAL>
-3.23331

>  <SCORE.INTRA.DIHEDRAL.0>
19.2558

>  <SCORE.INTRA.POLAR>
0

>  <SCORE.INTRA.POLAR.0>
0

>  <SCORE.INTRA.REPUL>
0

>  <SCORE.INTRA.REPUL.0>
0

>  <SCORE.INTRA.SOLV>
-0.184501

>  <SCORE.INTRA.SOLV.lig_0>
-64.5929

>  <SCORE.INTRA.VDW>
0.491316

>  <SCORE.INTRA.VDW.0>
-4.40538

>  <SCORE.INTRA.norm>
-0.0392771

>  <SCORE.RESTR>
0

>  <SCORE.RESTR.CAVITY>
0

>  <SCORE.RESTR.norm>
0

>  <SCORE.SYSTEM>
0

>  <SCORE.SYSTEM.CONST>
0

>  <SCORE.SYSTEM.DIHEDRAL>
0

>  <SCORE.SYSTEM.SOLV>
0

>  <SCORE.SYSTEM.norm>
0

>  <SCORE.heavy>
31

>  <SCORE.norm>
-0.572853

>  <RMSD>
0.562

$$$$
ligand
 OpenBabel11021811493D
libRbt.so/2013.1/901 2013/11/27
 31 33  0  0  0  0  0  0  0  0999 V2000
  -19.3674  -15.6949  -12.4824 C   0  0  2  0  0  0  0  0  0  0  0  0
  -19.9142  -15.9977  -13.7575 O   0  0  0  0  0  0  0  0  0  0  0  0
  -23.6255  -16.2238  -15.8431 C   0  0  2  0  0  0  0  0  0  0  0  0
  -25.0196  -16.4177  -16.0802 N   0  0  0  0  0  0  0  0  0  0  0  0
  -25.2384  -13.2447  -15.0203 C   0  0  2  0  0  0  0  0  0  0  0  0
  -17.8511  -15.2945  -12.7124 C   0  0  2  0  0  0  0  0  0  0  0  0
  -17.7874  -14.1365  -13.6161 N   0  0  0  0  0  0  0  0  0  0  0  0
  -23.0267  -17.5686  -15.2406 C   0  0  0  0  0  0  0  0  0  0  0  0
  -25.6066  -12.3122  -16.2215 C   0  0  2  0  0  0  0  0  0  0  0  0
  -25.6034  -13.0906  -17.3949 O   0  0  0  0  0  0  0  0  0  0  0  0
  -17.0590  -16.5230  -13.3125 C   0  0  0  0  0  0  0  0  0  0  0  0
  -21.4673  -17.3558  -14.9814 C   0  0  2  0  0  0  0  0  0  0  0  0
  -20.8889  -18.5981  -14.4252 N   0  0  0  0  0  0  0  0  0  0  0  0
  -24.5535  -11.1305  -16.3100 C   0  0  1  0  0  0  0  0  0  0  0  0
  -24.8898  -10.2226  -17.4646 N   0  0  0  0  0  0  0  0  0  0  0  0
  -17.4892  -17.8998  -12.6555 C   0  0  0  0  0  0  0  0  0  0  0  0
  -21.2742  -16.1672  -13.9523 C   0  0  2  0  0  0  0  0  0  0  0  0
  -24.6016  -10.2700  -14.9299 C   0  0  1  0  0  0  0  0  0  0  0  0
  -25.8632   -9.6821  -14.6849 O   0  0  0  0  0  0  0  0  0  0  0  0
  -18.5890  -17.9863  -11.8734 C   0  0  2  0  0  0  0  0  0  0  0  0
  -19.4220  -16.8572  -11.5903 O   0  0  0  0  0  0  0  0  0  0  0  0
  -21.8929  -14.8417  -14.5592 C   0  0  2  0  0  0  0  0  0  0  0  0
  -21.7234  -13.7701  -13.6166 O   0  0  0  0  0  0  0  0  0  0  0  0
  -24.2590  -11.2223  -13.7363 C   0  0  0  0  0  0  0  0  0  0  0  0
  -25.1930  -12.4311  -13.7398 O   0  0  0  0  0  0  0  0  0  0  0  0
  -19.0330  -19.2953  -11.2219 C   0  0  0  0  0  0  0  0  0  0  0  0
  -19.4961  -18.9964   -9.8958 O   0  0  0  0  0  0  0  0  0  0  0  0
  -23.4380  -15.0478  -14.8184 C   0  0  1  0  0  0  0  0  0  0  0  0
  -23.9508  -13.8481  -15.3719 O   0  0  0  0  0  0  0  0  0  0  0  0
  -23.6079   -9.0901  -14.8717 C   0  0  0  0  0  0  0  0  0  0  0  0
  -24.2729  -10.5570  -18.7644 C   0  0  0  0  0  0  0  0  0  0  0  0
  1  2  1  6  0  0  0
  1  6  1  0  0  0  0
  1 21  1  0  0  0  0
  3  4  1  1  0  0  0
  3  8  1  0  0  0  0
  3 28  1  0  0  0  0
  5  9  1  0  0  0  0
  5 25  1  0  0  0  0
  5 29  1  6  0  0  0
  6  7  1  6  0  0  0
  6 11  1  0  0  0  0
  8 12  1  0  0  0  0
  9 10  1  6  0  0  0
  9 14  1  0  0  0  0
 11 16  1  0  0  0  0
 12 13  1  1  0  0  0
 12 17  1  0  0  0  0
 14 15  1  6  0  0  0
 14 18  1  0  0  0  0
 15 31  1  0  0  0  0
 16 20  1  0  0  0  0
 17  2  1  6  0  0  0
 17 22  1  0  0  0  0
 18 19  1  1  0  0  0
 18 24  1  0  0  0  0
 18 30  1  0  0  0  0
 20 21  1  0  0  0  0
 20 26  1  1  0  0  0
 22 23  1  1  0  0  0
 22 28  1  0  0  0  0
 24 25  1  0  0  0  0
 26 27  1  0  0  0  0
 28 29  1  6  0  0  0
M  END
>  <CHROM.1>
-168.88485917,-158.74848744,-90.33648331,-141.20188833,140.28695701,102.53632467
-22.14589762,-14.55120669,-14.34445334,-0.72241198,-0.55266951,0.01111111

>  <Name>
ligand

>  <RI>
0

>  <Rbt.Current_Directory>
/home/itssahil/PROJECTS/Mol_Feturizer/New_Systems/rnas/4GPW

>  <Rbt.Executable>
rbdock ($Id: //depot/dev/client3/rdock/2013.1/src/exe/rbdock.cxx#4 $)

>  <Rbt.Library>
libRbt.so (2013.1, Build901 2013/11/27)

>  <Rbt.Parameter_File>
/export/apps/rDock/src/rDock_2013.1_src/data/scripts/dock_solv.prm

>  <Rbt.Receptor>
prm/pocket_docking_2.prm

>  <SCORE>
-17.6527

>  <SCORE.INTER>
-16.4333

>  <SCORE.INTER.CONST>
1

>  <SCORE.INTER.POLAR>
0

>  <SCORE.INTER.ROT>
6

>  <SCORE.INTER.SOLV>
16.8142

>  <SCORE.INTER.VDW>
-24.1603

>  <SCORE.INTER.norm>
-0.530106

>  <SCORE.INTRA>
-1.23008

>  <SCORE.INTRA.DIHEDRAL>
-2.88009

>  <SCORE.INTRA.DIHEDRAL.0>
19.2558

>  <SCORE.INTRA.POLAR>
0

>  <SCORE.INTRA.POLAR.0>
0

>  <SCORE.INTRA.REPUL>
0

>  <SCORE.INTRA.REPUL.0>
0

>  <SCORE.INTRA.SOLV>
-0.143787

>  <SCORE.INTRA.SOLV.lig_0>
-64.5929

>  <SCORE.INTRA.VDW>
0.281862

>  <SCORE.INTRA.VDW.0>
-4.40538

>  <SCORE.INTRA.norm>
-0.0396799

>  <SCORE.RESTR>
0.010706

>  <SCORE.RESTR.CAVITY>
0.010706

>  <SCORE.RESTR.norm>
0.000345354

>  <SCORE.SYSTEM>
0

>  <SCORE.SYSTEM.CONST>
0

>  <SCORE.SYSTEM.DIHEDRAL>
0

>  <SCORE.SYSTEM.SOLV>
0

>  <SCORE.SYSTEM.norm>
0

>  <SCORE.heavy>
31

>  <SCORE.norm>
-0.569441

>  <RMSD>
0.563

$$$$
ligand
 OpenBabel11021811493D
libRbt.so/2013.1/901 2013/11/27
 31 33  0  0  0  0  0  0  0  0999 V2000
  -19.3572  -15.7111  -12.5287 C   0  0  2  0  0  0  0  0  0  0  0  0
  -19.9069  -16.0347  -13.7974 O   0  0  0  0  0  0  0  0  0  0  0  0
  -23.6229  -16.2803  -15.8724 C   0  0  2  0  0  0  0  0  0  0  0  0
  -25.0179  -16.4741  -16.1041 N   0  0  0  0  0  0  0  0  0  0  0  0
  -25.2438  -13.3070  -15.1148 C   0  0  2  0  0  0  0  0  0  0  0  0
  -17.8495  -15.2869  -12.7721 C   0  0  2  0  0  0  0  0  0  0  0  0
  -17.8115  -14.1360  -13.6864 N   0  0  0  0  0  0  0  0  0  0  0  0
  -23.0260  -17.6182  -15.2529 C   0  0  0  0  0  0  0  0  0  0  0  0
  -25.5768  -12.3562  -16.3121 C   0  0  2  0  0  0  0  0  0  0  0  0
  -25.5297  -13.1148  -17.4974 O   0  0  0  0  0  0  0  0  0  0  0  0
  -17.0402  -16.5069  -13.3665 C   0  0  0  0  0  0  0  0  0  0  0  0
  -21.4656  -17.4056  -14.9997 C   0  0  2  0  0  0  0  0  0  0  0  0
  -20.8889  -18.6416  -14.4278 N   0  0  0  0  0  0  0  0  0  0  0  0
  -24.5281  -11.1678  -16.3453 C   0  0  1  0  0  0  0  0  0  0  0  0
  -24.8306  -10.2423  -17.4953 N   0  0  0  0  0  0  0  0  0  0  0  0
  -17.4426  -17.8849  -12.6945 C   0  0  0  0  0  0  0  0  0  0  0  0
  -21.2677  -16.2035  -13.9872 C   0  0  2  0  0  0  0  0  0  0  0  0
  -24.6275  -10.3309  -14.9535 C   0  0  1  0  0  0  0  0  0  0  0  0
  -25.8999   -9.7537  -14.7413 O   0  0  0  0  0  0  0  0  0  0  0  0
  -18.5356  -17.9833  -11.9045 C   0  0  2  0  0  0  0  0  0  0  0  0
  -19.3861  -16.8662  -11.6260 O   0  0  0  0  0  0  0  0  0  0  0  0
  -21.8845  -14.8850  -14.6108 C   0  0  2  0  0  0  0  0  0  0  0  0
  -21.7106  -13.8010  -13.6832 O   0  0  0  0  0  0  0  0  0  0  0  0
  -24.3197  -11.3015  -13.7650 C   0  0  0  0  0  0  0  0  0  0  0  0
  -25.2461  -12.5148  -13.8202 O   0  0  0  0  0  0  0  0  0  0  0  0
  -18.9529  -19.2938  -11.2386 C   0  0  0  0  0  0  0  0  0  0  0  0
  -19.4791  -18.9835   -9.9390 O   0  0  0  0  0  0  0  0  0  0  0  0
  -23.4306  -15.0909  -14.8642 C   0  0  1  0  0  0  0  0  0  0  0  0
  -23.9417  -13.8976  -15.4328 O   0  0  0  0  0  0  0  0  0  0  0  0
  -23.6431   -9.1470  -14.8422 C   0  0  0  0  0  0  0  0  0  0  0  0
  -24.1732  -10.5551  -18.7805 C   0  0  0  0  0  0  0  0  0  0  0  0
  1  2  1  6  0  0  0
  1  6  1  0  0  0  0
  1 21  1  0  0  0  0
  3  4  1  1  0  0  0
  3  8  1  0  0  0  0
  3 28  1  0  0  0  0
  5  9  1  0  0  0  0
  5 25  1  0  0  0  0
  5 29  1  6  0  0  0
  6  7  1  6  0  0  0
  6 11  1  0  0  0  0
  8 12  1  0  0  0  0
  9 10  1  6  0  0  0
  9 14  1  0  0  0  0
 11 16  1  0  0  0  0
 12 13  1  1  0  0  0
 12 17  1  0  0  0  0
 14 15  1  6  0  0  0
 14 18  1  0  0  0  0
 15 31  1  0  0  0  0
 16 20  1  0  0  0  0
 17  2  1  6  0  0  0
 17 22  1  0  0  0  0
 18 19  1  1  0  0  0
 18 24  1  0  0  0  0
 18 30  1  0  0  0  0
 20 21  1  0  0  0  0
 20 26  1  1  0  0  0
 22 23  1  1  0  0  0
 22 28  1  0  0  0  0
 24 25  1  0  0  0  0
 26 27  1  0  0  0  0
 28 29  1  6  0  0  0
M  END
>  <CHROM.1>
-167.59996018,-159.96706283,-90.07398623,-141.43298147,143.31088011,100.70559008
-22.13389437,-14.58349246,-14.38710260,-0.72282550,-0.54523841,0.00206617

>  <Name>
ligand

>  <RI>
0

>  <Rbt.Current_Directory>
/home/itssahil/PROJECTS/Mol_Feturizer/New_Systems/rnas/4GPW

>  <Rbt.Executable>
rbdock ($Id: //depot/dev/client3/rdock/2013.1/src/exe/rbdock.cxx#4 $)

>  <Rbt.Library>
libRbt.so (2013.1, Build901 2013/11/27)

>  <Rbt.Parameter_File>
/export/apps/rDock/src/rDock_2013.1_src/data/scripts/dock_solv.prm

>  <Rbt.Receptor>
prm/pocket_docking_2.prm

>  <SCORE>
-17.7537

>  <SCORE.INTER>
-16.3806

>  <SCORE.INTER.CONST>
1

>  <SCORE.INTER.POLAR>
0

>  <SCORE.INTER.ROT>
6

>  <SCORE.INTER.SOLV>
16.504

>  <SCORE.INTER.VDW>
-24.0217

>  <SCORE.INTER.norm>
-0.528405

>  <SCORE.INTRA>
-1.37316

>  <SCORE.INTRA.DIHEDRAL>
-3.1347

>  <SCORE.INTRA.DIHEDRAL.0>
19.2558

>  <SCORE.INTRA.POLAR>
0

>  <SCORE.INTRA.POLAR.0>
0

>  <SCORE.INTRA.REPUL>
0

>  <SCORE.INTRA.REPUL.0>
0

>  <SCORE.INTRA.SOLV>
-0.193587

>  <SCORE.INTRA.SOLV.lig_0>
-64.5929

>  <SCORE.INTRA.VDW>
0.290985

>  <SCORE.INTRA.VDW.0>
-4.40538

>  <SCORE.INTRA.norm>
-0.0442954

>  <SCORE.RESTR>
0

>  <SCORE.RESTR.CAVITY>
0

>  <SCORE.RESTR.norm>
0

>  <SCORE.SYSTEM>
0

>  <SCORE.SYSTEM.CONST>
0

>  <SCORE.SYSTEM.DIHEDRAL>
0

>  <SCORE.SYSTEM.SOLV>
0

>  <SCORE.SYSTEM.norm>
0

>  <SCORE.heavy>
31

>  <SCORE.norm>
-0.5727

>  <RMSD>
0.578

$$$$
ligand
 OpenBabel11021811493D
libRbt.so/2013.1/901 2013/11/27
 31 33  0  0  0  0  0  0  0  0999 V2000
  -19.4082  -15.7426  -12.3870 C   0  0  2  0  0  0  0  0  0  0  0  0
  -19.9337  -15.9302  -13.6929 O   0  0  0  0  0  0  0  0  0  0  0  0
  -23.5848  -16.2386  -15.8720 C   0  0  2  0  0  0  0  0  0  0  0  0
  -24.9698  -16.4530  -16.1424 N   0  0  0  0  0  0  0  0  0  0  0  0
  -25.2462  -13.2558  -15.1404 C   0  0  2  0  0  0  0  0  0  0  0  0
  -17.8783  -15.3630  -12.5540 C   0  0  2  0  0  0  0  0  0  0  0  0
  -17.7680  -14.1391  -13.3614 N   0  0  0  0  0  0  0  0  0  0  0  0
  -22.9878  -17.5647  -15.2278 C   0  0  0  0  0  0  0  0  0  0  0  0
  -25.5621  -12.2927  -16.3323 C   0  0  2  0  0  0  0  0  0  0  0  0
  -25.5165  -13.0429  -17.5231 O   0  0  0  0  0  0  0  0  0  0  0  0
  -17.1018  -16.5595  -13.2337 C   0  0  0  0  0  0  0  0  0  0  0  0
  -21.4383  -17.3291  -14.9313 C   0  0  2  0  0  0  0  0  0  0  0  0
  -20.8614  -18.5539  -14.3360 N   0  0  0  0  0  0  0  0  0  0  0  0
  -24.5004  -11.1155  -16.3508 C   0  0  1  0  0  0  0  0  0  0  0  0
  -24.7864  -10.1782  -17.4955 N   0  0  0  0  0  0  0  0  0  0  0  0
  -17.5781  -17.9728  -12.6970 C   0  0  0  0  0  0  0  0  0  0  0  0
  -21.2860  -16.1189  -13.9206 C   0  0  2  0  0  0  0  0  0  0  0  0
  -24.5986  -10.2880  -14.9534 C   0  0  1  0  0  0  0  0  0  0  0  0
  -25.8659   -9.6985  -14.7439 O   0  0  0  0  0  0  0  0  0  0  0  0
  -18.6965  -18.0935  -11.9464 C   0  0  2  0  0  0  0  0  0  0  0  0
  -19.5092  -16.9700  -11.5913 O   0  0  0  0  0  0  0  0  0  0  0  0
  -21.9027  -14.8125  -14.5693 C   0  0  2  0  0  0  0  0  0  0  0  0
  -21.7704  -13.7212  -13.6433 O   0  0  0  0  0  0  0  0  0  0  0  0
  -24.3081  -11.2706  -13.7705 C   0  0  0  0  0  0  0  0  0  0  0  0
  -25.2473  -12.4733  -13.8399 O   0  0  0  0  0  0  0  0  0  0  0  0
  -19.1848  -19.4384  -11.4100 C   0  0  0  0  0  0  0  0  0  0  0  0
  -19.1172  -19.3955   -9.9762 O   0  0  0  0  0  0  0  0  0  0  0  0
  -23.4379  -15.0412  -14.8656 C   0  0  1  0  0  0  0  0  0  0  0  0
  -23.9488  -13.8582  -15.4556 O   0  0  0  0  0  0  0  0  0  0  0  0
  -23.6021   -9.1157  -14.8277 C   0  0  0  0  0  0  0  0  0  0  0  0
  -24.2108  -10.5462  -18.8051 C   0  0  0  0  0  0  0  0  0  0  0  0
  1  2  1  6  0  0  0
  1  6  1  0  0  0  0
  1 21  1  0  0  0  0
  3  4  1  1  0  0  0
  3  8  1  0  0  0  0
  3 28  1  0  0  0  0
  5  9  1  0  0  0  0
  5 25  1  0  0  0  0
  5 29  1  6  0  0  0
  6  7  1  6  0  0  0
  6 11  1  0  0  0  0
  8 12  1  0  0  0  0
  9 10  1  6  0  0  0
  9 14  1  0  0  0  0
 11 16  1  0  0  0  0
 12 13  1  1  0  0  0
 12 17  1  0  0  0  0
 14 15  1  6  0  0  0
 14 18  1  0  0  0  0
 15 31  1  0  0  0  0
 16 20  1  0  0  0  0
 17  2  1  6  0  0  0
 17 22  1  0  0  0  0
 18 19  1  1  0  0  0
 18 24  1  0  0  0  0
 18 30  1  0  0  0  0
 20 21  1  0  0  0  0
 20 26  1  1  0  0  0
 22 23  1  1  0  0  0
 22 28  1  0  0  0  0
 24 25  1  0  0  0  0
 26 27  1  0  0  0  0
 28 29  1  6  0  0  0
M  END
>  <CHROM.1>
-172.28638982,-161.81656194,-85.47020992,-134.13381509,115.58982506,103.18060009
-22.13824570,-14.57831041,-14.36039046,-0.72742118,-0.56876294,0.01634472

>  <Name>
ligand

>  <RI>
0

>  <Rbt.Current_Directory>
/home/itssahil/PROJECTS/Mol_Feturizer/New_Systems/rnas/4GPW

>  <Rbt.Executable>
rbdock ($Id: //depot/dev/client3/rdock/2013.1/src/exe/rbdock.cxx#4 $)

>  <Rbt.Library>
libRbt.so (2013.1, Build901 2013/11/27)

>  <Rbt.Parameter_File>
/export/apps/rDock/src/rDock_2013.1_src/data/scripts/dock_solv.prm

>  <Rbt.Receptor>
prm/pocket_docking_2.prm

>  <SCORE>
-17.6124

>  <SCORE.INTER>
-16.317

>  <SCORE.INTER.CONST>
1

>  <SCORE.INTER.POLAR>
0

>  <SCORE.INTER.ROT>
6

>  <SCORE.INTER.SOLV>
16.4018

>  <SCORE.INTER.VDW>
-23.9453

>  <SCORE.INTER.norm>
-0.526354

>  <SCORE.INTRA>
-1.29703

>  <SCORE.INTRA.DIHEDRAL>
-3.14452

>  <SCORE.INTRA.DIHEDRAL.0>
19.2558

>  <SCORE.INTRA.POLAR>
0

>  <SCORE.INTRA.POLAR.0>
0

>  <SCORE.INTRA.REPUL>
0

>  <SCORE.INTRA.REPUL.0>
0

>  <SCORE.INTRA.SOLV>
0.204687

>  <SCORE.INTRA.SOLV.lig_0>
-64.5929

>  <SCORE.INTRA.VDW>
0.172886

>  <SCORE.INTRA.VDW.0>
-4.40538

>  <SCORE.INTRA.norm>
-0.0418397

>  <SCORE.RESTR>
0.00158331

>  <SCORE.RESTR.CAVITY>
0.00158331

>  <SCORE.RESTR.norm>
5.10744e-05

>  <SCORE.SYSTEM>
0

>  <SCORE.SYSTEM.CONST>
0

>  <SCORE.SYSTEM.DIHEDRAL>
0

>  <SCORE.SYSTEM.SOLV>
0

>  <SCORE.SYSTEM.norm>
0

>  <SCORE.heavy>
31

>  <SCORE.norm>
-0.568143

>  <RMSD>
0.580

$$$$
ligand
 OpenBabel11021811493D
libRbt.so/2013.1/901 2013/11/27
 31 33  0  0  0  0  0  0  0  0999 V2000
  -19.2319  -15.5030  -12.7344 C   0  0  2  0  0  0  0  0  0  0  0  0
  -19.8275  -16.0907  -13.8818 O   0  0  0  0  0  0  0  0  0  0  0  0
  -23.6065  -15.9245  -15.8480 C   0  0  2  0  0  0  0  0  0  0  0  0
  -25.0165  -16.0146  -16.0509 N   0  0  0  0  0  0  0  0  0  0  0  0
  -25.0982  -13.0254  -14.9150 C   0  0  2  0  0  0  0  0  0  0  0  0
  -17.6908  -15.3186  -13.0562 C   0  0  2  0  0  0  0  0  0  0  0  0
  -17.5425  -14.4606  -14.2410 N   0  0  0  0  0  0  0  0  0  0  0  0
  -23.0753  -17.3471  -15.3747 C   0  0  0  0  0  0  0  0  0  0  0  0
  -25.4526  -12.1660  -16.1736 C   0  0  2  0  0  0  0  0  0  0  0  0
  -25.3571  -12.9944  -17.3082 O   0  0  0  0  0  0  0  0  0  0  0  0
  -17.0218  -16.7301  -13.2941 C   0  0  0  0  0  0  0  0  0  0  0  0
  -21.4985  -17.2498  -15.1540 C   0  0  2  0  0  0  0  0  0  0  0  0
  -20.9825  -18.5655  -14.7181 N   0  0  0  0  0  0  0  0  0  0  0  0
  -24.4535  -10.9389  -16.2691 C   0  0  1  0  0  0  0  0  0  0  0  0
  -24.7773  -10.1005  -17.4786 N   0  0  0  0  0  0  0  0  0  0  0  0
  -17.5592  -17.8317  -12.2891 C   0  0  0  0  0  0  0  0  0  0  0  0
  -21.2007  -16.1620  -14.0418 C   0  0  2  0  0  0  0  0  0  0  0  0
  -24.6075  -10.0218  -14.9340 C   0  0  1  0  0  0  0  0  0  0  0  0
  -25.9056   -9.4865  -14.7737 O   0  0  0  0  0  0  0  0  0  0  0  0
  -18.6472  -17.6028  -11.5193 C   0  0  2  0  0  0  0  0  0  0  0  0
  -19.3717  -16.3690  -11.5595 O   0  0  0  0  0  0  0  0  0  0  0  0
  -21.7531  -14.7571  -14.5203 C   0  0  2  0  0  0  0  0  0  0  0  0
  -21.4888  -13.7773  -13.5025 O   0  0  0  0  0  0  0  0  0  0  0  0
  -24.2773  -10.9024  -13.6833 C   0  0  0  0  0  0  0  0  0  0  0  0
  -25.1519  -12.1548  -13.6729 O   0  0  0  0  0  0  0  0  0  0  0  0
  -19.1924  -18.6397  -10.5382 C   0  0  0  0  0  0  0  0  0  0  0  0
  -20.3895  -19.1977  -11.1018 O   0  0  0  0  0  0  0  0  0  0  0  0
  -23.3152  -14.8485  -14.7409 C   0  0  1  0  0  0  0  0  0  0  0  0
  -23.7683  -13.5794  -15.1797 O   0  0  0  0  0  0  0  0  0  0  0  0
  -23.6745   -8.7929  -14.8858 C   0  0  0  0  0  0  0  0  0  0  0  0
  -24.1536  -10.5157  -18.7515 C   0  0  0  0  0  0  0  0  0  0  0  0
  1  2  1  6  0  0  0
  1  6  1  0  0  0  0
  1 21  1  0  0  0  0
  3  4  1  1  0  0  0
  3  8  1  0  0  0  0
  3 28  1  0  0  0  0
  5  9  1  0  0  0  0
  5 25  1  0  0  0  0
  5 29  1  6  0  0  0
  6  7  1  6  0  0  0
  6 11  1  0  0  0  0
  8 12  1  0  0  0  0
  9 10  1  6  0  0  0
  9 14  1  0  0  0  0
 11 16  1  0  0  0  0
 12 13  1  1  0  0  0
 12 17  1  0  0  0  0
 14 15  1  6  0  0  0
 14 18  1  0  0  0  0
 15 31  1  0  0  0  0
 16 20  1  0  0  0  0
 17  2  1  6  0  0  0
 17 22  1  0  0  0  0
 18 19  1  1  0  0  0
 18 24  1  0  0  0  0
 18 30  1  0  0  0  0
 20 21  1  0  0  0  0
 20 26  1  1  0  0  0
 22 23  1  1  0  0  0
 22 28  1  0  0  0  0
 24 25  1  0  0  0  0
 26 27  1  0  0  0  0
 28 29  1  6  0  0  0
M  END
>  <CHROM.1>
-167.70314596,-146.67355925,-86.43451458,-162.33129846,-105.57409906,91.90192570
-22.11914062,-14.40095629,-14.38152814,-0.74744799,-0.53164764,0.00521727

>  <Name>
ligand

>  <RI>
0

>  <Rbt.Current_Directory>
/home/itssahil/PROJECTS/Mol_Feturizer/New_Systems/rnas/4GPW

>  <Rbt.Executable>
rbdock ($Id: //depot/dev/client3/rdock/2013.1/src/exe/rbdock.cxx#4 $)

>  <Rbt.Library>
libRbt.so (2013.1, Build901 2013/11/27)

>  <Rbt.Parameter_File>
/export/apps/rDock/src/rDock_2013.1_src/data/scripts/dock_solv.prm

>  <Rbt.Receptor>
prm/pocket_docking_2.prm

>  <SCORE>
-20.1531

>  <SCORE.INTER>
-17.0759

>  <SCORE.INTER.CONST>
1

>  <SCORE.INTER.POLAR>
0

>  <SCORE.INTER.ROT>
6

>  <SCORE.INTER.SOLV>
16.4627

>  <SCORE.INTER.VDW>
-24.4715

>  <SCORE.INTER.norm>
-0.550835

>  <SCORE.INTRA>
-3.07723

>  <SCORE.INTRA.DIHEDRAL>
-6.48541

>  <SCORE.INTRA.DIHEDRAL.0>
19.2558

>  <SCORE.INTRA.POLAR>
0

>  <SCORE.INTRA.POLAR.0>
0

>  <SCORE.INTRA.REPUL>
0

>  <SCORE.INTRA.REPUL.0>
0

>  <SCORE.INTRA.SOLV>
-0.834358

>  <SCORE.INTRA.SOLV.lig_0>
-64.5929

>  <SCORE.INTRA.VDW>
0.582657

>  <SCORE.INTRA.VDW.0>
-4.40538

>  <SCORE.INTRA.norm>
-0.0992654

>  <SCORE.RESTR>
0

>  <SCORE.RESTR.CAVITY>
0

>  <SCORE.RESTR.norm>
0

>  <SCORE.SYSTEM>
0

>  <SCORE.SYSTEM.CONST>
0

>  <SCORE.SYSTEM.DIHEDRAL>
0

>  <SCORE.SYSTEM.SOLV>
0

>  <SCORE.SYSTEM.norm>
0

>  <SCORE.heavy>
31

>  <SCORE.norm>
-0.6501

>  <RMSD>
0.580

$$$$
ligand
 OpenBabel11021811493D
libRbt.so/2013.1/901 2013/11/27
 31 33  0  0  0  0  0  0  0  0999 V2000
  -19.4169  -15.7589  -12.3779 C   0  0  2  0  0  0  0  0  0  0  0  0
  -19.9485  -15.9718  -13.6774 O   0  0  0  0  0  0  0  0  0  0  0  0
  -23.6176  -16.2027  -15.8358 C   0  0  2  0  0  0  0  0  0  0  0  0
  -25.0073  -16.3936  -16.0995 N   0  0  0  0  0  0  0  0  0  0  0  0
  -25.2435  -13.2206  -15.0851 C   0  0  2  0  0  0  0  0  0  0  0  0
  -17.8892  -15.3774  -12.5596 C   0  0  2  0  0  0  0  0  0  0  0  0
  -17.7871  -14.1681  -13.3895 N   0  0  0  0  0  0  0  0  0  0  0  0
  -23.0362  -17.5443  -15.2097 C   0  0  0  0  0  0  0  0  0  0  0  0
  -25.5661  -12.2802  -16.2934 C   0  0  2  0  0  0  0  0  0  0  0  0
  -25.5184  -13.0510  -17.4708 O   0  0  0  0  0  0  0  0  0  0  0  0
  -17.1122  -16.5835  -13.2215 C   0  0  0  0  0  0  0  0  0  0  0  0
  -21.4816  -17.3349  -14.9208 C   0  0  2  0  0  0  0  0  0  0  0  0
  -20.9192  -18.5744  -14.3423 N   0  0  0  0  0  0  0  0  0  0  0  0
  -24.5106  -11.0981  -16.3343 C   0  0  1  0  0  0  0  0  0  0  0  0
  -24.8031  -10.1826  -17.4948 N   0  0  0  0  0  0  0  0  0  0  0  0
  -17.5811  -17.9884  -12.6568 C   0  0  0  0  0  0  0  0  0  0  0  0
  -21.3049  -16.1380  -13.8983 C   0  0  2  0  0  0  0  0  0  0  0  0
  -24.6110  -10.2466  -14.9515 C   0  0  1  0  0  0  0  0  0  0  0  0
  -25.8810   -9.6601  -14.7504 O   0  0  0  0  0  0  0  0  0  0  0  0
  -18.6953  -18.0991  -11.8985 C   0  0  2  0  0  0  0  0  0  0  0  0
  -19.5099  -16.9720  -11.5596 O   0  0  0  0  0  0  0  0  0  0  0  0
  -21.9062  -14.8157  -14.5290 C   0  0  2  0  0  0  0  0  0  0  0  0
  -21.7518  -13.7365  -13.5923 O   0  0  0  0  0  0  0  0  0  0  0  0
  -24.3136  -11.2067  -13.7519 C   0  0  0  0  0  0  0  0  0  0  0  0
  -25.2466  -12.4153  -13.7986 O   0  0  0  0  0  0  0  0  0  0  0  0
  -19.1764  -19.4356  -11.3353 C   0  0  0  0  0  0  0  0  0  0  0  0
  -18.8701  -19.4624   -9.9326 O   0  0  0  0  0  0  0  0  0  0  0  0
  -23.4465  -15.0184  -14.8177 C   0  0  1  0  0  0  0  0  0  0  0  0
  -23.9435  -13.8217  -15.3917 O   0  0  0  0  0  0  0  0  0  0  0  0
  -23.6204   -9.0671  -14.8480 C   0  0  0  0  0  0  0  0  0  0  0  0
  -24.1698  -10.5319  -18.7827 C   0  0  0  0  0  0  0  0  0  0  0  0
  1  2  1  6  0  0  0
  1  6  1  0  0  0  0
  1 21  1  0  0  0  0
  3  4  1  1  0  0  0
  3  8  1  0  0  0  0
  3 28  1  0  0  0  0
  5  9  1  0  0  0  0
  5 25  1  0  0  0  0
  5 29  1  6  0  0  0
  6  7  1  6  0  0  0
  6 11  1  0  0  0  0
  8 12  1  0  0  0  0
  9 10  1  6  0  0  0
  9 14  1  0  0  0  0
 11 16  1  0  0  0  0
 12 13  1  1  0  0  0
 12 17  1  0  0  0  0
 14 15  1  6  0  0  0
 14 18  1  0  0  0  0
 15 31  1  0  0  0  0
 16 20  1  0  0  0  0
 17  2  1  6  0  0  0
 17 22  1  0  0  0  0
 18 19  1  1  0  0  0
 18 24  1  0  0  0  0
 18 30  1  0  0  0  0
 20 21  1  0  0  0  0
 20 26  1  1  0  0  0
 22 23  1  1  0  0  0
 22 28  1  0  0  0  0
 24 25  1  0  0  0  0
 26 27  1  0  0  0  0
 28 29  1  6  0  0  0
M  END
>  <CHROM.1>
-170.75456604,-159.37409831,-88.56000895,-136.40241322,104.98930736,101.65178098
-22.13920588,-14.57161405,-14.33463479,-0.72956971,-0.56785719,0.01597278

>  <Name>
ligand

>  <RI>
0

>  <Rbt.Current_Directory>
/home/itssahil/PROJECTS/Mol_Feturizer/New_Systems/rnas/4GPW

>  <Rbt.Executable>
rbdock ($Id: //depot/dev/client3/rdock/2013.1/src/exe/rbdock.cxx#4 $)

>  <Rbt.Library>
libRbt.so (2013.1, Build901 2013/11/27)

>  <Rbt.Parameter_File>
/export/apps/rDock/src/rDock_2013.1_src/data/scripts/dock_solv.prm

>  <Rbt.Receptor>
prm/pocket_docking_2.prm

>  <SCORE>
-17.6752

>  <SCORE.INTER>
-16.4328

>  <SCORE.INTER.CONST>
1

>  <SCORE.INTER.POLAR>
0

>  <SCORE.INTER.ROT>
6

>  <SCORE.INTER.SOLV>
16.7269

>  <SCORE.INTER.VDW>
-24.1308

>  <SCORE.INTER.norm>
-0.530089

>  <SCORE.INTRA>
-1.24451

>  <SCORE.INTRA.DIHEDRAL>
-2.81193

>  <SCORE.INTRA.DIHEDRAL.0>
19.2558

>  <SCORE.INTRA.POLAR>
0

>  <SCORE.INTRA.POLAR.0>
0

>  <SCORE.INTRA.REPUL>
0

>  <SCORE.INTRA.REPUL.0>
0

>  <SCORE.INTRA.SOLV>
0.0991375

>  <SCORE.INTRA.SOLV.lig_0>
-64.5929

>  <SCORE.INTRA.VDW>
0.111888

>  <SCORE.INTRA.VDW.0>
-4.40538

>  <SCORE.INTRA.norm>
-0.0401454

>  <SCORE.RESTR>
0.00204676

>  <SCORE.RESTR.CAVITY>
0.00204676

>  <SCORE.RESTR.norm>
6.60244e-05

>  <SCORE.SYSTEM>
0

>  <SCORE.SYSTEM.CONST>
0

>  <SCORE.SYSTEM.DIHEDRAL>
0

>  <SCORE.SYSTEM.SOLV>
0

>  <SCORE.SYSTEM.norm>
0

>  <SCORE.heavy>
31

>  <SCORE.norm>
-0.570169

>  <RMSD>
0.581

$$$$
ligand
 OpenBabel11021811493D
libRbt.so/2013.1/901 2013/11/27
 31 33  0  0  0  0  0  0  0  0999 V2000
  -19.2446  -15.4999  -12.7298 C   0  0  2  0  0  0  0  0  0  0  0  0
  -19.8323  -16.1032  -13.8731 O   0  0  0  0  0  0  0  0  0  0  0  0
  -23.6011  -15.9334  -15.8584 C   0  0  2  0  0  0  0  0  0  0  0  0
  -25.0097  -16.0266  -16.0697 N   0  0  0  0  0  0  0  0  0  0  0  0
  -25.1020  -13.0403  -14.8949 C   0  0  2  0  0  0  0  0  0  0  0  0
  -17.7043  -15.3055  -13.0492 C   0  0  2  0  0  0  0  0  0  0  0  0
  -17.5600  -14.4574  -14.2416 N   0  0  0  0  0  0  0  0  0  0  0  0
  -23.0676  -17.3581  -15.3941 C   0  0  0  0  0  0  0  0  0  0  0  0
  -25.4729  -12.1911  -16.1557 C   0  0  2  0  0  0  0  0  0  0  0  0
  -25.3897  -13.0280  -17.2851 O   0  0  0  0  0  0  0  0  0  0  0  0
  -17.0228  -16.7135  -13.2722 C   0  0  0  0  0  0  0  0  0  0  0  0
  -21.4924  -17.2573  -15.1641 C   0  0  2  0  0  0  0  0  0  0  0  0
  -20.9742  -18.5748  -14.7364 N   0  0  0  0  0  0  0  0  0  0  0  0
  -24.4768  -10.9634  -16.2726 C   0  0  1  0  0  0  0  0  0  0  0  0
  -24.8163  -10.1347  -17.4844 N   0  0  0  0  0  0  0  0  0  0  0  0
  -17.5537  -17.8102  -12.2584 C   0  0  0  0  0  0  0  0  0  0  0  0
  -21.2043  -16.1779  -14.0412 C   0  0  2  0  0  0  0  0  0  0  0  0
  -24.6161  -10.0363  -14.9427 C   0  0  1  0  0  0  0  0  0  0  0  0
  -25.9129   -9.5016  -14.7709 O   0  0  0  0  0  0  0  0  0  0  0  0
  -18.6456  -17.5833  -11.4936 C   0  0  2  0  0  0  0  0  0  0  0  0
  -19.3804  -16.3561  -11.5472 O   0  0  0  0  0  0  0  0  0  0  0  0
  -21.7590  -14.7709  -14.5109 C   0  0  2  0  0  0  0  0  0  0  0  0
  -21.5035  -13.7988  -13.4835 O   0  0  0  0  0  0  0  0  0  0  0  0
  -24.2695  -10.9070  -13.6894 C   0  0  0  0  0  0  0  0  0  0  0  0
  -25.1421  -12.1604  -13.6590 O   0  0  0  0  0  0  0  0  0  0  0  0
  -19.1848  -18.6155  -10.5043 C   0  0  0  0  0  0  0  0  0  0  0  0
  -20.3178  -19.2592  -11.1076 O   0  0  0  0  0  0  0  0  0  0  0  0
  -23.3196  -14.8657  -14.7408 C   0  0  1  0  0  0  0  0  0  0  0  0
  -23.7746  -13.5945  -15.1714 O   0  0  0  0  0  0  0  0  0  0  0  0
  -23.6844   -8.8058  -14.9150 C   0  0  0  0  0  0  0  0  0  0  0  0
  -24.1935  -10.5483  -18.7583 C   0  0  0  0  0  0  0  0  0  0  0  0
  1  2  1  6  0  0  0
  1  6  1  0  0  0  0
  1 21  1  0  0  0  0
  3  4  1  1  0  0  0
  3  8  1  0  0  0  0
  3 28  1  0  0  0  0
  5  9  1  0  0  0  0
  5 25  1  0  0  0  0
  5 29  1  6  0  0  0
  6  7  1  6  0  0  0
  6 11  1  0  0  0  0
  8 12  1  0  0  0  0
  9 10  1  6  0  0  0
  9 14  1  0  0  0  0
 11 16  1  0  0  0  0
 12 13  1  1  0  0  0
 12 17  1  0  0  0  0
 14 15  1  6  0  0  0
 14 18  1  0  0  0  0
 15 31  1  0  0  0  0
 16 20  1  0  0  0  0
 17  2  1  6  0  0  0
 17 22  1  0  0  0  0
 18 19  1  1  0  0  0
 18 24  1  0  0  0  0
 18 30  1  0  0  0  0
 20 21  1  0  0  0  0
 20 26  1  1  0  0  0
 22 23  1  1  0  0  0
 22 28  1  0  0  0  0
 24 25  1  0  0  0  0
 26 27  1  0  0  0  0
 28 29  1  6  0  0  0
M  END
>  <CHROM.1>
-167.16675960,-145.94910238,-87.19608976,-163.57878217,-101.36563973,92.71102233
-22.12347083,-14.41133825,-14.37761097,-0.73784138,-0.54148961,0.01694422

>  <Name>
ligand

>  <RI>
0

>  <Rbt.Current_Directory>
/home/itssahil/PROJECTS/Mol_Feturizer/New_Systems/rnas/4GPW

>  <Rbt.Executable>
rbdock ($Id: //depot/dev/client3/rdock/2013.1/src/exe/rbdock.cxx#4 $)

>  <Rbt.Library>
libRbt.so (2013.1, Build901 2013/11/27)

>  <Rbt.Parameter_File>
/export/apps/rDock/src/rDock_2013.1_src/data/scripts/dock_solv.prm

>  <Rbt.Receptor>
prm/pocket_docking_3.prm

>  <SCORE>
-20.1104

>  <SCORE.INTER>
-17.1727

>  <SCORE.INTER.CONST>
1

>  <SCORE.INTER.POLAR>
0

>  <SCORE.INTER.ROT>
6

>  <SCORE.INTER.SOLV>
16.5015

>  <SCORE.INTER.VDW>
-24.549

>  <SCORE.INTER.norm>
-0.553959

>  <SCORE.INTRA>
-2.93764

>  <SCORE.INTRA.DIHEDRAL>
-6.13737

>  <SCORE.INTRA.DIHEDRAL.0>
19.2558

>  <SCORE.INTRA.POLAR>
0

>  <SCORE.INTRA.POLAR.0>
0

>  <SCORE.INTRA.REPUL>
0

>  <SCORE.INTRA.REPUL.0>
0

>  <SCORE.INTRA.SOLV>
-0.937565

>  <SCORE.INTRA.SOLV.lig_0>
-64.5929

>  <SCORE.INTRA.VDW>
0.599831

>  <SCORE.INTRA.VDW.0>
-4.40538

>  <SCORE.INTRA.norm>
-0.0947624

>  <SCORE.RESTR>
0

>  <SCORE.RESTR.CAVITY>
0

>  <SCORE.RESTR.norm>
0

>  <SCORE.SYSTEM>
0

>  <SCORE.SYSTEM.CONST>
0

>  <SCORE.SYSTEM.DIHEDRAL>
0

>  <SCORE.SYSTEM.SOLV>
0

>  <SCORE.SYSTEM.norm>
0

>  <SCORE.heavy>
31

>  <SCORE.norm>
-0.648722

>  <RMSD>
0.587

$$$$
ligand
 OpenBabel11021811493D
libRbt.so/2013.1/901 2013/11/27
 31 33  0  0  0  0  0  0  0  0999 V2000
  -19.2141  -15.4932  -12.7245 C   0  0  2  0  0  0  0  0  0  0  0  0
  -19.8080  -16.0908  -13.8676 O   0  0  0  0  0  0  0  0  0  0  0  0
  -23.5861  -15.9383  -15.8368 C   0  0  2  0  0  0  0  0  0  0  0  0
  -24.9958  -16.0317  -16.0402 N   0  0  0  0  0  0  0  0  0  0  0  0
  -25.0852  -13.0406  -14.9193 C   0  0  2  0  0  0  0  0  0  0  0  0
  -17.6712  -15.3181  -13.0428 C   0  0  2  0  0  0  0  0  0  0  0  0
  -17.5154  -14.4734  -14.2361 N   0  0  0  0  0  0  0  0  0  0  0  0
  -23.0526  -17.3583  -15.3580 C   0  0  0  0  0  0  0  0  0  0  0  0
  -25.4352  -12.1823  -16.1799 C   0  0  2  0  0  0  0  0  0  0  0  0
  -25.3315  -13.0104  -17.3139 O   0  0  0  0  0  0  0  0  0  0  0  0
  -17.0068  -16.7347  -13.2633 C   0  0  0  0  0  0  0  0  0  0  0  0
  -21.4762  -17.2574  -15.1368 C   0  0  2  0  0  0  0  0  0  0  0  0
  -20.9581  -18.5706  -14.6958 N   0  0  0  0  0  0  0  0  0  0  0  0
  -24.4389  -10.9525  -16.2701 C   0  0  1  0  0  0  0  0  0  0  0  0
  -24.7584  -10.1150  -17.4813 N   0  0  0  0  0  0  0  0  0  0  0  0
  -17.5521  -17.8234  -12.2485 C   0  0  0  0  0  0  0  0  0  0  0  0
  -21.1810  -16.1651  -14.0282 C   0  0  2  0  0  0  0  0  0  0  0  0
  -24.6023  -10.0357  -14.9359 C   0  0  1  0  0  0  0  0  0  0  0  0
  -25.9027   -9.5039  -14.7824 O   0  0  0  0  0  0  0  0  0  0  0  0
  -18.6418  -17.5821  -11.4851 C   0  0  2  0  0  0  0  0  0  0  0  0
  -19.3614  -16.3460  -11.5410 O   0  0  0  0  0  0  0  0  0  0  0  0
  -21.7356  -14.7629  -14.5121 C   0  0  2  0  0  0  0  0  0  0  0  0
  -21.4736  -13.7790  -13.4977 O   0  0  0  0  0  0  0  0  0  0  0  0
  -24.2764  -10.9155  -13.6833 C   0  0  0  0  0  0  0  0  0  0  0  0
  -25.1477  -12.1701  -13.6776 O   0  0  0  0  0  0  0  0  0  0  0  0
  -19.1945  -18.6064  -10.4949 C   0  0  0  0  0  0  0  0  0  0  0  0
  -20.3353  -19.2363  -11.0982 O   0  0  0  0  0  0  0  0  0  0  0  0
  -23.2974  -14.8579  -14.7333 C   0  0  1  0  0  0  0  0  0  0  0  0
  -23.7525  -13.5911  -15.1770 O   0  0  0  0  0  0  0  0  0  0  0  0
  -23.6729   -8.8044  -14.8827 C   0  0  0  0  0  0  0  0  0  0  0  0
  -24.1422  -10.5399  -18.7547 C   0  0  0  0  0  0  0  0  0  0  0  0
  1  2  1  6  0  0  0
  1  6  1  0  0  0  0
  1 21  1  0  0  0  0
  3  4  1  1  0  0  0
  3  8  1  0  0  0  0
  3 28  1  0  0  0  0
  5  9  1  0  0  0  0
  5 25  1  0  0  0  0
  5 29  1  6  0  0  0
  6  7  1  6  0  0  0
  6 11  1  0  0  0  0
  8 12  1  0  0  0  0
  9 10  1  6  0  0  0
  9 14  1  0  0  0  0
 11 16  1  0  0  0  0
 12 13  1  1  0  0  0
 12 17  1  0  0  0  0
 14 15  1  6  0  0  0
 14 18  1  0  0  0  0
 15 31  1  0  0  0  0
 16 20  1  0  0  0  0
 17  2  1  6  0  0  0
 17 22  1  0  0  0  0
 18 19  1  1  0  0  0
 18 24  1  0  0  0  0
 18 30  1  0  0  0  0
 20 21  1  0  0  0  0
 20 26  1  1  0  0  0
 22 23  1  1  0  0  0
 22 28  1  0  0  0  0
 24 25  1  0  0  0  0
 26 27  1  0  0  0  0
 28 29  1  6  0  0  0
M  END
>  <CHROM.1>
-168.06874631,-146.81400584,-85.59178652,-162.58486994,-101.39821512,91.66200984
-22.10338004,-14.40815130,-14.37229221,-0.74445358,-0.53462846,0.00557064

>  <Name>
ligand

>  <RI>
0

>  <Rbt.Current_Directory>
/home/itssahil/PROJECTS/Mol_Feturizer/New_Systems/rnas/4GPW

>  <Rbt.Executable>
rbdock ($Id: //depot/dev/client3/rdock/2013.1/src/exe/rbdock.cxx#4 $)

>  <Rbt.Library>
libRbt.so (2013.1, Build901 2013/11/27)

>  <Rbt.Parameter_File>
/export/apps/rDock/src/rDock_2013.1_src/data/scripts/dock_solv.prm

>  <Rbt.Receptor>
prm/pocket_docking_3.prm

>  <SCORE>
-20.1623

>  <SCORE.INTER>
-17.0971

>  <SCORE.INTER.CONST>
1

>  <SCORE.INTER.POLAR>
0

>  <SCORE.INTER.ROT>
6

>  <SCORE.INTER.SOLV>
16.4575

>  <SCORE.INTER.VDW>
-24.4839

>  <SCORE.INTER.norm>
-0.551521

>  <SCORE.INTRA>
-3.06513

>  <SCORE.INTRA.DIHEDRAL>
-6.50182

>  <SCORE.INTRA.DIHEDRAL.0>
19.2558

>  <SCORE.INTRA.POLAR>
0

>  <SCORE.INTRA.POLAR.0>
0

>  <SCORE.INTRA.REPUL>
0

>  <SCORE.INTRA.REPUL.0>
0

>  <SCORE.INTRA.SOLV>
-0.870858

>  <SCORE.INTRA.SOLV.lig_0>
-64.5929

>  <SCORE.INTRA.VDW>
0.621208

>  <SCORE.INTRA.VDW.0>
-4.40538

>  <SCORE.INTRA.norm>
-0.0988753

>  <SCORE.RESTR>
0

>  <SCORE.RESTR.CAVITY>
0

>  <SCORE.RESTR.norm>
0

>  <SCORE.SYSTEM>
0

>  <SCORE.SYSTEM.CONST>
0

>  <SCORE.SYSTEM.DIHEDRAL>
0

>  <SCORE.SYSTEM.SOLV>
0

>  <SCORE.SYSTEM.norm>
0

>  <SCORE.heavy>
31

>  <SCORE.norm>
-0.650396

>  <RMSD>
0.589

$$$$
ligand
 OpenBabel11021811493D
libRbt.so/2013.1/901 2013/11/27
 31 33  0  0  0  0  0  0  0  0999 V2000
  -19.3540  -15.7088  -12.5352 C   0  0  2  0  0  0  0  0  0  0  0  0
  -19.8876  -15.9579  -13.8274 O   0  0  0  0  0  0  0  0  0  0  0  0
  -23.5718  -16.1637  -15.9624 C   0  0  2  0  0  0  0  0  0  0  0  0
  -24.9623  -16.3581  -16.2198 N   0  0  0  0  0  0  0  0  0  0  0  0
  -25.2226  -13.2246  -15.1481 C   0  0  2  0  0  0  0  0  0  0  0  0
  -17.8162  -15.3753  -12.7259 C   0  0  2  0  0  0  0  0  0  0  0  0
  -17.6798  -14.2022  -13.6017 N   0  0  0  0  0  0  0  0  0  0  0  0
  -22.9764  -17.5156  -15.3727 C   0  0  0  0  0  0  0  0  0  0  0  0
  -25.5564  -12.2667  -16.3394 C   0  0  2  0  0  0  0  0  0  0  0  0
  -25.4893  -13.0133  -17.5313 O   0  0  0  0  0  0  0  0  0  0  0  0
  -17.0698  -16.6264  -13.3377 C   0  0  0  0  0  0  0  0  0  0  0  0
  -21.4210  -17.3021  -15.0908 C   0  0  2  0  0  0  0  0  0  0  0  0
  -20.8456  -18.5509  -14.5461 N   0  0  0  0  0  0  0  0  0  0  0  0
  -24.5221  -11.0652  -16.3518 C   0  0  1  0  0  0  0  0  0  0  0  0
  -24.8256  -10.1326  -17.4958 N   0  0  0  0  0  0  0  0  0  0  0  0
  -17.5774  -17.9953  -12.7207 C   0  0  0  0  0  0  0  0  0  0  0  0
  -21.2445  -16.1285  -14.0417 C   0  0  2  0  0  0  0  0  0  0  0  0
  -24.6444  -10.2429  -14.9532 C   0  0  1  0  0  0  0  0  0  0  0  0
  -25.9257   -9.6834  -14.7472 O   0  0  0  0  0  0  0  0  0  0  0  0
  -18.6961  -18.0470  -11.9627 C   0  0  2  0  0  0  0  0  0  0  0  0
  -19.4814  -16.8863  -11.6708 O   0  0  0  0  0  0  0  0  0  0  0  0
  -21.8597  -14.7959  -14.6364 C   0  0  2  0  0  0  0  0  0  0  0  0
  -21.7054  -13.7380  -13.6757 O   0  0  0  0  0  0  0  0  0  0  0  0
  -24.3355  -11.2209  -13.7711 C   0  0  0  0  0  0  0  0  0  0  0  0
  -25.2463  -12.4449  -13.8461 O   0  0  0  0  0  0  0  0  0  0  0  0
  -19.2141  -19.3474  -11.3499 C   0  0  0  0  0  0  0  0  0  0  0  0
  -19.4317  -19.1220   -9.9485 O   0  0  0  0  0  0  0  0  0  0  0  0
  -23.4009  -15.0026  -14.9180 C   0  0  1  0  0  0  0  0  0  0  0  0
  -23.9105  -13.7963  -15.4597 O   0  0  0  0  0  0  0  0  0  0  0  0
  -23.6757   -9.0482  -14.8217 C   0  0  0  0  0  0  0  0  0  0  0  0
  -24.2048  -10.4628  -18.7947 C   0  0  0  0  0  0  0  0  0  0  0  0
  1  2  1  6  0  0  0
  1  6  1  0  0  0  0
  1 21  1  0  0  0  0
  3  4  1  1  0  0  0
  3  8  1  0  0  0  0
  3 28  1  0  0  0  0
  5  9  1  0  0  0  0
  5 25  1  0  0  0  0
  5 29  1  6  0  0  0
  6  7  1  6  0  0  0
  6 11  1  0  0  0  0
  8 12  1  0  0  0  0
  9 10  1  6  0  0  0
  9 14  1  0  0  0  0
 11 16  1  0  0  0  0
 12 13  1  1  0  0  0
 12 17  1  0  0  0  0
 14 15  1  6  0  0  0
 14 18  1  0  0  0  0
 15 31  1  0  0  0  0
 16 20  1  0  0  0  0
 17  2  1  6  0  0  0
 17 22  1  0  0  0  0
 18 19  1  1  0  0  0
 18 24  1  0  0  0  0
 18 30  1  0  0  0  0
 20 21  1  0  0  0  0
 20 26  1  1  0  0  0
 22 23  1  1  0  0  0
 22 28  1  0  0  0  0
 24 25  1  0  0  0  0
 26 27  1  0  0  0  0
 28 29  1  6  0  0  0
M  END
>  <CHROM.1>
-172.33182063,-158.63420445,-87.20182243,-139.44925453,128.59049085,100.44535121
-22.13787416,-14.54028151,-14.41718815,-0.71919236,-0.57118786,0.03555886

>  <Name>
ligand

>  <RI>
0

>  <Rbt.Current_Directory>
/home/itssahil/PROJECTS/Mol_Feturizer/New_Systems/rnas/4GPW

>  <Rbt.Executable>
rbdock ($Id: //depot/dev/client3/rdock/2013.1/src/exe/rbdock.cxx#4 $)

>  <Rbt.Library>
libRbt.so (2013.1, Build901 2013/11/27)

>  <Rbt.Parameter_File>
/export/apps/rDock/src/rDock_2013.1_src/data/scripts/dock_solv.prm

>  <Rbt.Receptor>
prm/pocket_docking_2.prm

>  <SCORE>
-17.7766

>  <SCORE.INTER>
-16.1131

>  <SCORE.INTER.CONST>
1

>  <SCORE.INTER.POLAR>
0

>  <SCORE.INTER.ROT>
6

>  <SCORE.INTER.SOLV>
16.3009

>  <SCORE.INTER.VDW>
-23.7757

>  <SCORE.INTER.norm>
-0.519778

>  <SCORE.INTRA>
-1.66351

>  <SCORE.INTRA.DIHEDRAL>
-3.69683

>  <SCORE.INTRA.DIHEDRAL.0>
19.2558

>  <SCORE.INTRA.POLAR>
0

>  <SCORE.INTRA.POLAR.0>
0

>  <SCORE.INTRA.REPUL>
0

>  <SCORE.INTRA.REPUL.0>
0

>  <SCORE.INTRA.SOLV>
-0.029188

>  <SCORE.INTRA.SOLV.lig_0>
-64.5929

>  <SCORE.INTRA.VDW>
0.199499

>  <SCORE.INTRA.VDW.0>
-4.40538

>  <SCORE.INTRA.norm>
-0.0536616

>  <SCORE.RESTR>
1.36632e-05

>  <SCORE.RESTR.CAVITY>
1.36632e-05

>  <SCORE.RESTR.norm>
4.4075e-07

>  <SCORE.SYSTEM>
0

>  <SCORE.SYSTEM.CONST>
0

>  <SCORE.SYSTEM.DIHEDRAL>
0

>  <SCORE.SYSTEM.SOLV>
0

>  <SCORE.SYSTEM.norm>
0

>  <SCORE.heavy>
31

>  <SCORE.norm>
-0.573439

>  <RMSD>
0.590

$$$$
ligand
 OpenBabel11021811493D
libRbt.so/2013.1/901 2013/11/27
 31 33  0  0  0  0  0  0  0  0999 V2000
  -19.3545  -15.6398  -12.5723 C   0  0  2  0  0  0  0  0  0  0  0  0
  -19.9060  -16.0632  -13.8106 O   0  0  0  0  0  0  0  0  0  0  0  0
  -23.6206  -15.9412  -15.8989 C   0  0  2  0  0  0  0  0  0  0  0  0
  -25.0222  -16.0472  -16.1473 N   0  0  0  0  0  0  0  0  0  0  0  0
  -25.1500  -13.0276  -14.9592 C   0  0  2  0  0  0  0  0  0  0  0  0
  -17.8365  -15.2727  -12.8432 C   0  0  2  0  0  0  0  0  0  0  0  0
  -17.7685  -14.2093  -13.8563 N   0  0  0  0  0  0  0  0  0  0  0  0
  -23.0894  -17.3573  -15.4064 C   0  0  0  0  0  0  0  0  0  0  0  0
  -25.5083  -12.1622  -16.2125 C   0  0  2  0  0  0  0  0  0  0  0  0
  -25.4357  -12.9899  -17.3493 O   0  0  0  0  0  0  0  0  0  0  0  0
  -17.0527  -16.5586  -13.3212 C   0  0  0  0  0  0  0  0  0  0  0  0
  -21.5218  -17.2422  -15.1347 C   0  0  2  0  0  0  0  0  0  0  0  0
  -21.0057  -18.5516  -14.6803 N   0  0  0  0  0  0  0  0  0  0  0  0
  -24.4955  -10.9471  -16.3177 C   0  0  1  0  0  0  0  0  0  0  0  0
  -24.8228  -10.1030  -17.5223 N   0  0  0  0  0  0  0  0  0  0  0  0
  -17.4891  -17.8618  -12.5314 C   0  0  0  0  0  0  0  0  0  0  0  0
  -21.2724  -16.1499  -14.0150 C   0  0  2  0  0  0  0  0  0  0  0  0
  -24.6232  -10.0301  -14.9797 C   0  0  1  0  0  0  0  0  0  0  0  0
  -25.9128   -9.4794  -14.8039 O   0  0  0  0  0  0  0  0  0  0  0  0
  -18.5875  -17.8648  -11.7426 C   0  0  2  0  0  0  0  0  0  0  0  0
  -19.4135  -16.7086  -11.5703 O   0  0  0  0  0  0  0  0  0  0  0  0
  -21.8245  -14.7518  -14.5133 C   0  0  2  0  0  0  0  0  0  0  0  0
  -21.6042  -13.7679  -13.4890 O   0  0  0  0  0  0  0  0  0  0  0  0
  -24.2894  -10.9166  -13.7340 C   0  0  0  0  0  0  0  0  0  0  0  0
  -25.1790  -12.1582  -13.7154 O   0  0  0  0  0  0  0  0  0  0  0  0
  -19.0372  -19.1009  -10.9650 C   0  0  0  0  0  0  0  0  0  0  0  0
  -19.1860  -18.7281   -9.5862 O   0  0  0  0  0  0  0  0  0  0  0  0
  -23.3774  -14.8608  -14.7845 C   0  0  1  0  0  0  0  0  0  0  0  0
  -23.8301  -13.5973  -15.2397 O   0  0  0  0  0  0  0  0  0  0  0  0
  -23.6748   -8.8127  -14.9404 C   0  0  0  0  0  0  0  0  0  0  0  0
  -24.1981  -10.5087  -18.7978 C   0  0  0  0  0  0  0  0  0  0  0  0
  1  2  1  6  0  0  0
  1  6  1  0  0  0  0
  1 21  1  0  0  0  0
  3  4  1  1  0  0  0
  3  8  1  0  0  0  0
  3 28  1  0  0  0  0
  5  9  1  0  0  0  0
  5 25  1  0  0  0  0
  5 29  1  6  0  0  0
  6  7  1  6  0  0  0
  6 11  1  0  0  0  0
  8 12  1  0  0  0  0
  9 10  1  6  0  0  0
  9 14  1  0  0  0  0
 11 16  1  0  0  0  0
 12 13  1  1  0  0  0
 12 17  1  0  0  0  0
 14 15  1  6  0  0  0
 14 18  1  0  0  0  0
 15 31  1  0  0  0  0
 16 20  1  0  0  0  0
 17  2  1  6  0  0  0
 17 22  1  0  0  0  0
 18 19  1  1  0  0  0
 18 24  1  0  0  0  0
 18 30  1  0  0  0  0
 20 21  1  0  0  0  0
 20 26  1  1  0  0  0
 22 23  1  1  0  0  0
 22 28  1  0  0  0  0
 24 25  1  0  0  0  0
 26 27  1  0  0  0  0
 28 29  1  6  0  0  0
M  END
>  <CHROM.1>
-164.10246505,-148.05150551,-87.55974499,-153.41621080,126.54247659,95.30879853
-22.11423219,-14.41031516,-14.35115915,-0.68917908,-0.60826691,0.07870975

>  <Name>
ligand

>  <RI>
0

>  <Rbt.Current_Directory>
/home/itssahil/PROJECTS/Mol_Feturizer/New_Systems/rnas/4GPW

>  <Rbt.Executable>
rbdock ($Id: //depot/dev/client3/rdock/2013.1/src/exe/rbdock.cxx#4 $)

>  <Rbt.Library>
libRbt.so (2013.1, Build901 2013/11/27)

>  <Rbt.Parameter_File>
/export/apps/rDock/src/rDock_2013.1_src/data/scripts/dock_solv.prm

>  <Rbt.Receptor>
prm/pocket_docking_4.prm

>  <SCORE>
-19.1203

>  <SCORE.INTER>
-17.1655

>  <SCORE.INTER.CONST>
1

>  <SCORE.INTER.POLAR>
0

>  <SCORE.INTER.ROT>
6

>  <SCORE.INTER.SOLV>
17.0305

>  <SCORE.INTER.VDW>
-24.7205

>  <SCORE.INTER.norm>
-0.553725

>  <SCORE.INTRA>
-1.95479

>  <SCORE.INTRA.DIHEDRAL>
-4.30503

>  <SCORE.INTRA.DIHEDRAL.0>
19.2558

>  <SCORE.INTRA.POLAR>
0

>  <SCORE.INTRA.POLAR.0>
0

>  <SCORE.INTRA.REPUL>
0

>  <SCORE.INTRA.REPUL.0>
0

>  <SCORE.INTRA.SOLV>
-0.648888

>  <SCORE.INTRA.SOLV.lig_0>
-64.5929

>  <SCORE.INTRA.VDW>
0.52217

>  <SCORE.INTRA.VDW.0>
-4.40538

>  <SCORE.INTRA.norm>
-0.0630577

>  <SCORE.RESTR>
0

>  <SCORE.RESTR.CAVITY>
0

>  <SCORE.RESTR.norm>
0

>  <SCORE.SYSTEM>
0

>  <SCORE.SYSTEM.CONST>
0

>  <SCORE.SYSTEM.DIHEDRAL>
0

>  <SCORE.SYSTEM.SOLV>
0

>  <SCORE.SYSTEM.norm>
0

>  <SCORE.heavy>
31

>  <SCORE.norm>
-0.616783

>  <RMSD>
0.590

$$$$
ligand
 OpenBabel11021811493D
libRbt.so/2013.1/901 2013/11/27
 31 33  0  0  0  0  0  0  0  0999 V2000
  -19.2046  -15.4909  -12.7095 C   0  0  2  0  0  0  0  0  0  0  0  0
  -19.7950  -16.0801  -13.8587 O   0  0  0  0  0  0  0  0  0  0  0  0
  -23.5677  -15.9145  -15.8371 C   0  0  2  0  0  0  0  0  0  0  0  0
  -24.9768  -16.0071  -16.0451 N   0  0  0  0  0  0  0  0  0  0  0  0
  -25.0677  -13.0208  -14.8933 C   0  0  2  0  0  0  0  0  0  0  0  0
  -17.6605  -15.3146  -13.0213 C   0  0  2  0  0  0  0  0  0  0  0  0
  -17.5002  -14.4617  -14.2081 N   0  0  0  0  0  0  0  0  0  0  0  0
  -23.0347  -17.3378  -15.3678 C   0  0  0  0  0  0  0  0  0  0  0  0
  -25.4302  -12.1716  -16.1565 C   0  0  2  0  0  0  0  0  0  0  0  0
  -25.3368  -13.0076  -17.2856 O   0  0  0  0  0  0  0  0  0  0  0  0
  -16.9963  -16.7300  -13.2495 C   0  0  0  0  0  0  0  0  0  0  0  0
  -21.4590  -17.2378  -15.1415 C   0  0  2  0  0  0  0  0  0  0  0  0
  -20.9414  -18.5541  -14.7092 N   0  0  0  0  0  0  0  0  0  0  0  0
  -24.4353  -10.9420  -16.2649 C   0  0  1  0  0  0  0  0  0  0  0  0
  -24.7668  -10.1132  -17.4789 N   0  0  0  0  0  0  0  0  0  0  0  0
  -17.5457  -17.8255  -12.2442 C   0  0  0  0  0  0  0  0  0  0  0  0
  -21.1675  -16.1539  -14.0237 C   0  0  2  0  0  0  0  0  0  0  0  0
  -24.5866  -10.0159  -14.9357 C   0  0  1  0  0  0  0  0  0  0  0  0
  -25.8857   -9.4836  -14.7736 O   0  0  0  0  0  0  0  0  0  0  0  0
  -18.6379  -17.5889  -11.4828 C   0  0  2  0  0  0  0  0  0  0  0  0
  -19.3565  -16.3519  -11.5324 O   0  0  0  0  0  0  0  0  0  0  0  0
  -21.7216  -14.7483  -14.4983 C   0  0  2  0  0  0  0  0  0  0  0  0
  -21.4630  -13.7721  -13.4756 O   0  0  0  0  0  0  0  0  0  0  0  0
  -24.2483  -10.8867  -13.6801 C   0  0  0  0  0  0  0  0  0  0  0  0
  -25.1190  -12.1416  -13.6572 O   0  0  0  0  0  0  0  0  0  0  0  0
  -19.1945  -18.6197  -10.5017 C   0  0  0  0  0  0  0  0  0  0  0  0
  -20.3867  -19.1790  -11.0744 O   0  0  0  0  0  0  0  0  0  0  0  0
  -23.2827  -14.8424  -14.7246 C   0  0  1  0  0  0  0  0  0  0  0  0
  -23.7373  -13.5726  -15.1597 O   0  0  0  0  0  0  0  0  0  0  0  0
  -23.6573   -8.7838  -14.9000 C   0  0  0  0  0  0  0  0  0  0  0  0
  -24.1501  -10.5377  -18.7522 C   0  0  0  0  0  0  0  0  0  0  0  0
  1  2  1  6  0  0  0
  1  6  1  0  0  0  0
  1 21  1  0  0  0  0
  3  4  1  1  0  0  0
  3  8  1  0  0  0  0
  3 28  1  0  0  0  0
  5  9  1  0  0  0  0
  5 25  1  0  0  0  0
  5 29  1  6  0  0  0
  6  7  1  6  0  0  0
  6 11  1  0  0  0  0
  8 12  1  0  0  0  0
  9 10  1  6  0  0  0
  9 14  1  0  0  0  0
 11 16  1  0  0  0  0
 12 13  1  1  0  0  0
 12 17  1  0  0  0  0
 14 15  1  6  0  0  0
 14 18  1  0  0  0  0
 15 31  1  0  0  0  0
 16 20  1  0  0  0  0
 17  2  1  6  0  0  0
 17 22  1  0  0  0  0
 18 19  1  1  0  0  0
 18 24  1  0  0  0  0
 18 30  1  0  0  0  0
 20 21  1  0  0  0  0
 20 26  1  1  0  0  0
 22 23  1  1  0  0  0
 22 28  1  0  0  0  0
 24 25  1  0  0  0  0
 26 27  1  0  0  0  0
 28 29  1  6  0  0  0
M  END
>  <CHROM.1>
-168.15310339,-146.04514406,-86.27068396,-162.58979924,-105.29808180,92.12422347
-22.09433416,-14.39510008,-14.36380425,-0.74298611,-0.53814460,0.00962847

>  <Name>
ligand

>  <RI>
0

>  <Rbt.Current_Directory>
/home/itssahil/PROJECTS/Mol_Feturizer/New_Systems/rnas/4GPW

>  <Rbt.Executable>
rbdock ($Id: //depot/dev/client3/rdock/2013.1/src/exe/rbdock.cxx#4 $)

>  <Rbt.Library>
libRbt.so (2013.1, Build901 2013/11/27)

>  <Rbt.Parameter_File>
/export/apps/rDock/src/rDock_2013.1_src/data/scripts/dock_solv.prm

>  <Rbt.Receptor>
prm/pocket_docking_6.prm

>  <SCORE>
-20.1251

>  <SCORE.INTER>
-17.0874

>  <SCORE.INTER.CONST>
1

>  <SCORE.INTER.POLAR>
0

>  <SCORE.INTER.ROT>
6

>  <SCORE.INTER.SOLV>
16.4942

>  <SCORE.INTER.VDW>
-24.4896

>  <SCORE.INTER.norm>
-0.551206

>  <SCORE.INTRA>
-3.03771

>  <SCORE.INTRA.DIHEDRAL>
-6.41176

>  <SCORE.INTRA.DIHEDRAL.0>
19.2558

>  <SCORE.INTRA.POLAR>
0

>  <SCORE.INTRA.POLAR.0>
0

>  <SCORE.INTRA.REPUL>
0

>  <SCORE.INTRA.REPUL.0>
0

>  <SCORE.INTRA.SOLV>
-0.844716

>  <SCORE.INTRA.SOLV.lig_0>
-64.5929

>  <SCORE.INTRA.VDW>
0.590529

>  <SCORE.INTRA.VDW.0>
-4.40538

>  <SCORE.INTRA.norm>
-0.0979906

>  <SCORE.RESTR>
0

>  <SCORE.RESTR.CAVITY>
0

>  <SCORE.RESTR.norm>
0

>  <SCORE.SYSTEM>
0

>  <SCORE.SYSTEM.CONST>
0

>  <SCORE.SYSTEM.DIHEDRAL>
0

>  <SCORE.SYSTEM.SOLV>
0

>  <SCORE.SYSTEM.norm>
0

>  <SCORE.heavy>
31

>  <SCORE.norm>
-0.649196

>  <RMSD>
0.590

$$$$
ligand
 OpenBabel11021811493D
libRbt.so/2013.1/901 2013/11/27
 31 33  0  0  0  0  0  0  0  0999 V2000
  -19.2170  -15.5039  -12.7474 C   0  0  2  0  0  0  0  0  0  0  0  0
  -19.8173  -16.1098  -13.8827 O   0  0  0  0  0  0  0  0  0  0  0  0
  -23.6027  -15.9324  -15.8357 C   0  0  2  0  0  0  0  0  0  0  0  0
  -25.0135  -16.0202  -16.0342 N   0  0  0  0  0  0  0  0  0  0  0  0
  -25.0943  -13.0426  -14.9030 C   0  0  2  0  0  0  0  0  0  0  0  0
  -17.6783  -15.3199  -13.0804 C   0  0  2  0  0  0  0  0  0  0  0  0
  -17.5390  -14.4788  -14.2783 N   0  0  0  0  0  0  0  0  0  0  0  0
  -23.0715  -17.3572  -15.3693 C   0  0  0  0  0  0  0  0  0  0  0  0
  -25.4479  -12.1916  -16.1675 C   0  0  2  0  0  0  0  0  0  0  0  0
  -25.3415  -13.0248  -17.2976 O   0  0  0  0  0  0  0  0  0  0  0  0
  -17.0066  -16.7329  -13.3016 C   0  0  0  0  0  0  0  0  0  0  0  0
  -21.4939  -17.2625  -15.1536 C   0  0  2  0  0  0  0  0  0  0  0  0
  -20.9778  -18.5803  -14.7242 N   0  0  0  0  0  0  0  0  0  0  0  0
  -24.4560  -10.9587  -16.2640 C   0  0  1  0  0  0  0  0  0  0  0  0
  -24.7790  -10.1282  -17.4792 N   0  0  0  0  0  0  0  0  0  0  0  0
  -17.5353  -17.8213  -12.2777 C   0  0  0  0  0  0  0  0  0  0  0  0
  -21.1912  -16.1790  -14.0384 C   0  0  2  0  0  0  0  0  0  0  0  0
  -24.6224  -10.0361  -14.9342 C   0  0  1  0  0  0  0  0  0  0  0  0
  -25.9246   -9.5082  -14.7829 O   0  0  0  0  0  0  0  0  0  0  0  0
  -18.6197  -17.5842  -11.5052 C   0  0  2  0  0  0  0  0  0  0  0  0
  -19.3479  -16.3531  -11.5593 O   0  0  0  0  0  0  0  0  0  0  0  0
  -21.7436  -14.7718  -14.5100 C   0  0  2  0  0  0  0  0  0  0  0  0
  -21.4748  -13.7960  -13.4895 O   0  0  0  0  0  0  0  0  0  0  0  0
  -24.2928  -10.9086  -13.6775 C   0  0  0  0  0  0  0  0  0  0  0  0
  -25.1596  -12.1663  -13.6654 O   0  0  0  0  0  0  0  0  0  0  0  0
  -19.1565  -18.6082  -10.5062 C   0  0  0  0  0  0  0  0  0  0  0  0
  -20.3616  -19.1691  -11.0496 O   0  0  0  0  0  0  0  0  0  0  0  0
  -23.3065  -14.8607  -14.7257 C   0  0  1  0  0  0  0  0  0  0  0  0
  -23.7597  -13.5895  -15.1584 O   0  0  0  0  0  0  0  0  0  0  0  0
  -23.6973   -8.8011  -14.8873 C   0  0  0  0  0  0  0  0  0  0  0  0
  -24.1526  -10.5503  -18.7485 C   0  0  0  0  0  0  0  0  0  0  0  0
  1  2  1  6  0  0  0
  1  6  1  0  0  0  0
  1 21  1  0  0  0  0
  3  4  1  1  0  0  0
  3  8  1  0  0  0  0
  3 28  1  0  0  0  0
  5  9  1  0  0  0  0
  5 25  1  0  0  0  0
  5 29  1  6  0  0  0
  6  7  1  6  0  0  0
  6 11  1  0  0  0  0
  8 12  1  0  0  0  0
  9 10  1  6  0  0  0
  9 14  1  0  0  0  0
 11 16  1  0  0  0  0
 12 13  1  1  0  0  0
 12 17  1  0  0  0  0
 14 15  1  6  0  0  0
 14 18  1  0  0  0  0
 15 31  1  0  0  0  0
 16 20  1  0  0  0  0
 17  2  1  6  0  0  0
 17 22  1  0  0  0  0
 18 19  1  1  0  0  0
 18 24  1  0  0  0  0
 18 30  1  0  0  0  0
 20 21  1  0  0  0  0
 20 26  1  1  0  0  0
 22 23  1  1  0  0  0
 22 28  1  0  0  0  0
 24 25  1  0  0  0  0
 26 27  1  0  0  0  0
 28 29  1  6  0  0  0
M  END
>  <CHROM.1>
-167.25091191,-145.82937638,-86.08885372,-163.56951939,-106.07696690,91.01796625
-22.11242423,-14.40992051,-14.37616476,-0.74224729,-0.53163862,0.00756458

>  <Name>
ligand

>  <RI>
0

>  <Rbt.Current_Directory>
/home/itssahil/PROJECTS/Mol_Feturizer/New_Systems/rnas/4GPW

>  <Rbt.Executable>
rbdock ($Id: //depot/dev/client3/rdock/2013.1/src/exe/rbdock.cxx#4 $)

>  <Rbt.Library>
libRbt.so (2013.1, Build901 2013/11/27)

>  <Rbt.Parameter_File>
/export/apps/rDock/src/rDock_2013.1_src/data/scripts/dock_solv.prm

>  <Rbt.Receptor>
prm/pocket_docking_2.prm

>  <SCORE>
-20.1706

>  <SCORE.INTER>
-17.0144

>  <SCORE.INTER.CONST>
1

>  <SCORE.INTER.POLAR>
0

>  <SCORE.INTER.ROT>
6

>  <SCORE.INTER.SOLV>
16.5201

>  <SCORE.INTER.VDW>
-24.4496

>  <SCORE.INTER.norm>
-0.548852

>  <SCORE.INTRA>
-3.15616

>  <SCORE.INTRA.DIHEDRAL>
-6.65233

>  <SCORE.INTRA.DIHEDRAL.0>
19.2558

>  <SCORE.INTRA.POLAR>
0

>  <SCORE.INTRA.POLAR.0>
0

>  <SCORE.INTRA.REPUL>
0

>  <SCORE.INTRA.REPUL.0>
0

>  <SCORE.INTRA.SOLV>
-0.931707

>  <SCORE.INTRA.SOLV.lig_0>
-64.5929

>  <SCORE.INTRA.VDW>
0.635861

>  <SCORE.INTRA.VDW.0>
-4.40538

>  <SCORE.INTRA.norm>
-0.101812

>  <SCORE.RESTR>
0

>  <SCORE.RESTR.CAVITY>
0

>  <SCORE.RESTR.norm>
0

>  <SCORE.SYSTEM>
0

>  <SCORE.SYSTEM.CONST>
0

>  <SCORE.SYSTEM.DIHEDRAL>
0

>  <SCORE.SYSTEM.SOLV>
0

>  <SCORE.SYSTEM.norm>
0

>  <SCORE.heavy>
31

>  <SCORE.norm>
-0.650663

>  <RMSD>
0.595

$$$$
ligand
 OpenBabel11021811493D
libRbt.so/2013.1/901 2013/11/27
 31 33  0  0  0  0  0  0  0  0999 V2000
  -19.2093  -15.4915  -12.7324 C   0  0  2  0  0  0  0  0  0  0  0  0
  -19.8023  -16.0938  -13.8736 O   0  0  0  0  0  0  0  0  0  0  0  0
  -23.5778  -15.9167  -15.8455 C   0  0  2  0  0  0  0  0  0  0  0  0
  -24.9873  -16.0069  -16.0517 N   0  0  0  0  0  0  0  0  0  0  0  0
  -25.0824  -13.0361  -14.9125 C   0  0  2  0  0  0  0  0  0  0  0  0
  -17.6679  -15.3089  -13.0539 C   0  0  2  0  0  0  0  0  0  0  0  0
  -17.5188  -14.4651  -14.2487 N   0  0  0  0  0  0  0  0  0  0  0  0
  -23.0458  -17.3423  -15.3823 C   0  0  0  0  0  0  0  0  0  0  0  0
  -25.4309  -12.1855  -16.1786 C   0  0  2  0  0  0  0  0  0  0  0  0
  -25.3133  -13.0172  -17.3087 O   0  0  0  0  0  0  0  0  0  0  0  0
  -16.9967  -16.7223  -13.2737 C   0  0  0  0  0  0  0  0  0  0  0  0
  -21.4695  -17.2449  -15.1580 C   0  0  2  0  0  0  0  0  0  0  0  0
  -20.9527  -18.5633  -14.7314 N   0  0  0  0  0  0  0  0  0  0  0  0
  -24.4437  -10.9483  -16.2673 C   0  0  1  0  0  0  0  0  0  0  0  0
  -24.7619  -10.1181  -17.4839 N   0  0  0  0  0  0  0  0  0  0  0  0
  -17.5343  -17.8124  -12.2564 C   0  0  0  0  0  0  0  0  0  0  0  0
  -21.1751  -16.1654  -14.0367 C   0  0  2  0  0  0  0  0  0  0  0  0
  -24.6232  -10.0276  -14.9378 C   0  0  1  0  0  0  0  0  0  0  0  0
  -25.9286   -9.5055  -14.7950 O   0  0  0  0  0  0  0  0  0  0  0  0
  -18.6238  -17.5757  -11.4911 C   0  0  2  0  0  0  0  0  0  0  0  0
  -19.3499  -16.3434  -11.5474 O   0  0  0  0  0  0  0  0  0  0  0  0
  -21.7283  -14.7575  -14.5052 C   0  0  2  0  0  0  0  0  0  0  0  0
  -21.4670  -13.7854  -13.4793 O   0  0  0  0  0  0  0  0  0  0  0  0
  -24.2985  -10.8998  -13.6797 C   0  0  0  0  0  0  0  0  0  0  0  0
  -25.1599  -12.1613  -13.6746 O   0  0  0  0  0  0  0  0  0  0  0  0
  -19.1693  -18.6013  -10.4985 C   0  0  0  0  0  0  0  0  0  0  0  0
  -20.3196  -19.2243  -11.0908 O   0  0  0  0  0  0  0  0  0  0  0  0
  -23.2899  -14.8490  -14.7295 C   0  0  1  0  0  0  0  0  0  0  0  0
  -23.7437  -13.5771  -15.1592 O   0  0  0  0  0  0  0  0  0  0  0  0
  -23.7038   -8.7887  -14.8835 C   0  0  0  0  0  0  0  0  0  0  0  0
  -24.0925  -10.5110  -18.7405 C   0  0  0  0  0  0  0  0  0  0  0  0
  1  2  1  6  0  0  0
  1  6  1  0  0  0  0
  1 21  1  0  0  0  0
  3  4  1  1  0  0  0
  3  8  1  0  0  0  0
  3 28  1  0  0  0  0
  5  9  1  0  0  0  0
  5 25  1  0  0  0  0
  5 29  1  6  0  0  0
  6  7  1  6  0  0  0
  6 11  1  0  0  0  0
  8 12  1  0  0  0  0
  9 10  1  6  0  0  0
  9 14  1  0  0  0  0
 11 16  1  0  0  0  0
 12 13  1  1  0  0  0
 12 17  1  0  0  0  0
 14 15  1  6  0  0  0
 14 18  1  0  0  0  0
 15 31  1  0  0  0  0
 16 20  1  0  0  0  0
 17  2  1  6  0  0  0
 17 22  1  0  0  0  0
 18 19  1  1  0  0  0
 18 24  1  0  0  0  0
 18 30  1  0  0  0  0
 20 21  1  0  0  0  0
 20 26  1  1  0  0  0
 22 23  1  1  0  0  0
 22 28  1  0  0  0  0
 24 25  1  0  0  0  0
 26 27  1  0  0  0  0
 28 29  1  6  0  0  0
M  END
>  <CHROM.1>
-167.51773069,-145.54399846,-87.91784980,-163.55769606,-102.22244551,90.79575573
-22.09895392,-14.40047012,-14.37550442,-0.74182412,-0.53518356,0.00985839

>  <Name>
ligand

>  <RI>
0

>  <Rbt.Current_Directory>
/home/itssahil/PROJECTS/Mol_Feturizer/New_Systems/rnas/4GPW

>  <Rbt.Executable>
rbdock ($Id: //depot/dev/client3/rdock/2013.1/src/exe/rbdock.cxx#4 $)

>  <Rbt.Library>
libRbt.so (2013.1, Build901 2013/11/27)

>  <Rbt.Parameter_File>
/export/apps/rDock/src/rDock_2013.1_src/data/scripts/dock_solv.prm

>  <Rbt.Receptor>
prm/pocket_docking_5.prm

>  <SCORE>
-20.1601

>  <SCORE.INTER>
-17.0519

>  <SCORE.INTER.CONST>
1

>  <SCORE.INTER.POLAR>
0

>  <SCORE.INTER.ROT>
6

>  <SCORE.INTER.SOLV>
16.4052

>  <SCORE.INTER.VDW>
-24.4363

>  <SCORE.INTER.norm>
-0.550061

>  <SCORE.INTRA>
-3.10825

>  <SCORE.INTRA.DIHEDRAL>
-6.4715

>  <SCORE.INTRA.DIHEDRAL.0>
19.2558

>  <SCORE.INTRA.POLAR>
0

>  <SCORE.INTRA.POLAR.0>
0

>  <SCORE.INTRA.REPUL>
0

>  <SCORE.INTRA.REPUL.0>
0

>  <SCORE.INTRA.SOLV>
-0.929673

>  <SCORE.INTRA.SOLV.lig_0>
-64.5929

>  <SCORE.INTRA.VDW>
0.592332

>  <SCORE.INTRA.VDW.0>
-4.40538

>  <SCORE.INTRA.norm>
-0.100266

>  <SCORE.RESTR>
0

>  <SCORE.RESTR.CAVITY>
0

>  <SCORE.RESTR.norm>
0

>  <SCORE.SYSTEM>
0

>  <SCORE.SYSTEM.CONST>
0

>  <SCORE.SYSTEM.DIHEDRAL>
0

>  <SCORE.SYSTEM.SOLV>
0

>  <SCORE.SYSTEM.norm>
0

>  <SCORE.heavy>
31

>  <SCORE.norm>
-0.650327

>  <RMSD>
0.596

$$$$
ligand
 OpenBabel11021811493D
libRbt.so/2013.1/901 2013/11/27
 31 33  0  0  0  0  0  0  0  0999 V2000
  -19.3292  -15.6192  -12.5895 C   0  0  2  0  0  0  0  0  0  0  0  0
  -19.8859  -16.0325  -13.8288 O   0  0  0  0  0  0  0  0  0  0  0  0
  -23.6149  -15.9799  -15.8943 C   0  0  2  0  0  0  0  0  0  0  0  0
  -25.0171  -16.1026  -16.1316 N   0  0  0  0  0  0  0  0  0  0  0  0
  -25.1598  -13.0586  -14.9859 C   0  0  2  0  0  0  0  0  0  0  0  0
  -17.8015  -15.2908  -12.8549 C   0  0  2  0  0  0  0  0  0  0  0  0
  -17.7028  -14.2325  -13.8709 N   0  0  0  0  0  0  0  0  0  0  0  0
  -23.0678  -17.3824  -15.3806 C   0  0  0  0  0  0  0  0  0  0  0  0
  -25.5195  -12.1798  -16.2296 C   0  0  2  0  0  0  0  0  0  0  0  0
  -25.4499  -12.9958  -17.3750 O   0  0  0  0  0  0  0  0  0  0  0  0
  -17.0479  -16.5973  -13.3258 C   0  0  0  0  0  0  0  0  0  0  0  0
  -21.4996  -17.2488  -15.1214 C   0  0  2  0  0  0  0  0  0  0  0  0
  -20.9689  -18.5454  -14.6476 N   0  0  0  0  0  0  0  0  0  0  0  0
  -24.5056  -10.9648  -16.3240 C   0  0  1  0  0  0  0  0  0  0  0  0
  -24.8342  -10.1079  -17.5192 N   0  0  0  0  0  0  0  0  0  0  0  0
  -17.5199  -17.8869  -12.5342 C   0  0  0  0  0  0  0  0  0  0  0  0
  -21.2528  -16.1348  -14.0227 C   0  0  2  0  0  0  0  0  0  0  0  0
  -24.6299  -10.0617  -14.9764 C   0  0  1  0  0  0  0  0  0  0  0  0
  -25.9186   -9.5115  -14.7925 O   0  0  0  0  0  0  0  0  0  0  0  0
  -18.6213  -17.8601  -11.7501 C   0  0  2  0  0  0  0  0  0  0  0  0
  -19.4190  -16.6832  -11.5846 O   0  0  0  0  0  0  0  0  0  0  0  0
  -21.8205  -14.7506  -14.5417 C   0  0  2  0  0  0  0  0  0  0  0  0
  -21.6025  -13.7470  -13.5362 O   0  0  0  0  0  0  0  0  0  0  0  0
  -24.2948  -10.9613  -13.7405 C   0  0  0  0  0  0  0  0  0  0  0  0
  -25.1857  -12.2022  -13.7331 O   0  0  0  0  0  0  0  0  0  0  0  0
  -19.1050  -19.0823  -10.9708 C   0  0  0  0  0  0  0  0  0  0  0  0
  -19.2146  -18.7120   -9.5876 O   0  0  0  0  0  0  0  0  0  0  0  0
  -23.3742  -14.8780  -14.8006 C   0  0  1  0  0  0  0  0  0  0  0  0
  -23.8410  -13.6267  -15.2749 O   0  0  0  0  0  0  0  0  0  0  0  0
  -23.6802   -8.8457  -14.9261 C   0  0  0  0  0  0  0  0  0  0  0  0
  -24.2412  -10.5219  -18.8071 C   0  0  0  0  0  0  0  0  0  0  0  0
  1  2  1  6  0  0  0
  1  6  1  0  0  0  0
  1 21  1  0  0  0  0
  3  4  1  1  0  0  0
  3  8  1  0  0  0  0
  3 28  1  0  0  0  0
  5  9  1  0  0  0  0
  5 25  1  0  0  0  0
  5 29  1  6  0  0  0
  6  7  1  6  0  0  0
  6 11  1  0  0  0  0
  8 12  1  0  0  0  0
  9 10  1  6  0  0  0
  9 14  1  0  0  0  0
 11 16  1  0  0  0  0
 12 13  1  1  0  0  0
 12 17  1  0  0  0  0
 14 15  1  6  0  0  0
 14 18  1  0  0  0  0
 15 31  1  0  0  0  0
 16 20  1  0  0  0  0
 17  2  1  6  0  0  0
 17 22  1  0  0  0  0
 18 19  1  1  0  0  0
 18 24  1  0  0  0  0
 18 30  1  0  0  0  0
 20 21  1  0  0  0  0
 20 26  1  1  0  0  0
 22 23  1  1  0  0  0
 22 28  1  0  0  0  0
 24 25  1  0  0  0  0
 26 27  1  0  0  0  0
 28 29  1  6  0  0  0
M  END
>  <CHROM.1>
-166.62394439,-150.02738992,-85.98569093,-151.57447152,124.96513960,95.86926997
-22.11582292,-14.42267736,-14.35850274,-0.69103319,-0.60154395,0.07059322

>  <Name>
ligand

>  <RI>
0

>  <Rbt.Current_Directory>
/home/itssahil/PROJECTS/Mol_Feturizer/New_Systems/rnas/4GPW

>  <Rbt.Executable>
rbdock ($Id: //depot/dev/client3/rdock/2013.1/src/exe/rbdock.cxx#4 $)

>  <Rbt.Library>
libRbt.so (2013.1, Build901 2013/11/27)

>  <Rbt.Parameter_File>
/export/apps/rDock/src/rDock_2013.1_src/data/scripts/dock_solv.prm

>  <Rbt.Receptor>
prm/pocket_docking_6.prm

>  <SCORE>
-19.2519

>  <SCORE.INTER>
-17.1608

>  <SCORE.INTER.CONST>
1

>  <SCORE.INTER.POLAR>
0

>  <SCORE.INTER.ROT>
6

>  <SCORE.INTER.SOLV>
17.0964

>  <SCORE.INTER.VDW>
-24.7394

>  <SCORE.INTER.norm>
-0.553576

>  <SCORE.INTRA>
-2.09109

>  <SCORE.INTRA.DIHEDRAL>
-4.63346

>  <SCORE.INTRA.DIHEDRAL.0>
19.2558

>  <SCORE.INTRA.POLAR>
0

>  <SCORE.INTRA.POLAR.0>
0

>  <SCORE.INTRA.REPUL>
0

>  <SCORE.INTRA.REPUL.0>
0

>  <SCORE.INTRA.SOLV>
-0.596346

>  <SCORE.INTRA.SOLV.lig_0>
-64.5929

>  <SCORE.INTRA.VDW>
0.523816

>  <SCORE.INTRA.VDW.0>
-4.40538

>  <SCORE.INTRA.norm>
-0.0674545

>  <SCORE.RESTR>
0

>  <SCORE.RESTR.CAVITY>
0

>  <SCORE.RESTR.norm>
0

>  <SCORE.SYSTEM>
0

>  <SCORE.SYSTEM.CONST>
0

>  <SCORE.SYSTEM.DIHEDRAL>
0

>  <SCORE.SYSTEM.SOLV>
0

>  <SCORE.SYSTEM.norm>
0

>  <SCORE.heavy>
31

>  <SCORE.norm>
-0.62103

>  <RMSD>
0.603

$$$$
ligand
 OpenBabel11021811493D
libRbt.so/2013.1/901 2013/11/27
 31 33  0  0  0  0  0  0  0  0999 V2000
  -19.1875  -15.5490  -12.7123 C   0  0  2  0  0  0  0  0  0  0  0  0
  -19.7875  -16.1376  -13.8569 O   0  0  0  0  0  0  0  0  0  0  0  0
  -23.5647  -15.8796  -15.8168 C   0  0  2  0  0  0  0  0  0  0  0  0
  -24.9751  -15.9533  -16.0228 N   0  0  0  0  0  0  0  0  0  0  0  0
  -25.0429  -13.0102  -14.8011 C   0  0  2  0  0  0  0  0  0  0  0  0
  -17.6440  -15.3836  -13.0323 C   0  0  2  0  0  0  0  0  0  0  0  0
  -17.4840  -14.5351  -14.2224 N   0  0  0  0  0  0  0  0  0  0  0  0
  -23.0431  -17.3209  -15.3918 C   0  0  0  0  0  0  0  0  0  0  0  0
  -25.4274  -12.1956  -16.0805 C   0  0  2  0  0  0  0  0  0  0  0  0
  -25.3401  -13.0587  -17.1896 O   0  0  0  0  0  0  0  0  0  0  0  0
  -16.9901  -16.8040  -13.2597 C   0  0  0  0  0  0  0  0  0  0  0  0
  -21.4658  -17.2417  -15.1679 C   0  0  2  0  0  0  0  0  0  0  0  0
  -20.9588  -18.5748  -14.7766 N   0  0  0  0  0  0  0  0  0  0  0  0
  -24.4444  -10.9610  -16.2311 C   0  0  1  0  0  0  0  0  0  0  0  0
  -24.7972  -10.1654  -17.4612 N   0  0  0  0  0  0  0  0  0  0  0  0
  -17.5415  -17.8930  -12.2486 C   0  0  0  0  0  0  0  0  0  0  0  0
  -21.1611  -16.1942  -14.0194 C   0  0  2  0  0  0  0  0  0  0  0  0
  -24.5881  -10.0035  -14.9235 C   0  0  1  0  0  0  0  0  0  0  0  0
  -25.8897   -9.4780  -14.7593 O   0  0  0  0  0  0  0  0  0  0  0  0
  -18.6283  -17.6471  -11.4824 C   0  0  2  0  0  0  0  0  0  0  0  0
  -19.3392  -16.4057  -11.5321 O   0  0  0  0  0  0  0  0  0  0  0  0
  -21.7040  -14.7703  -14.4502 C   0  0  2  0  0  0  0  0  0  0  0  0
  -21.4334  -13.8272  -13.3998 O   0  0  0  0  0  0  0  0  0  0  0  0
  -24.2277  -10.8399  -13.6509 C   0  0  0  0  0  0  0  0  0  0  0  0
  -25.0872  -12.1010  -13.5866 O   0  0  0  0  0  0  0  0  0  0  0  0
  -19.1868  -18.6714  -10.4956 C   0  0  0  0  0  0  0  0  0  0  0  0
  -20.3962  -19.2100  -11.0517 O   0  0  0  0  0  0  0  0  0  0  0  0
  -23.2665  -14.8437  -14.6739 C   0  0  1  0  0  0  0  0  0  0  0  0
  -23.7110  -13.5574  -15.0696 O   0  0  0  0  0  0  0  0  0  0  0  0
  -23.6690   -8.7632  -14.9294 C   0  0  0  0  0  0  0  0  0  0  0  0
  -24.1936  -10.6176  -18.7312 C   0  0  0  0  0  0  0  0  0  0  0  0
  1  2  1  6  0  0  0
  1  6  1  0  0  0  0
  1 21  1  0  0  0  0
  3  4  1  1  0  0  0
  3  8  1  0  0  0  0
  3 28  1  0  0  0  0
  5  9  1  0  0  0  0
  5 25  1  0  0  0  0
  5 29  1  6  0  0  0
  6  7  1  6  0  0  0
  6 11  1  0  0  0  0
  8 12  1  0  0  0  0
  9 10  1  6  0  0  0
  9 14  1  0  0  0  0
 11 16  1  0  0  0  0
 12 13  1  1  0  0  0
 12 17  1  0  0  0  0
 14 15  1  6  0  0  0
 14 18  1  0  0  0  0
 15 31  1  0  0  0  0
 16 20  1  0  0  0  0
 17  2  1  6  0  0  0
 17 22  1  0  0  0  0
 18 19  1  1  0  0  0
 18 24  1  0  0  0  0
 18 30  1  0  0  0  0
 20 21  1  0  0  0  0
 20 26  1  1  0  0  0
 22 23  1  1  0  0  0
 22 28  1  0  0  0  0
 24 25  1  0  0  0  0
 26 27  1  0  0  0  0
 28 29  1  6  0  0  0
M  END
>  <CHROM.1>
-167.67253782,-142.24790599,-86.17205724,-164.67445824,-106.15082404,91.09031474
-22.08986692,-14.41809619,-14.34320744,-0.73914550,-0.54325707,0.02505049

>  <Name>
ligand

>  <RI>
0

>  <Rbt.Current_Directory>
/home/itssahil/PROJECTS/Mol_Feturizer/New_Systems/rnas/4GPW

>  <Rbt.Executable>
rbdock ($Id: //depot/dev/client3/rdock/2013.1/src/exe/rbdock.cxx#4 $)

>  <Rbt.Library>
libRbt.so (2013.1, Build901 2013/11/27)

>  <Rbt.Parameter_File>
/export/apps/rDock/src/rDock_2013.1_src/data/scripts/dock_solv.prm

>  <Rbt.Receptor>
prm/pocket_docking_4.prm

>  <SCORE>
-20.0611

>  <SCORE.INTER>
-17.1522

>  <SCORE.INTER.CONST>
1

>  <SCORE.INTER.POLAR>
0

>  <SCORE.INTER.ROT>
6

>  <SCORE.INTER.SOLV>
16.5525

>  <SCORE.INTER.VDW>
-24.5523

>  <SCORE.INTER.norm>
-0.553296

>  <SCORE.INTRA>
-2.90888

>  <SCORE.INTRA.DIHEDRAL>
-6.19925

>  <SCORE.INTRA.DIHEDRAL.0>
19.2558

>  <SCORE.INTRA.POLAR>
0

>  <SCORE.INTRA.POLAR.0>
0

>  <SCORE.INTRA.REPUL>
0

>  <SCORE.INTRA.REPUL.0>
0

>  <SCORE.INTRA.SOLV>
-0.929685

>  <SCORE.INTRA.SOLV.lig_0>
-64.5929

>  <SCORE.INTRA.VDW>
0.655592

>  <SCORE.INTRA.VDW.0>
-4.40538

>  <SCORE.INTRA.norm>
-0.0938347

>  <SCORE.RESTR>
0

>  <SCORE.RESTR.CAVITY>
0

>  <SCORE.RESTR.norm>
0

>  <SCORE.SYSTEM>
0

>  <SCORE.SYSTEM.CONST>
0

>  <SCORE.SYSTEM.DIHEDRAL>
0

>  <SCORE.SYSTEM.SOLV>
0

>  <SCORE.SYSTEM.norm>
0

>  <SCORE.heavy>
31

>  <SCORE.norm>
-0.647131

>  <RMSD>
0.608

$$$$
ligand
 OpenBabel11021811493D
libRbt.so/2013.1/901 2013/11/27
 31 33  0  0  0  0  0  0  0  0999 V2000
  -19.2968  -15.7407  -12.5311 C   0  0  2  0  0  0  0  0  0  0  0  0
  -19.8524  -16.0730  -13.7950 O   0  0  0  0  0  0  0  0  0  0  0  0
  -23.5797  -16.2702  -15.8548 C   0  0  2  0  0  0  0  0  0  0  0  0
  -24.9771  -16.4516  -16.0819 N   0  0  0  0  0  0  0  0  0  0  0  0
  -25.2073  -13.3342  -15.1170 C   0  0  2  0  0  0  0  0  0  0  0  0
  -17.7869  -15.3295  -12.7830 C   0  0  2  0  0  0  0  0  0  0  0  0
  -17.7435  -14.1881  -13.7088 N   0  0  0  0  0  0  0  0  0  0  0  0
  -22.9895  -17.6188  -15.2525 C   0  0  0  0  0  0  0  0  0  0  0  0
  -25.5269  -12.4002  -16.3310 C   0  0  2  0  0  0  0  0  0  0  0  0
  -25.4199  -13.1641  -17.5089 O   0  0  0  0  0  0  0  0  0  0  0  0
  -16.9879  -16.5610  -13.3675 C   0  0  0  0  0  0  0  0  0  0  0  0
  -21.4264  -17.4199  -15.0044 C   0  0  2  0  0  0  0  0  0  0  0  0
  -20.8558  -18.6660  -14.4486 N   0  0  0  0  0  0  0  0  0  0  0  0
  -24.5110  -11.1832  -16.3380 C   0  0  1  0  0  0  0  0  0  0  0  0
  -24.8011  -10.2733  -17.5035 N   0  0  0  0  0  0  0  0  0  0  0  0
  -17.3979  -17.9295  -12.6808 C   0  0  0  0  0  0  0  0  0  0  0  0
  -21.2153  -16.2302  -13.9801 C   0  0  2  0  0  0  0  0  0  0  0  0
  -24.6793  -10.3412  -14.9559 C   0  0  1  0  0  0  0  0  0  0  0  0
  -25.9735   -9.7985  -14.7893 O   0  0  0  0  0  0  0  0  0  0  0  0
  -18.4893  -18.0123  -11.8867 C   0  0  2  0  0  0  0  0  0  0  0  0
  -19.3311  -16.8865  -11.6169 O   0  0  0  0  0  0  0  0  0  0  0  0
  -21.8256  -14.9007  -14.5867 C   0  0  2  0  0  0  0  0  0  0  0  0
  -21.6397  -13.8281  -13.6483 O   0  0  0  0  0  0  0  0  0  0  0  0
  -24.3839  -11.2957  -13.7514 C   0  0  0  0  0  0  0  0  0  0  0  0
  -25.2740  -12.5347  -13.8285 O   0  0  0  0  0  0  0  0  0  0  0  0
  -18.9138  -19.3132  -11.2066 C   0  0  0  0  0  0  0  0  0  0  0  0
  -19.4866  -18.9816   -9.9322 O   0  0  0  0  0  0  0  0  0  0  0  0
  -23.3743  -15.0930  -14.8348 C   0  0  1  0  0  0  0  0  0  0  0  0
  -23.8796  -13.8901  -15.3883 O   0  0  0  0  0  0  0  0  0  0  0  0
  -23.7322   -9.1296  -14.8206 C   0  0  0  0  0  0  0  0  0  0  0  0
  -24.0927  -10.5746  -18.7641 C   0  0  0  0  0  0  0  0  0  0  0  0
  1  2  1  6  0  0  0
  1  6  1  0  0  0  0
  1 21  1  0  0  0  0
  3  4  1  1  0  0  0
  3  8  1  0  0  0  0
  3 28  1  0  0  0  0
  5  9  1  0  0  0  0
  5 25  1  0  0  0  0
  5 29  1  6  0  0  0
  6  7  1  6  0  0  0
  6 11  1  0  0  0  0
  8 12  1  0  0  0  0
  9 10  1  6  0  0  0
  9 14  1  0  0  0  0
 11 16  1  0  0  0  0
 12 13  1  1  0  0  0
 12 17  1  0  0  0  0
 14 15  1  6  0  0  0
 14 18  1  0  0  0  0
 15 31  1  0  0  0  0
 16 20  1  0  0  0  0
 17  2  1  6  0  0  0
 17 22  1  0  0  0  0
 18 19  1  1  0  0  0
 18 24  1  0  0  0  0
 18 30  1  0  0  0  0
 20 21  1  0  0  0  0
 20 26  1  1  0  0  0
 22 23  1  1  0  0  0
 22 28  1  0  0  0  0
 24 25  1  0  0  0  0
 26 27  1  0  0  0  0
 28 29  1  6  0  0  0
M  END
>  <CHROM.1>
-167.40141068,-157.38448216,-90.11856861,-142.71410684,145.73663457,96.96968436
-22.10234083,-14.60408820,-14.38195054,-0.72105688,-0.54131354,0.00264049

>  <Name>
ligand

>  <RI>
0

>  <Rbt.Current_Directory>
/home/itssahil/PROJECTS/Mol_Feturizer/New_Systems/rnas/4GPW

>  <Rbt.Executable>
rbdock ($Id: //depot/dev/client3/rdock/2013.1/src/exe/rbdock.cxx#4 $)

>  <Rbt.Library>
libRbt.so (2013.1, Build901 2013/11/27)

>  <Rbt.Parameter_File>
/export/apps/rDock/src/rDock_2013.1_src/data/scripts/dock_solv.prm

>  <Rbt.Receptor>
prm/pocket_docking_2.prm

>  <SCORE>
-17.7092

>  <SCORE.INTER>
-16.2641

>  <SCORE.INTER.CONST>
1

>  <SCORE.INTER.POLAR>
0

>  <SCORE.INTER.ROT>
6

>  <SCORE.INTER.SOLV>
16.5627

>  <SCORE.INTER.VDW>
-23.9636

>  <SCORE.INTER.norm>
-0.524648

>  <SCORE.INTRA>
-1.4451

>  <SCORE.INTRA.DIHEDRAL>
-3.40472

>  <SCORE.INTRA.DIHEDRAL.0>
19.2558

>  <SCORE.INTRA.POLAR>
0

>  <SCORE.INTRA.POLAR.0>
0

>  <SCORE.INTRA.REPUL>
0

>  <SCORE.INTRA.REPUL.0>
0

>  <SCORE.INTRA.SOLV>
-0.193621

>  <SCORE.INTRA.SOLV.lig_0>
-64.5929

>  <SCORE.INTRA.VDW>
0.354072

>  <SCORE.INTRA.VDW.0>
-4.40538

>  <SCORE.INTRA.norm>
-0.046616

>  <SCORE.RESTR>
0

>  <SCORE.RESTR.CAVITY>
0

>  <SCORE.RESTR.norm>
0

>  <SCORE.SYSTEM>
0

>  <SCORE.SYSTEM.CONST>
0

>  <SCORE.SYSTEM.DIHEDRAL>
0

>  <SCORE.SYSTEM.SOLV>
0

>  <SCORE.SYSTEM.norm>
0

>  <SCORE.heavy>
31

>  <SCORE.norm>
-0.571264

>  <RMSD>
0.609

$$$$
ligand
 OpenBabel11021811493D
libRbt.so/2013.1/901 2013/11/27
 31 33  0  0  0  0  0  0  0  0999 V2000
  -19.3431  -15.8372  -12.6050 C   0  0  2  0  0  0  0  0  0  0  0  0
  -19.8986  -16.2148  -13.8563 O   0  0  0  0  0  0  0  0  0  0  0  0
  -23.5951  -15.7621  -15.9311 C   0  0  2  0  0  0  0  0  0  0  0  0
  -24.9971  -15.8044  -16.1957 N   0  0  0  0  0  0  0  0  0  0  0  0
  -25.0893  -12.9664  -14.7436 C   0  0  2  0  0  0  0  0  0  0  0  0
  -17.8380  -15.4194  -12.8741 C   0  0  2  0  0  0  0  0  0  0  0  0
  -17.8083  -14.3075  -13.8357 N   0  0  0  0  0  0  0  0  0  0  0  0
  -23.1011  -17.2380  -15.6032 C   0  0  0  0  0  0  0  0  0  0  0  0
  -25.4820  -12.1708  -16.0324 C   0  0  2  0  0  0  0  0  0  0  0  0
  -25.3883  -13.0466  -17.1310 O   0  0  0  0  0  0  0  0  0  0  0  0
  -17.0283  -16.6609  -13.4215 C   0  0  0  0  0  0  0  0  0  0  0  0
  -21.5331  -17.1935  -15.3140 C   0  0  2  0  0  0  0  0  0  0  0  0
  -21.0515  -18.5588  -15.0115 N   0  0  0  0  0  0  0  0  0  0  0  0
  -24.5099  -10.9297  -16.1991 C   0  0  1  0  0  0  0  0  0  0  0  0
  -24.8707  -10.1522  -17.4384 N   0  0  0  0  0  0  0  0  0  0  0  0
  -17.4230  -18.0109  -12.6907 C   0  0  0  0  0  0  0  0  0  0  0  0
  -21.2652  -16.2439  -14.0747 C   0  0  2  0  0  0  0  0  0  0  0  0
  -24.6605   -9.9575  -14.9031 C   0  0  1  0  0  0  0  0  0  0  0  0
  -25.9664   -9.4413  -14.7439 O   0  0  0  0  0  0  0  0  0  0  0  0
  -18.5116  -18.0792  -11.8913 C   0  0  2  0  0  0  0  0  0  0  0  0
  -19.3639  -16.9538  -11.6549 O   0  0  0  0  0  0  0  0  0  0  0  0
  -21.7804  -14.7846  -14.4106 C   0  0  2  0  0  0  0  0  0  0  0  0
  -21.5436  -13.9310  -13.2787 O   0  0  0  0  0  0  0  0  0  0  0  0
  -24.2917  -10.7753  -13.6208 C   0  0  0  0  0  0  0  0  0  0  0  0
  -25.1402  -12.0429  -13.5402 O   0  0  0  0  0  0  0  0  0  0  0  0
  -18.9215  -19.3620  -11.1692 C   0  0  0  0  0  0  0  0  0  0  0  0
  -19.4881  -18.9961   -9.9014 O   0  0  0  0  0  0  0  0  0  0  0  0
  -23.3337  -14.8236  -14.6986 C   0  0  1  0  0  0  0  0  0  0  0  0
  -23.7529  -13.5053  -15.0069 O   0  0  0  0  0  0  0  0  0  0  0  0
  -23.7522   -8.7095  -14.9252 C   0  0  0  0  0  0  0  0  0  0  0  0
  -24.2767  -10.6240  -18.7059 C   0  0  0  0  0  0  0  0  0  0  0  0
  1  2  1  6  0  0  0
  1  6  1  0  0  0  0
  1 21  1  0  0  0  0
  3  4  1  1  0  0  0
  3  8  1  0  0  0  0
  3 28  1  0  0  0  0
  5  9  1  0  0  0  0
  5 25  1  0  0  0  0
  5 29  1  6  0  0  0
  6  7  1  6  0  0  0
  6 11  1  0  0  0  0
  8 12  1  0  0  0  0
  9 10  1  6  0  0  0
  9 14  1  0  0  0  0
 11 16  1  0  0  0  0
 12 13  1  1  0  0  0
 12 17  1  0  0  0  0
 14 15  1  6  0  0  0
 14 18  1  0  0  0  0
 15 31  1  0  0  0  0
 16 20  1  0  0  0  0
 17  2  1  6  0  0  0
 17 22  1  0  0  0  0
 18 19  1  1  0  0  0
 18 24  1  0  0  0  0
 18 30  1  0  0  0  0
 20 21  1  0  0  0  0
 20 26  1  1  0  0  0
 22 23  1  1  0  0  0
 22 28  1  0  0  0  0
 24 25  1  0  0  0  0
 26 27  1  0  0  0  0
 28 29  1  6  0  0  0
M  END
>  <CHROM.1>
-159.90919021,-136.50409543,-85.49436114,-158.99770709,145.44540255,91.22744665
-22.11270949,-14.44762102,-14.34872711,-0.67898173,-0.62259836,0.14702273

>  <Name>
ligand

>  <RI>
0

>  <Rbt.Current_Directory>
/home/itssahil/PROJECTS/Mol_Feturizer/New_Systems/rnas/4GPW

>  <Rbt.Executable>
rbdock ($Id: //depot/dev/client3/rdock/2013.1/src/exe/rbdock.cxx#4 $)

>  <Rbt.Library>
libRbt.so (2013.1, Build901 2013/11/27)

>  <Rbt.Parameter_File>
/export/apps/rDock/src/rDock_2013.1_src/data/scripts/dock_solv.prm

>  <Rbt.Receptor>
prm/pocket_docking_2.prm

>  <SCORE>
-17.3881

>  <SCORE.INTER>
-16.4811

>  <SCORE.INTER.CONST>
1

>  <SCORE.INTER.POLAR>
0

>  <SCORE.INTER.ROT>
6

>  <SCORE.INTER.SOLV>
16.2312

>  <SCORE.INTER.VDW>
-23.9978

>  <SCORE.INTER.norm>
-0.531647

>  <SCORE.INTRA>
-0.919481

>  <SCORE.INTRA.DIHEDRAL>
-2.83098

>  <SCORE.INTRA.DIHEDRAL.0>
19.2558

>  <SCORE.INTRA.POLAR>
0

>  <SCORE.INTRA.POLAR.0>
0

>  <SCORE.INTRA.REPUL>
0

>  <SCORE.INTRA.REPUL.0>
0

>  <SCORE.INTRA.SOLV>
-0.559828

>  <SCORE.INTRA.SOLV.lig_0>
-64.5929

>  <SCORE.INTRA.VDW>
0.775923

>  <SCORE.INTRA.VDW.0>
-4.40538

>  <SCORE.INTRA.norm>
-0.0296607

>  <SCORE.RESTR>
0.0124893

>  <SCORE.RESTR.CAVITY>
0.0124893

>  <SCORE.RESTR.norm>
0.00040288

>  <SCORE.SYSTEM>
0

>  <SCORE.SYSTEM.CONST>
0

>  <SCORE.SYSTEM.DIHEDRAL>
0

>  <SCORE.SYSTEM.SOLV>
0

>  <SCORE.SYSTEM.norm>
0

>  <SCORE.heavy>
31

>  <SCORE.norm>
-0.560905

>  <RMSD>
0.611

$$$$
ligand
 OpenBabel11021811493D
libRbt.so/2013.1/901 2013/11/27
 31 33  0  0  0  0  0  0  0  0999 V2000
  -19.3767  -15.8595  -12.4544 C   0  0  2  0  0  0  0  0  0  0  0  0
  -19.9157  -16.0798  -13.7495 O   0  0  0  0  0  0  0  0  0  0  0  0
  -23.6010  -16.2643  -15.8847 C   0  0  2  0  0  0  0  0  0  0  0  0
  -24.9935  -16.4452  -16.1410 N   0  0  0  0  0  0  0  0  0  0  0  0
  -25.2313  -13.3154  -15.1263 C   0  0  2  0  0  0  0  0  0  0  0  0
  -17.8513  -15.4742  -12.6474 C   0  0  2  0  0  0  0  0  0  0  0  0
  -17.7582  -14.2683  -13.4833 N   0  0  0  0  0  0  0  0  0  0  0  0
  -23.0216  -17.6171  -15.2811 C   0  0  0  0  0  0  0  0  0  0  0  0
  -25.5432  -12.3712  -16.3343 C   0  0  2  0  0  0  0  0  0  0  0  0
  -25.4517  -13.1307  -17.5164 O   0  0  0  0  0  0  0  0  0  0  0  0
  -17.0748  -16.6809  -13.3088 C   0  0  0  0  0  0  0  0  0  0  0  0
  -21.4640  -17.4188  -15.0004 C   0  0  2  0  0  0  0  0  0  0  0  0
  -20.9033  -18.6686  -14.4429 N   0  0  0  0  0  0  0  0  0  0  0  0
  -24.5107  -11.1682  -16.3398 C   0  0  1  0  0  0  0  0  0  0  0  0
  -24.7932  -10.2487  -17.4996 N   0  0  0  0  0  0  0  0  0  0  0  0
  -17.5358  -18.0846  -12.7349 C   0  0  0  0  0  0  0  0  0  0  0  0
  -21.2745  -16.2368  -13.9630 C   0  0  2  0  0  0  0  0  0  0  0  0
  -24.6615  -10.3308  -14.9529 C   0  0  1  0  0  0  0  0  0  0  0  0
  -25.9474   -9.7712  -14.7782 O   0  0  0  0  0  0  0  0  0  0  0  0
  -18.6448  -18.1953  -11.9690 C   0  0  2  0  0  0  0  0  0  0  0  0
  -19.4608  -17.0692  -11.6301 O   0  0  0  0  0  0  0  0  0  0  0  0
  -21.8739  -14.9032  -14.5713 C   0  0  2  0  0  0  0  0  0  0  0  0
  -21.7078  -13.8376  -13.6212 O   0  0  0  0  0  0  0  0  0  0  0  0
  -24.3742  -11.2952  -13.7544 C   0  0  0  0  0  0  0  0  0  0  0  0
  -25.2816  -12.5215  -13.8337 O   0  0  0  0  0  0  0  0  0  0  0  0
  -19.1183  -19.5308  -11.3969 C   0  0  0  0  0  0  0  0  0  0  0  0
  -19.1349  -19.4195   -9.9652 O   0  0  0  0  0  0  0  0  0  0  0  0
  -23.4172  -15.0949  -14.8518 C   0  0  1  0  0  0  0  0  0  0  0  0
  -23.9125  -13.8882  -15.4059 O   0  0  0  0  0  0  0  0  0  0  0  0
  -23.6973   -9.1331  -14.8157 C   0  0  0  0  0  0  0  0  0  0  0  0
  -24.1392  -10.5868  -18.7802 C   0  0  0  0  0  0  0  0  0  0  0  0
  1  2  1  6  0  0  0
  1  6  1  0  0  0  0
  1 21  1  0  0  0  0
  3  4  1  1  0  0  0
  3  8  1  0  0  0  0
  3 28  1  0  0  0  0
  5  9  1  0  0  0  0
  5 25  1  0  0  0  0
  5 29  1  6  0  0  0
  6  7  1  6  0  0  0
  6 11  1  0  0  0  0
  8 12  1  0  0  0  0
  9 10  1  6  0  0  0
  9 14  1  0  0  0  0
 11 16  1  0  0  0  0
 12 13  1  1  0  0  0
 12 17  1  0  0  0  0
 14 15  1  6  0  0  0
 14 18  1  0  0  0  0
 15 31  1  0  0  0  0
 16 20  1  0  0  0  0
 17  2  1  6  0  0  0
 17 22  1  0  0  0  0
 18 19  1  1  0  0  0
 18 24  1  0  0  0  0
 18 30  1  0  0  0  0
 20 21  1  0  0  0  0
 20 26  1  1  0  0  0
 22 23  1  1  0  0  0
 22 28  1  0  0  0  0
 24 25  1  0  0  0  0
 26 27  1  0  0  0  0
 28 29  1  6  0  0  0
M  END
>  <CHROM.1>
-170.04125328,-157.94324136,-87.60804930,-137.73527644,120.04763464,98.85278529
-22.13356891,-14.65356038,-14.38018913,-0.72808544,-0.56228144,0.02211511

>  <Name>
ligand

>  <RI>
0

>  <Rbt.Current_Directory>
/home/itssahil/PROJECTS/Mol_Feturizer/New_Systems/rnas/4GPW

>  <Rbt.Executable>
rbdock ($Id: //depot/dev/client3/rdock/2013.1/src/exe/rbdock.cxx#4 $)

>  <Rbt.Library>
libRbt.so (2013.1, Build901 2013/11/27)

>  <Rbt.Parameter_File>
/export/apps/rDock/src/rDock_2013.1_src/data/scripts/dock_solv.prm

>  <Rbt.Receptor>
prm/pocket_docking_2.prm

>  <SCORE>
-17.7133

>  <SCORE.INTER>
-16.1878

>  <SCORE.INTER.CONST>
1

>  <SCORE.INTER.POLAR>
0

>  <SCORE.INTER.ROT>
6

>  <SCORE.INTER.SOLV>
16.4526

>  <SCORE.INTER.VDW>
-23.8761

>  <SCORE.INTER.norm>
-0.522186

>  <SCORE.INTRA>
-1.52552

>  <SCORE.INTRA.DIHEDRAL>
-3.46424

>  <SCORE.INTRA.DIHEDRAL.0>
19.2558

>  <SCORE.INTRA.POLAR>
0

>  <SCORE.INTRA.POLAR.0>
0

>  <SCORE.INTRA.REPUL>
0

>  <SCORE.INTRA.REPUL.0>
0

>  <SCORE.INTRA.SOLV>
0.0876144

>  <SCORE.INTRA.SOLV.lig_0>
-64.5929

>  <SCORE.INTRA.VDW>
0.162796

>  <SCORE.INTRA.VDW.0>
-4.40538

>  <SCORE.INTRA.norm>
-0.0492103

>  <SCORE.RESTR>
0

>  <SCORE.RESTR.CAVITY>
0

>  <SCORE.RESTR.norm>
0

>  <SCORE.SYSTEM>
0

>  <SCORE.SYSTEM.CONST>
0

>  <SCORE.SYSTEM.DIHEDRAL>
0

>  <SCORE.SYSTEM.SOLV>
0

>  <SCORE.SYSTEM.norm>
0

>  <SCORE.heavy>
31

>  <SCORE.norm>
-0.571397

>  <RMSD>
0.613

$$$$
ligand
 OpenBabel11021811493D
libRbt.so/2013.1/901 2013/11/27
 31 33  0  0  0  0  0  0  0  0999 V2000
  -19.2186  -15.5154  -12.7635 C   0  0  2  0  0  0  0  0  0  0  0  0
  -19.8047  -16.1358  -13.8985 O   0  0  0  0  0  0  0  0  0  0  0  0
  -23.5950  -16.1581  -15.8498 C   0  0  2  0  0  0  0  0  0  0  0  0
  -25.0030  -16.2933  -16.0406 N   0  0  0  0  0  0  0  0  0  0  0  0
  -25.1351  -13.2293  -14.9985 C   0  0  2  0  0  0  0  0  0  0  0  0
  -17.6776  -15.3269  -13.0833 C   0  0  2  0  0  0  0  0  0  0  0  0
  -17.5307  -14.4972  -14.2881 N   0  0  0  0  0  0  0  0  0  0  0  0
  -23.0257  -17.5429  -15.3129 C   0  0  0  0  0  0  0  0  0  0  0  0
  -25.4813  -12.3103  -16.2167 C   0  0  2  0  0  0  0  0  0  0  0  0
  -25.4001  -13.0889  -17.3872 O   0  0  0  0  0  0  0  0  0  0  0  0
  -16.9967  -16.7386  -13.2837 C   0  0  0  0  0  0  0  0  0  0  0  0
  -21.4510  -17.3955  -15.1056 C   0  0  2  0  0  0  0  0  0  0  0  0
  -20.8998  -18.6757  -14.6110 N   0  0  0  0  0  0  0  0  0  0  0  0
  -24.4658  -11.0938  -16.2612 C   0  0  1  0  0  0  0  0  0  0  0  0
  -24.7814  -10.1984  -17.4313 N   0  0  0  0  0  0  0  0  0  0  0  0
  -17.5300  -17.8194  -12.2542 C   0  0  0  0  0  0  0  0  0  0  0  0
  -21.1763  -16.2492  -14.0475 C   0  0  2  0  0  0  0  0  0  0  0  0
  -24.6037  -10.2347  -14.8863 C   0  0  1  0  0  0  0  0  0  0  0  0
  -25.8939   -9.6896  -14.6982 O   0  0  0  0  0  0  0  0  0  0  0  0
  -18.6230  -17.5802  -11.4947 C   0  0  2  0  0  0  0  0  0  0  0  0
  -19.3569  -16.3534  -11.5682 O   0  0  0  0  0  0  0  0  0  0  0  0
  -21.7664  -14.8829  -14.5886 C   0  0  2  0  0  0  0  0  0  0  0  0
  -21.5227  -13.8497  -13.6196 O   0  0  0  0  0  0  0  0  0  0  0  0
  -24.2820  -11.1742  -13.6768 C   0  0  0  0  0  0  0  0  0  0  0  0
  -25.1736  -12.4138  -13.7190 O   0  0  0  0  0  0  0  0  0  0  0  0
  -19.1644  -18.5969  -10.4907 C   0  0  0  0  0  0  0  0  0  0  0  0
  -20.3504  -19.1836  -11.0487 O   0  0  0  0  0  0  0  0  0  0  0  0
  -23.3265  -15.0240  -14.7962 C   0  0  1  0  0  0  0  0  0  0  0  0
  -23.8136  -13.7889  -15.2919 O   0  0  0  0  0  0  0  0  0  0  0  0
  -23.6539   -9.0218  -14.7868 C   0  0  0  0  0  0  0  0  0  0  0  0
  -24.1834  -10.5767  -18.7278 C   0  0  0  0  0  0  0  0  0  0  0  0
  1  2  1  6  0  0  0
  1  6  1  0  0  0  0
  1 21  1  0  0  0  0
  3  4  1  1  0  0  0
  3  8  1  0  0  0  0
  3 28  1  0  0  0  0
  5  9  1  0  0  0  0
  5 25  1  0  0  0  0
  5 29  1  6  0  0  0
  6  7  1  6  0  0  0
  6 11  1  0  0  0  0
  8 12  1  0  0  0  0
  9 10  1  6  0  0  0
  9 14  1  0  0  0  0
 11 16  1  0  0  0  0
 12 13  1  1  0  0  0
 12 17  1  0  0  0  0
 14 15  1  6  0  0  0
 14 18  1  0  0  0  0
 15 31  1  0  0  0  0
 16 20  1  0  0  0  0
 17  2  1  6  0  0  0
 17 22  1  0  0  0  0
 18 19  1  1  0  0  0
 18 24  1  0  0  0  0
 18 30  1  0  0  0  0
 20 21  1  0  0  0  0
 20 26  1  1  0  0  0
 22 23  1  1  0  0  0
 22 28  1  0  0  0  0
 24 25  1  0  0  0  0
 26 27  1  0  0  0  0
 28 29  1  6  0  0  0
M  END
>  <CHROM.1>
-169.23092495,-153.49731995,-85.53882738,-160.38022519,-105.24396325,94.71987681
-22.11306368,-14.51548608,-14.38317907,-0.73577379,-0.52343668,-0.00495158

>  <Name>
ligand

>  <RI>
0

>  <Rbt.Current_Directory>
/home/itssahil/PROJECTS/Mol_Feturizer/New_Systems/rnas/4GPW

>  <Rbt.Executable>
rbdock ($Id: //depot/dev/client3/rdock/2013.1/src/exe/rbdock.cxx#4 $)

>  <Rbt.Library>
libRbt.so (2013.1, Build901 2013/11/27)

>  <Rbt.Parameter_File>
/export/apps/rDock/src/rDock_2013.1_src/data/scripts/dock_solv.prm

>  <Rbt.Receptor>
prm/pocket_docking_4.prm

>  <SCORE>
-20.0761

>  <SCORE.INTER>
-16.6096

>  <SCORE.INTER.CONST>
1

>  <SCORE.INTER.POLAR>
0

>  <SCORE.INTER.ROT>
6

>  <SCORE.INTER.SOLV>
16.6226

>  <SCORE.INTER.VDW>
-24.2139

>  <SCORE.INTER.norm>
-0.535792

>  <SCORE.INTRA>
-3.46651

>  <SCORE.INTRA.DIHEDRAL>
-7.1187

>  <SCORE.INTRA.DIHEDRAL.0>
19.2558

>  <SCORE.INTRA.POLAR>
0

>  <SCORE.INTRA.POLAR.0>
0

>  <SCORE.INTRA.REPUL>
0

>  <SCORE.INTRA.REPUL.0>
0

>  <SCORE.INTRA.SOLV>
-0.873856

>  <SCORE.INTRA.SOLV.lig_0>
-64.5929

>  <SCORE.INTRA.VDW>
0.529771

>  <SCORE.INTRA.VDW.0>
-4.40538

>  <SCORE.INTRA.norm>
-0.111823

>  <SCORE.RESTR>
0

>  <SCORE.RESTR.CAVITY>
0

>  <SCORE.RESTR.norm>
0

>  <SCORE.SYSTEM>
0

>  <SCORE.SYSTEM.CONST>
0

>  <SCORE.SYSTEM.DIHEDRAL>
0

>  <SCORE.SYSTEM.SOLV>
0

>  <SCORE.SYSTEM.norm>
0

>  <SCORE.heavy>
31

>  <SCORE.norm>
-0.647615

>  <RMSD>
0.616

$$$$
ligand
 OpenBabel11021811493D
libRbt.so/2013.1/901 2013/11/27
 31 33  0  0  0  0  0  0  0  0999 V2000
  -19.2629  -15.5136  -12.7851 C   0  0  2  0  0  0  0  0  0  0  0  0
  -19.8381  -16.1325  -13.9264 O   0  0  0  0  0  0  0  0  0  0  0  0
  -23.6178  -16.2555  -15.8945 C   0  0  2  0  0  0  0  0  0  0  0  0
  -25.0234  -16.4115  -16.0878 N   0  0  0  0  0  0  0  0  0  0  0  0
  -25.1779  -13.2985  -15.1100 C   0  0  2  0  0  0  0  0  0  0  0  0
  -17.7221  -15.3101  -13.0962 C   0  0  2  0  0  0  0  0  0  0  0  0
  -17.5765  -14.4723  -14.2956 N   0  0  0  0  0  0  0  0  0  0  0  0
  -23.0367  -17.6169  -15.3124 C   0  0  0  0  0  0  0  0  0  0  0  0
  -25.5051  -12.3486  -16.3096 C   0  0  2  0  0  0  0  0  0  0  0  0
  -25.4320  -13.1034  -17.4960 O   0  0  0  0  0  0  0  0  0  0  0  0
  -17.0280  -16.7147  -13.3012 C   0  0  0  0  0  0  0  0  0  0  0  0
  -21.4647  -17.4463  -15.1022 C   0  0  2  0  0  0  0  0  0  0  0  0
  -20.9026  -18.7047  -14.5657 N   0  0  0  0  0  0  0  0  0  0  0  0
  -24.4704  -11.1477  -16.3249 C   0  0  1  0  0  0  0  0  0  0  0  0
  -24.7675  -10.2228  -17.4768 N   0  0  0  0  0  0  0  0  0  0  0  0
  -17.5570  -17.8059  -12.2804 C   0  0  0  0  0  0  0  0  0  0  0  0
  -21.2076  -16.2652  -14.0785 C   0  0  2  0  0  0  0  0  0  0  0  0
  -24.5996  -10.3157  -14.9326 C   0  0  1  0  0  0  0  0  0  0  0  0
  -25.8817   -9.7543  -14.7372 O   0  0  0  0  0  0  0  0  0  0  0  0
  -18.6558  -17.5803  -11.5250 C   0  0  2  0  0  0  0  0  0  0  0  0
  -19.3998  -16.3595  -11.5953 O   0  0  0  0  0  0  0  0  0  0  0  0
  -21.8093  -14.9225  -14.6643 C   0  0  2  0  0  0  0  0  0  0  0  0
  -21.5816  -13.8575  -13.7264 O   0  0  0  0  0  0  0  0  0  0  0  0
  -24.2972  -11.2856  -13.7422 C   0  0  0  0  0  0  0  0  0  0  0  0
  -25.2081  -12.5098  -13.8136 O   0  0  0  0  0  0  0  0  0  0  0  0
  -19.1933  -18.6073  -10.5294 C   0  0  0  0  0  0  0  0  0  0  0  0
  -20.3708  -19.2019  -11.0972 O   0  0  0  0  0  0  0  0  0  0  0  0
  -23.3668  -15.0867  -14.8750 C   0  0  1  0  0  0  0  0  0  0  0  0
  -23.8644  -13.8727  -15.4108 O   0  0  0  0  0  0  0  0  0  0  0  0
  -23.6311   -9.1204  -14.8043 C   0  0  0  0  0  0  0  0  0  0  0  0
  -24.1330  -10.5571  -18.7680 C   0  0  0  0  0  0  0  0  0  0  0  0
  1  2  1  6  0  0  0
  1  6  1  0  0  0  0
  1 21  1  0  0  0  0
  3  4  1  1  0  0  0
  3  8  1  0  0  0  0
  3 28  1  0  0  0  0
  5  9  1  0  0  0  0
  5 25  1  0  0  0  0
  5 29  1  6  0  0  0
  6  7  1  6  0  0  0
  6 11  1  0  0  0  0
  8 12  1  0  0  0  0
  9 10  1  6  0  0  0
  9 14  1  0  0  0  0
 11 16  1  0  0  0  0
 12 13  1  1  0  0  0
 12 17  1  0  0  0  0
 14 15  1  6  0  0  0
 14 18  1  0  0  0  0
 15 31  1  0  0  0  0
 16 20  1  0  0  0  0
 17  2  1  6  0  0  0
 17 22  1  0  0  0  0
 18 19  1  1  0  0  0
 18 24  1  0  0  0  0
 18 30  1  0  0  0  0
 20 21  1  0  0  0  0
 20 26  1  1  0  0  0
 22 23  1  1  0  0  0
 22 28  1  0  0  0  0
 24 25  1  0  0  0  0
 26 27  1  0  0  0  0
 28 29  1  6  0  0  0
M  END
>  <CHROM.1>
-169.68859611,-157.54446901,-87.58919961,-158.08447393,-105.18712480,96.63511772
-22.13549375,-14.55275734,-14.43026447,-0.74076731,-0.51847268,-0.02284083

>  <Name>
ligand

>  <RI>
0

>  <Rbt.Current_Directory>
/home/itssahil/PROJECTS/Mol_Feturizer/New_Systems/rnas/4GPW

>  <Rbt.Executable>
rbdock ($Id: //depot/dev/client3/rdock/2013.1/src/exe/rbdock.cxx#4 $)

>  <Rbt.Library>
libRbt.so (2013.1, Build901 2013/11/27)

>  <Rbt.Parameter_File>
/export/apps/rDock/src/rDock_2013.1_src/data/scripts/dock_solv.prm

>  <Rbt.Receptor>
prm/pocket_docking_2.prm

>  <SCORE>
-20.1518

>  <SCORE.INTER>
-16.5947

>  <SCORE.INTER.CONST>
1

>  <SCORE.INTER.POLAR>
0

>  <SCORE.INTER.ROT>
6

>  <SCORE.INTER.SOLV>
16.4634

>  <SCORE.INTER.VDW>
-24.1509

>  <SCORE.INTER.norm>
-0.535313

>  <SCORE.INTRA>
-3.55711

>  <SCORE.INTRA.DIHEDRAL>
-7.10184

>  <SCORE.INTRA.DIHEDRAL.0>
19.2558

>  <SCORE.INTRA.POLAR>
0

>  <SCORE.INTRA.POLAR.0>
0

>  <SCORE.INTRA.REPUL>
0

>  <SCORE.INTRA.REPUL.0>
0

>  <SCORE.INTRA.SOLV>
-0.774381

>  <SCORE.INTRA.SOLV.lig_0>
-64.5929

>  <SCORE.INTRA.VDW>
0.381003

>  <SCORE.INTRA.VDW.0>
-4.40538

>  <SCORE.INTRA.norm>
-0.114745

>  <SCORE.RESTR>
0

>  <SCORE.RESTR.CAVITY>
0

>  <SCORE.RESTR.norm>
0

>  <SCORE.SYSTEM>
0

>  <SCORE.SYSTEM.CONST>
0

>  <SCORE.SYSTEM.DIHEDRAL>
0

>  <SCORE.SYSTEM.SOLV>
0

>  <SCORE.SYSTEM.norm>
0

>  <SCORE.heavy>
31

>  <SCORE.norm>
-0.650058

>  <RMSD>
0.618

$$$$
ligand
 OpenBabel11021811493D
libRbt.so/2013.1/901 2013/11/27
 31 33  0  0  0  0  0  0  0  0999 V2000
  -19.3576  -15.8720  -12.5388 C   0  0  2  0  0  0  0  0  0  0  0  0
  -19.8819  -16.1343  -13.8322 O   0  0  0  0  0  0  0  0  0  0  0  0
  -23.5558  -15.9883  -15.9899 C   0  0  2  0  0  0  0  0  0  0  0  0
  -24.9504  -16.1047  -16.2705 N   0  0  0  0  0  0  0  0  0  0  0  0
  -25.1457  -13.1319  -14.9759 C   0  0  2  0  0  0  0  0  0  0  0  0
  -17.8369  -15.4676  -12.7291 C   0  0  2  0  0  0  0  0  0  0  0  0
  -17.7554  -14.2824  -13.5953 N   0  0  0  0  0  0  0  0  0  0  0  0
  -23.0136  -17.4138  -15.5382 C   0  0  0  0  0  0  0  0  0  0  0  0
  -25.5058  -12.2521  -16.2186 C   0  0  2  0  0  0  0  0  0  0  0  0
  -25.4057  -13.0592  -17.3681 O   0  0  0  0  0  0  0  0  0  0  0  0
  -17.0358  -16.6785  -13.3526 C   0  0  0  0  0  0  0  0  0  0  0  0
  -21.4536  -17.2868  -15.2307 C   0  0  2  0  0  0  0  0  0  0  0  0
  -20.9274  -18.6045  -14.8134 N   0  0  0  0  0  0  0  0  0  0  0  0
  -24.5141  -11.0174  -16.2921 C   0  0  1  0  0  0  0  0  0  0  0  0
  -24.8433  -10.1592  -17.4861 N   0  0  0  0  0  0  0  0  0  0  0  0
  -17.4797  -18.0741  -12.7462 C   0  0  0  0  0  0  0  0  0  0  0  0
  -21.2425  -16.2326  -14.0674 C   0  0  2  0  0  0  0  0  0  0  0  0
  -24.6731  -10.1256  -14.9406 C   0  0  1  0  0  0  0  0  0  0  0  0
  -25.9743   -9.6012  -14.7702 O   0  0  0  0  0  0  0  0  0  0  0  0
  -18.5934  -18.1826  -11.9869 C   0  0  2  0  0  0  0  0  0  0  0  0
  -19.4298  -17.0612  -11.6841 O   0  0  0  0  0  0  0  0  0  0  0  0
  -21.8051  -14.8251  -14.5260 C   0  0  2  0  0  0  0  0  0  0  0  0
  -21.6197  -13.8762  -13.4625 O   0  0  0  0  0  0  0  0  0  0  0  0
  -24.3371  -11.0268  -13.7060 C   0  0  0  0  0  0  0  0  0  0  0  0
  -25.2042  -12.2843  -13.7182 O   0  0  0  0  0  0  0  0  0  0  0  0
  -19.0508  -19.5102  -11.3842 C   0  0  0  0  0  0  0  0  0  0  0  0
  -18.8815  -19.4330   -9.9603 O   0  0  0  0  0  0  0  0  0  0  0  0
  -23.3506  -14.9459  -14.8325 C   0  0  1  0  0  0  0  0  0  0  0  0
  -23.8126  -13.6731  -15.2510 O   0  0  0  0  0  0  0  0  0  0  0  0
  -23.7475   -8.8922  -14.8702 C   0  0  0  0  0  0  0  0  0  0  0  0
  -24.2232  -10.5516  -18.7680 C   0  0  0  0  0  0  0  0  0  0  0  0
  1  2  1  6  0  0  0
  1  6  1  0  0  0  0
  1 21  1  0  0  0  0
  3  4  1  1  0  0  0
  3  8  1  0  0  0  0
  3 28  1  0  0  0  0
  5  9  1  0  0  0  0
  5 25  1  0  0  0  0
  5 29  1  6  0  0  0
  6  7  1  6  0  0  0
  6 11  1  0  0  0  0
  8 12  1  0  0  0  0
  9 10  1  6  0  0  0
  9 14  1  0  0  0  0
 11 16  1  0  0  0  0
 12 13  1  1  0  0  0
 12 17  1  0  0  0  0
 14 15  1  6  0  0  0
 14 18  1  0  0  0  0
 15 31  1  0  0  0  0
 16 20  1  0  0  0  0
 17  2  1  6  0  0  0
 17 22  1  0  0  0  0
 18 19  1  1  0  0  0
 18 24  1  0  0  0  0
 18 30  1  0  0  0  0
 20 21  1  0  0  0  0
 20 26  1  1  0  0  0
 22 23  1  1  0  0  0
 22 28  1  0  0  0  0
 24 25  1  0  0  0  0
 26 27  1  0  0  0  0
 28 29  1  6  0  0  0
M  END
>  <CHROM.1>
-165.78133177,-146.83710428,-86.12790704,-147.36879320,111.13986170,95.36695980
-22.09814136,-14.55283668,-14.39914699,-0.69170439,-0.60781936,0.10990607

>  <Name>
ligand

>  <RI>
0

>  <Rbt.Current_Directory>
/home/itssahil/PROJECTS/Mol_Feturizer/New_Systems/rnas/4GPW

>  <Rbt.Executable>
rbdock ($Id: //depot/dev/client3/rdock/2013.1/src/exe/rbdock.cxx#4 $)

>  <Rbt.Library>
libRbt.so (2013.1, Build901 2013/11/27)

>  <Rbt.Parameter_File>
/export/apps/rDock/src/rDock_2013.1_src/data/scripts/dock_solv.prm

>  <Rbt.Receptor>
prm/pocket_docking_2.prm

>  <SCORE>
-17.4904

>  <SCORE.INTER>
-16.2413

>  <SCORE.INTER.CONST>
1

>  <SCORE.INTER.POLAR>
0

>  <SCORE.INTER.ROT>
6

>  <SCORE.INTER.SOLV>
16.0712

>  <SCORE.INTER.VDW>
-23.7846

>  <SCORE.INTER.norm>
-0.523914

>  <SCORE.INTRA>
-1.25271

>  <SCORE.INTRA.DIHEDRAL>
-3.156

>  <SCORE.INTRA.DIHEDRAL.0>
19.2558

>  <SCORE.INTRA.POLAR>
0

>  <SCORE.INTRA.POLAR.0>
0

>  <SCORE.INTRA.REPUL>
0

>  <SCORE.INTRA.REPUL.0>
0

>  <SCORE.INTRA.SOLV>
-0.219105

>  <SCORE.INTRA.SOLV.lig_0>
-64.5929

>  <SCORE.INTRA.VDW>
0.434844

>  <SCORE.INTRA.VDW.0>
-4.40538

>  <SCORE.INTRA.norm>
-0.04041

>  <SCORE.RESTR>
0.00362968

>  <SCORE.RESTR.CAVITY>
0.00362968

>  <SCORE.RESTR.norm>
0.000117086

>  <SCORE.SYSTEM>
0

>  <SCORE.SYSTEM.CONST>
0

>  <SCORE.SYSTEM.DIHEDRAL>
0

>  <SCORE.SYSTEM.SOLV>
0

>  <SCORE.SYSTEM.norm>
0

>  <SCORE.heavy>
31

>  <SCORE.norm>
-0.564207

>  <RMSD>
0.621

$$$$
ligand
 OpenBabel11021811493D
libRbt.so/2013.1/901 2013/11/27
 31 33  0  0  0  0  0  0  0  0999 V2000
  -19.3235  -15.6367  -12.5874 C   0  0  2  0  0  0  0  0  0  0  0  0
  -19.8794  -16.0713  -13.8198 O   0  0  0  0  0  0  0  0  0  0  0  0
  -23.6145  -16.2241  -15.8693 C   0  0  2  0  0  0  0  0  0  0  0  0
  -25.0146  -16.3886  -16.0925 N   0  0  0  0  0  0  0  0  0  0  0  0
  -25.2013  -13.2644  -15.1227 C   0  0  2  0  0  0  0  0  0  0  0  0
  -17.8044  -15.2798  -12.8652 C   0  0  2  0  0  0  0  0  0  0  0  0
  -17.7333  -14.2282  -13.8903 N   0  0  0  0  0  0  0  0  0  0  0  0
  -23.0390  -17.5795  -15.2679 C   0  0  0  0  0  0  0  0  0  0  0  0
  -25.5161  -12.3273  -16.3356 C   0  0  2  0  0  0  0  0  0  0  0  0
  -25.4293  -13.0943  -17.5132 O   0  0  0  0  0  0  0  0  0  0  0  0
  -17.0275  -16.5748  -13.3302 C   0  0  0  0  0  0  0  0  0  0  0  0
  -21.4730  -17.3995  -15.0242 C   0  0  2  0  0  0  0  0  0  0  0  0
  -20.9161  -18.6523  -14.4693 N   0  0  0  0  0  0  0  0  0  0  0  0
  -24.4824  -11.1256  -16.3520 C   0  0  1  0  0  0  0  0  0  0  0  0
  -24.7676  -10.2130  -17.5166 N   0  0  0  0  0  0  0  0  0  0  0  0
  -17.4685  -17.8670  -12.5252 C   0  0  0  0  0  0  0  0  0  0  0  0
  -21.2446  -16.2120  -14.0011 C   0  0  2  0  0  0  0  0  0  0  0  0
  -24.6277  -10.2794  -14.9699 C   0  0  1  0  0  0  0  0  0  0  0  0
  -25.9124   -9.7173  -14.7944 O   0  0  0  0  0  0  0  0  0  0  0  0
  -18.5654  -17.8559  -11.7343 C   0  0  2  0  0  0  0  0  0  0  0  0
  -19.3856  -16.6940  -11.5734 O   0  0  0  0  0  0  0  0  0  0  0  0
  -21.8403  -14.8755  -14.6066 C   0  0  2  0  0  0  0  0  0  0  0  0
  -21.6388  -13.8047  -13.6692 O   0  0  0  0  0  0  0  0  0  0  0  0
  -24.3376  -11.2366  -13.7663 C   0  0  0  0  0  0  0  0  0  0  0  0
  -25.2466  -12.4623  -13.8349 O   0  0  0  0  0  0  0  0  0  0  0  0
  -19.0195  -19.0811  -10.9421 C   0  0  0  0  0  0  0  0  0  0  0  0
  -19.2334  -18.6756   -9.5812 O   0  0  0  0  0  0  0  0  0  0  0  0
  -23.3919  -15.0491  -14.8504 C   0  0  1  0  0  0  0  0  0  0  0  0
  -23.8841  -13.8404  -15.4031 O   0  0  0  0  0  0  0  0  0  0  0  0
  -23.6618   -9.0818  -14.8433 C   0  0  0  0  0  0  0  0  0  0  0  0
  -24.0653  -10.5204  -18.7792 C   0  0  0  0  0  0  0  0  0  0  0  0
  1  2  1  6  0  0  0
  1  6  1  0  0  0  0
  1 21  1  0  0  0  0
  3  4  1  1  0  0  0
  3  8  1  0  0  0  0
  3 28  1  0  0  0  0
  5  9  1  0  0  0  0
  5 25  1  0  0  0  0
  5 29  1  6  0  0  0
  6  7  1  6  0  0  0
  6 11  1  0  0  0  0
  8 12  1  0  0  0  0
  9 10  1  6  0  0  0
  9 14  1  0  0  0  0
 11 16  1  0  0  0  0
 12 13  1  1  0  0  0
 12 17  1  0  0  0  0
 14 15  1  6  0  0  0
 14 18  1  0  0  0  0
 15 31  1  0  0  0  0
 16 20  1  0  0  0  0
 17  2  1  6  0  0  0
 17 22  1  0  0  0  0
 18 19  1  1  0  0  0
 18 24  1  0  0  0  0
 18 30  1  0  0  0  0
 20 21  1  0  0  0  0
 20 26  1  1  0  0  0
 22 23  1  1  0  0  0
 22 28  1  0  0  0  0
 24 25  1  0  0  0  0
 26 27  1  0  0  0  0
 28 29  1  6  0  0  0
M  END
>  <CHROM.1>
-167.10256814,-157.46625396,-90.56810044,-148.08532823,129.59933707,97.32561864
-22.10375716,-14.53503954,-14.36859184,-0.70386155,-0.57232246,0.02012327

>  <Name>
ligand

>  <RI>
0

>  <Rbt.Current_Directory>
/home/itssahil/PROJECTS/Mol_Feturizer/New_Systems/rnas/4GPW

>  <Rbt.Executable>
rbdock ($Id: //depot/dev/client3/rdock/2013.1/src/exe/rbdock.cxx#4 $)

>  <Rbt.Library>
libRbt.so (2013.1, Build901 2013/11/27)

>  <Rbt.Parameter_File>
/export/apps/rDock/src/rDock_2013.1_src/data/scripts/dock_solv.prm

>  <Rbt.Receptor>
prm/pocket_docking_4.prm

>  <SCORE>
-19.1592

>  <SCORE.INTER>
-16.7365

>  <SCORE.INTER.CONST>
1

>  <SCORE.INTER.POLAR>
0

>  <SCORE.INTER.ROT>
6

>  <SCORE.INTER.SOLV>
17.125

>  <SCORE.INTER.VDW>
-24.466

>  <SCORE.INTER.norm>
-0.539887

>  <SCORE.INTRA>
-2.42275

>  <SCORE.INTRA.DIHEDRAL>
-4.91462

>  <SCORE.INTRA.DIHEDRAL.0>
19.2558

>  <SCORE.INTRA.POLAR>
0

>  <SCORE.INTRA.POLAR.0>
0

>  <SCORE.INTRA.REPUL>
0

>  <SCORE.INTRA.REPUL.0>
0

>  <SCORE.INTRA.SOLV>
-0.603141

>  <SCORE.INTRA.SOLV.lig_0>
-64.5929

>  <SCORE.INTRA.VDW>
0.336125

>  <SCORE.INTRA.VDW.0>
-4.40538

>  <SCORE.INTRA.norm>
-0.0781534

>  <SCORE.RESTR>
0

>  <SCORE.RESTR.CAVITY>
0

>  <SCORE.RESTR.norm>
0

>  <SCORE.SYSTEM>
0

>  <SCORE.SYSTEM.CONST>
0

>  <SCORE.SYSTEM.DIHEDRAL>
0

>  <SCORE.SYSTEM.SOLV>
0

>  <SCORE.SYSTEM.norm>
0

>  <SCORE.heavy>
31

>  <SCORE.norm>
-0.61804

>  <RMSD>
0.621

$$$$
ligand
 OpenBabel11021811493D
libRbt.so/2013.1/901 2013/11/27
 31 33  0  0  0  0  0  0  0  0999 V2000
  -19.3175  -15.5947  -12.6200 C   0  0  2  0  0  0  0  0  0  0  0  0
  -19.8817  -16.0221  -13.8510 O   0  0  0  0  0  0  0  0  0  0  0  0
  -23.6316  -16.2312  -15.8684 C   0  0  2  0  0  0  0  0  0  0  0  0
  -25.0322  -16.4092  -16.0781 N   0  0  0  0  0  0  0  0  0  0  0  0
  -25.2169  -13.2501  -15.1176 C   0  0  2  0  0  0  0  0  0  0  0  0
  -17.7938  -15.2599  -12.9008 C   0  0  2  0  0  0  0  0  0  0  0  0
  -17.7095  -14.2101  -13.9268 N   0  0  0  0  0  0  0  0  0  0  0  0
  -23.0413  -17.5738  -15.2528 C   0  0  0  0  0  0  0  0  0  0  0  0
  -25.5508  -12.3067  -16.3204 C   0  0  2  0  0  0  0  0  0  0  0  0
  -25.5054  -13.0727  -17.5010 O   0  0  0  0  0  0  0  0  0  0  0  0
  -17.0365  -16.5662  -13.3663 C   0  0  0  0  0  0  0  0  0  0  0  0
  -21.4748  -17.3788  -15.0241 C   0  0  2  0  0  0  0  0  0  0  0  0
  -20.9041  -18.6195  -14.4563 N   0  0  0  0  0  0  0  0  0  0  0  0
  -24.5017  -11.1189  -16.3622 C   0  0  1  0  0  0  0  0  0  0  0  0
  -24.8051  -10.2005  -17.5176 N   0  0  0  0  0  0  0  0  0  0  0  0
  -17.4946  -17.8513  -12.5595 C   0  0  0  0  0  0  0  0  0  0  0  0
  -21.2472  -16.1754  -14.0195 C   0  0  2  0  0  0  0  0  0  0  0  0
  -24.5992  -10.2733  -14.9756 C   0  0  1  0  0  0  0  0  0  0  0  0
  -25.8712   -9.6943  -14.7656 O   0  0  0  0  0  0  0  0  0  0  0  0
  -18.5898  -17.8240  -11.7666 C   0  0  2  0  0  0  0  0  0  0  0  0
  -19.3929  -16.6502  -11.6051 O   0  0  0  0  0  0  0  0  0  0  0  0
  -21.8577  -14.8520  -14.6388 C   0  0  2  0  0  0  0  0  0  0  0  0
  -21.6569  -13.7667  -13.7181 O   0  0  0  0  0  0  0  0  0  0  0  0
  -24.2905  -11.2365  -13.7814 C   0  0  0  0  0  0  0  0  0  0  0  0
  -25.2175  -12.4498  -13.8279 O   0  0  0  0  0  0  0  0  0  0  0  0
  -19.0600  -19.0419  -10.9726 C   0  0  0  0  0  0  0  0  0  0  0  0
  -19.1774  -18.6552   -9.5946 O   0  0  0  0  0  0  0  0  0  0  0  0
  -23.4099  -15.0404  -14.8679 C   0  0  1  0  0  0  0  0  0  0  0  0
  -23.9154  -13.8432  -15.4333 O   0  0  0  0  0  0  0  0  0  0  0  0
  -23.6142   -9.0891  -14.8728 C   0  0  0  0  0  0  0  0  0  0  0  0
  -24.1328  -10.5092  -18.7961 C   0  0  0  0  0  0  0  0  0  0  0  0
  1  2  1  6  0  0  0
  1  6  1  0  0  0  0
  1 21  1  0  0  0  0
  3  4  1  1  0  0  0
  3  8  1  0  0  0  0
  3 28  1  0  0  0  0
  5  9  1  0  0  0  0
  5 25  1  0  0  0  0
  5 29  1  6  0  0  0
  6  7  1  6  0  0  0
  6 11  1  0  0  0  0
  8 12  1  0  0  0  0
  9 10  1  6  0  0  0
  9 14  1  0  0  0  0
 11 16  1  0  0  0  0
 12 13  1  1  0  0  0
 12 17  1  0  0  0  0
 14 15  1  6  0  0  0
 14 18  1  0  0  0  0
 15 31  1  0  0  0  0
 16 20  1  0  0  0  0
 17  2  1  6  0  0  0
 17 22  1  0  0  0  0
 18 19  1  1  0  0  0
 18 24  1  0  0  0  0
 18 30  1  0  0  0  0
 20 21  1  0  0  0  0
 20 26  1  1  0  0  0
 22 23  1  1  0  0  0
 22 28  1  0  0  0  0
 24 25  1  0  0  0  0
 26 27  1  0  0  0  0
 28 29  1  6  0  0  0
M  END
>  <CHROM.1>
-168.75352398,-159.29210679,-91.00211028,-146.65616857,125.71177749,99.42490859
-22.10955826,-14.51722111,-14.38246230,-0.70684564,-0.56378308,0.01184535

>  <Name>
ligand

>  <RI>
0

>  <Rbt.Current_Directory>
/home/itssahil/PROJECTS/Mol_Feturizer/New_Systems/rnas/4GPW

>  <Rbt.Executable>
rbdock ($Id: //depot/dev/client3/rdock/2013.1/src/exe/rbdock.cxx#4 $)

>  <Rbt.Library>
libRbt.so (2013.1, Build901 2013/11/27)

>  <Rbt.Parameter_File>
/export/apps/rDock/src/rDock_2013.1_src/data/scripts/dock_solv.prm

>  <Rbt.Receptor>
prm/pocket_docking_4.prm

>  <SCORE>
-19.1174

>  <SCORE.INTER>
-16.6765

>  <SCORE.INTER.CONST>
1

>  <SCORE.INTER.POLAR>
0

>  <SCORE.INTER.ROT>
6

>  <SCORE.INTER.SOLV>
17.0525

>  <SCORE.INTER.VDW>
-24.4018

>  <SCORE.INTER.norm>
-0.53795

>  <SCORE.INTRA>
-2.44095

>  <SCORE.INTRA.DIHEDRAL>
-4.84836

>  <SCORE.INTRA.DIHEDRAL.0>
19.2558

>  <SCORE.INTRA.POLAR>
0

>  <SCORE.INTRA.POLAR.0>
0

>  <SCORE.INTRA.REPUL>
0

>  <SCORE.INTRA.REPUL.0>
0

>  <SCORE.INTRA.SOLV>
-0.57475

>  <SCORE.INTRA.SOLV.lig_0>
-64.5929

>  <SCORE.INTRA.VDW>
0.270606

>  <SCORE.INTRA.VDW.0>
-4.40538

>  <SCORE.INTRA.norm>
-0.0787402

>  <SCORE.RESTR>
0

>  <SCORE.RESTR.CAVITY>
0

>  <SCORE.RESTR.norm>
0

>  <SCORE.SYSTEM>
0

>  <SCORE.SYSTEM.CONST>
0

>  <SCORE.SYSTEM.DIHEDRAL>
0

>  <SCORE.SYSTEM.SOLV>
0

>  <SCORE.SYSTEM.norm>
0

>  <SCORE.heavy>
31

>  <SCORE.norm>
-0.61669

>  <RMSD>
0.621

$$$$
ligand
 OpenBabel11021811493D
libRbt.so/2013.1/901 2013/11/27
 31 33  0  0  0  0  0  0  0  0999 V2000
  -19.3088  -15.5798  -12.7564 C   0  0  2  0  0  0  0  0  0  0  0  0
  -19.8770  -16.2498  -13.8721 O   0  0  0  0  0  0  0  0  0  0  0  0
  -23.6336  -16.2734  -15.8875 C   0  0  2  0  0  0  0  0  0  0  0  0
  -25.0386  -16.4056  -16.1014 N   0  0  0  0  0  0  0  0  0  0  0  0
  -25.1721  -13.3257  -15.0661 C   0  0  2  0  0  0  0  0  0  0  0  0
  -17.7775  -15.3423  -13.0898 C   0  0  2  0  0  0  0  0  0  0  0  0
  -17.6676  -14.5382  -14.3158 N   0  0  0  0  0  0  0  0  0  0  0  0
  -23.0777  -17.6563  -15.3323 C   0  0  0  0  0  0  0  0  0  0  0  0
  -25.4954  -12.3988  -16.2844 C   0  0  2  0  0  0  0  0  0  0  0  0
  -25.4119  -13.1743  -17.4567 O   0  0  0  0  0  0  0  0  0  0  0  0
  -17.0454  -16.7323  -13.2590 C   0  0  0  0  0  0  0  0  0  0  0  0
  -21.5063  -17.5123  -15.0992 C   0  0  2  0  0  0  0  0  0  0  0  0
  -20.9675  -18.7909  -14.5871 N   0  0  0  0  0  0  0  0  0  0  0  0
  -24.4652  -11.1942  -16.3148 C   0  0  1  0  0  0  0  0  0  0  0  0
  -24.7587  -10.2912  -17.4849 N   0  0  0  0  0  0  0  0  0  0  0  0
  -17.5330  -17.8060  -12.1998 C   0  0  0  0  0  0  0  0  0  0  0  0
  -21.2462  -16.3601  -14.0437 C   0  0  2  0  0  0  0  0  0  0  0  0
  -24.6064  -10.3380  -14.9384 C   0  0  1  0  0  0  0  0  0  0  0  0
  -25.8919   -9.7783  -14.7610 O   0  0  0  0  0  0  0  0  0  0  0  0
  -18.6304  -17.5885  -11.4401 C   0  0  2  0  0  0  0  0  0  0  0  0
  -19.4098  -16.3921  -11.5399 O   0  0  0  0  0  0  0  0  0  0  0  0
  -21.8228  -14.9955  -14.6035 C   0  0  2  0  0  0  0  0  0  0  0  0
  -21.5926  -13.9569  -13.6370 O   0  0  0  0  0  0  0  0  0  0  0  0
  -24.3078  -11.2853  -13.7291 C   0  0  0  0  0  0  0  0  0  0  0  0
  -25.2135  -12.5141  -13.7842 O   0  0  0  0  0  0  0  0  0  0  0  0
  -19.1286  -18.5991  -10.4079 C   0  0  0  0  0  0  0  0  0  0  0  0
  -20.2216  -19.3262  -10.9902 O   0  0  0  0  0  0  0  0  0  0  0  0
  -23.3796  -15.1334  -14.8367 C   0  0  1  0  0  0  0  0  0  0  0  0
  -23.8545  -13.9000  -15.3484 O   0  0  0  0  0  0  0  0  0  0  0  0
  -23.6434   -9.1368  -14.8255 C   0  0  0  0  0  0  0  0  0  0  0  0
  -24.1573  -10.6756  -18.7781 C   0  0  0  0  0  0  0  0  0  0  0  0
  1  2  1  6  0  0  0
  1  6  1  0  0  0  0
  1 21  1  0  0  0  0
  3  4  1  1  0  0  0
  3  8  1  0  0  0  0
  3 28  1  0  0  0  0
  5  9  1  0  0  0  0
  5 25  1  0  0  0  0
  5 29  1  6  0  0  0
  6  7  1  6  0  0  0
  6 11  1  0  0  0  0
  8 12  1  0  0  0  0
  9 10  1  6  0  0  0
  9 14  1  0  0  0  0
 11 16  1  0  0  0  0
 12 13  1  1  0  0  0
 12 17  1  0  0  0  0
 14 15  1  6  0  0  0
 14 18  1  0  0  0  0
 15 31  1  0  0  0  0
 16 20  1  0  0  0  0
 17  2  1  6  0  0  0
 17 22  1  0  0  0  0
 18 19  1  1  0  0  0
 18 24  1  0  0  0  0
 18 30  1  0  0  0  0
 20 21  1  0  0  0  0
 20 26  1  1  0  0  0
 22 23  1  1  0  0  0
 22 28  1  0  0  0  0
 24 25  1  0  0  0  0
 26 27  1  0  0  0  0
 28 29  1  6  0  0  0
M  END
>  <CHROM.1>
-165.97248620,-154.45201049,-85.28336877,-162.79921143,-100.21760754,95.61936017
-22.14296091,-14.60024881,-14.40071232,-0.72859652,-0.54230521,-0.00201203

>  <Name>
ligand

>  <RI>
0

>  <Rbt.Current_Directory>
/home/itssahil/PROJECTS/Mol_Feturizer/New_Systems/rnas/4GPW

>  <Rbt.Executable>
rbdock ($Id: //depot/dev/client3/rdock/2013.1/src/exe/rbdock.cxx#4 $)

>  <Rbt.Library>
libRbt.so (2013.1, Build901 2013/11/27)

>  <Rbt.Parameter_File>
/export/apps/rDock/src/rDock_2013.1_src/data/scripts/dock_solv.prm

>  <Rbt.Receptor>
prm/pocket_docking_2.prm

>  <SCORE>
-20.086

>  <SCORE.INTER>
-16.6704

>  <SCORE.INTER.CONST>
1

>  <SCORE.INTER.POLAR>
0

>  <SCORE.INTER.ROT>
6

>  <SCORE.INTER.SOLV>
16.7661

>  <SCORE.INTER.VDW>
-24.3023

>  <SCORE.INTER.norm>
-0.537755

>  <SCORE.INTRA>
-3.41562

>  <SCORE.INTRA.DIHEDRAL>
-6.94529

>  <SCORE.INTRA.DIHEDRAL.0>
19.2558

>  <SCORE.INTRA.POLAR>
0

>  <SCORE.INTRA.POLAR.0>
0

>  <SCORE.INTRA.REPUL>
0

>  <SCORE.INTRA.REPUL.0>
0

>  <SCORE.INTRA.SOLV>
-1.12625

>  <SCORE.INTRA.SOLV.lig_0>
-64.5929

>  <SCORE.INTRA.VDW>
0.620151

>  <SCORE.INTRA.VDW.0>
-4.40538

>  <SCORE.INTRA.norm>
-0.110181

>  <SCORE.RESTR>
0

>  <SCORE.RESTR.CAVITY>
0

>  <SCORE.RESTR.norm>
0

>  <SCORE.SYSTEM>
0

>  <SCORE.SYSTEM.CONST>
0

>  <SCORE.SYSTEM.DIHEDRAL>
0

>  <SCORE.SYSTEM.SOLV>
0

>  <SCORE.SYSTEM.norm>
0

>  <SCORE.heavy>
31

>  <SCORE.norm>
-0.647936

>  <RMSD>
0.623

$$$$
ligand
 OpenBabel11021811493D
libRbt.so/2013.1/901 2013/11/27
 31 33  0  0  0  0  0  0  0  0999 V2000
  -19.2746  -15.5976  -12.7840 C   0  0  2  0  0  0  0  0  0  0  0  0
  -19.8584  -16.2431  -13.9061 O   0  0  0  0  0  0  0  0  0  0  0  0
  -23.6390  -16.2702  -15.8762 C   0  0  2  0  0  0  0  0  0  0  0  0
  -25.0468  -16.3999  -16.0722 N   0  0  0  0  0  0  0  0  0  0  0  0
  -25.1626  -13.3165  -15.0638 C   0  0  2  0  0  0  0  0  0  0  0  0
  -17.7368  -15.3992  -13.1126 C   0  0  2  0  0  0  0  0  0  0  0  0
  -17.6025  -14.5887  -14.3320 N   0  0  0  0  0  0  0  0  0  0  0  0
  -23.0803  -17.6508  -15.3178 C   0  0  0  0  0  0  0  0  0  0  0  0
  -25.5019  -12.4112  -16.2941 C   0  0  2  0  0  0  0  0  0  0  0  0
  -25.4297  -13.2064  -17.4538 O   0  0  0  0  0  0  0  0  0  0  0  0
  -17.0423  -16.8071  -13.2914 C   0  0  0  0  0  0  0  0  0  0  0  0
  -21.5059  -17.5096  -15.1046 C   0  0  2  0  0  0  0  0  0  0  0  0
  -20.9645  -18.7861  -14.5901 N   0  0  0  0  0  0  0  0  0  0  0  0
  -24.4751  -11.2049  -16.3566 C   0  0  1  0  0  0  0  0  0  0  0  0
  -24.7840  -10.3227  -17.5385 N   0  0  0  0  0  0  0  0  0  0  0  0
  -17.5611  -17.8755  -12.2417 C   0  0  0  0  0  0  0  0  0  0  0  0
  -21.2299  -16.3507  -14.0606 C   0  0  2  0  0  0  0  0  0  0  0  0
  -24.6030  -10.3257  -14.9935 C   0  0  1  0  0  0  0  0  0  0  0  0
  -25.8878   -9.7660  -14.8111 O   0  0  0  0  0  0  0  0  0  0  0  0
  -18.6538  -17.6343  -11.4825 C   0  0  2  0  0  0  0  0  0  0  0  0
  -19.4003  -16.4165  -11.5742 O   0  0  0  0  0  0  0  0  0  0  0  0
  -21.8094  -14.9885  -14.6230 C   0  0  2  0  0  0  0  0  0  0  0  0
  -21.5647  -13.9438  -13.6667 O   0  0  0  0  0  0  0  0  0  0  0  0
  -24.2884  -11.2516  -13.7716 C   0  0  0  0  0  0  0  0  0  0  0  0
  -25.1916  -12.4833  -13.7956 O   0  0  0  0  0  0  0  0  0  0  0  0
  -19.1814  -18.6391  -10.4593 C   0  0  0  0  0  0  0  0  0  0  0  0
  -20.3145  -19.3066  -11.0361 O   0  0  0  0  0  0  0  0  0  0  0  0
  -23.3693  -15.1236  -14.8366 C   0  0  1  0  0  0  0  0  0  0  0  0
  -23.8468  -13.8925  -15.3512 O   0  0  0  0  0  0  0  0  0  0  0  0
  -23.6418   -9.1206  -14.9119 C   0  0  0  0  0  0  0  0  0  0  0  0
  -24.0713  -10.6338  -18.7943 C   0  0  0  0  0  0  0  0  0  0  0  0
  1  2  1  6  0  0  0
  1  6  1  0  0  0  0
  1 21  1  0  0  0  0
  3  4  1  1  0  0  0
  3  8  1  0  0  0  0
  3 28  1  0  0  0  0
  5  9  1  0  0  0  0
  5 25  1  0  0  0  0
  5 29  1  6  0  0  0
  6  7  1  6  0  0  0
  6 11  1  0  0  0  0
  8 12  1  0  0  0  0
  9 10  1  6  0  0  0
  9 14  1  0  0  0  0
 11 16  1  0  0  0  0
 12 13  1  1  0  0  0
 12 17  1  0  0  0  0
 14 15  1  6  0  0  0
 14 18  1  0  0  0  0
 15 31  1  0  0  0  0
 16 20  1  0  0  0  0
 17  2  1  6  0  0  0
 17 22  1  0  0  0  0
 18 19  1  1  0  0  0
 18 24  1  0  0  0  0
 18 30  1  0  0  0  0
 20 21  1  0  0  0  0
 20 26  1  1  0  0  0
 22 23  1  1  0  0  0
 22 28  1  0  0  0  0
 24 25  1  0  0  0  0
 26 27  1  0  0  0  0
 28 29  1  6  0  0  0
M  END
>  <CHROM.1>
-167.99413174,-153.66489910,-92.24574680,-161.10479253,-101.72460151,95.21664967
-22.13911893,-14.60665377,-14.42460955,-0.74588912,-0.52181310,-0.02732746

>  <Name>
ligand

>  <RI>
0

>  <Rbt.Current_Directory>
/home/itssahil/PROJECTS/Mol_Feturizer/New_Systems/rnas/4GPW

>  <Rbt.Executable>
rbdock ($Id: //depot/dev/client3/rdock/2013.1/src/exe/rbdock.cxx#4 $)

>  <Rbt.Library>
libRbt.so (2013.1, Build901 2013/11/27)

>  <Rbt.Parameter_File>
/export/apps/rDock/src/rDock_2013.1_src/data/scripts/dock_solv.prm

>  <Rbt.Receptor>
prm/pocket_docking_3.prm

>  <SCORE>
-20.1283

>  <SCORE.INTER>
-16.7008

>  <SCORE.INTER.CONST>
1

>  <SCORE.INTER.POLAR>
0

>  <SCORE.INTER.ROT>
6

>  <SCORE.INTER.SOLV>
16.7225

>  <SCORE.INTER.VDW>
-24.308

>  <SCORE.INTER.norm>
-0.538735

>  <SCORE.INTRA>
-3.42754

>  <SCORE.INTRA.DIHEDRAL>
-6.70064

>  <SCORE.INTRA.DIHEDRAL.0>
19.2558

>  <SCORE.INTRA.POLAR>
0

>  <SCORE.INTRA.POLAR.0>
0

>  <SCORE.INTRA.REPUL>
0

>  <SCORE.INTRA.REPUL.0>
0

>  <SCORE.INTRA.SOLV>
-0.959138

>  <SCORE.INTRA.SOLV.lig_0>
-64.5929

>  <SCORE.INTRA.VDW>
0.402349

>  <SCORE.INTRA.VDW.0>
-4.40538

>  <SCORE.INTRA.norm>
-0.110566

>  <SCORE.RESTR>
0

>  <SCORE.RESTR.CAVITY>
0

>  <SCORE.RESTR.norm>
0

>  <SCORE.SYSTEM>
0

>  <SCORE.SYSTEM.CONST>
0

>  <SCORE.SYSTEM.DIHEDRAL>
0

>  <SCORE.SYSTEM.SOLV>
0

>  <SCORE.SYSTEM.norm>
0

>  <SCORE.heavy>
31

>  <SCORE.norm>
-0.6493

>  <RMSD>
0.624

$$$$
ligand
 OpenBabel11021811493D
libRbt.so/2013.1/901 2013/11/27
 31 33  0  0  0  0  0  0  0  0999 V2000
  -19.1681  -15.5421  -12.7502 C   0  0  2  0  0  0  0  0  0  0  0  0
  -19.7765  -16.1458  -13.8825 O   0  0  0  0  0  0  0  0  0  0  0  0
  -23.5653  -15.8762  -15.8182 C   0  0  2  0  0  0  0  0  0  0  0  0
  -24.9771  -15.9471  -16.0156 N   0  0  0  0  0  0  0  0  0  0  0  0
  -25.0351  -13.0102  -14.7909 C   0  0  2  0  0  0  0  0  0  0  0  0
  -17.6214  -15.4107  -13.0710 C   0  0  2  0  0  0  0  0  0  0  0  0
  -17.4450  -14.5920  -14.2795 N   0  0  0  0  0  0  0  0  0  0  0  0
  -23.0434  -17.3195  -15.4007 C   0  0  0  0  0  0  0  0  0  0  0  0
  -25.4266  -12.2011  -16.0717 C   0  0  2  0  0  0  0  0  0  0  0  0
  -25.3426  -13.0682  -17.1779 O   0  0  0  0  0  0  0  0  0  0  0  0
  -16.9919  -16.8468  -13.2653 C   0  0  0  0  0  0  0  0  0  0  0  0
  -21.4646  -17.2435  -15.1863 C   0  0  2  0  0  0  0  0  0  0  0  0
  -20.9572  -18.5785  -14.8022 N   0  0  0  0  0  0  0  0  0  0  0  0
  -24.4466  -10.9653  -16.2312 C   0  0  1  0  0  0  0  0  0  0  0  0
  -24.8061  -10.1749  -17.4627 N   0  0  0  0  0  0  0  0  0  0  0  0
  -17.5636  -17.9032  -12.2310 C   0  0  0  0  0  0  0  0  0  0  0  0
  -21.1511  -16.1998  -14.0366 C   0  0  2  0  0  0  0  0  0  0  0  0
  -24.5863  -10.0031  -14.9266 C   0  0  1  0  0  0  0  0  0  0  0  0
  -25.8882   -9.4794  -14.7586 O   0  0  0  0  0  0  0  0  0  0  0  0
  -18.6471  -17.6214  -11.4726 C   0  0  2  0  0  0  0  0  0  0  0  0
  -19.3363  -16.3693  -11.5514 O   0  0  0  0  0  0  0  0  0  0  0  0
  -21.6944  -14.7738  -14.4598 C   0  0  2  0  0  0  0  0  0  0  0  0
  -21.4159  -13.8343  -13.4083 O   0  0  0  0  0  0  0  0  0  0  0  0
  -24.2189  -10.8341  -13.6524 C   0  0  0  0  0  0  0  0  0  0  0  0
  -25.0758  -12.0966  -13.5796 O   0  0  0  0  0  0  0  0  0  0  0  0
  -19.2246  -18.6136  -10.4641 C   0  0  0  0  0  0  0  0  0  0  0  0
  -20.3735  -19.2350  -11.0608 O   0  0  0  0  0  0  0  0  0  0  0  0
  -23.2585  -14.8441  -14.6741 C   0  0  1  0  0  0  0  0  0  0  0  0
  -23.7034  -13.5560  -15.0632 O   0  0  0  0  0  0  0  0  0  0  0  0
  -23.6695   -8.7612  -14.9411 C   0  0  0  0  0  0  0  0  0  0  0  0
  -24.1547  -10.5889  -18.7221 C   0  0  0  0  0  0  0  0  0  0  0  0
  1  2  1  6  0  0  0
  1  6  1  0  0  0  0
  1 21  1  0  0  0  0
  3  4  1  1  0  0  0
  3  8  1  0  0  0  0
  3 28  1  0  0  0  0
  5  9  1  0  0  0  0
  5 25  1  0  0  0  0
  5 29  1  6  0  0  0
  6  7  1  6  0  0  0
  6 11  1  0  0  0  0
  8 12  1  0  0  0  0
  9 10  1  6  0  0  0
  9 14  1  0  0  0  0
 11 16  1  0  0  0  0
 12 13  1  1  0  0  0
 12 17  1  0  0  0  0
 14 15  1  6  0  0  0
 14 18  1  0  0  0  0
 15 31  1  0  0  0  0
 16 20  1  0  0  0  0
 17  2  1  6  0  0  0
 17 22  1  0  0  0  0
 18 19  1  1  0  0  0
 18 24  1  0  0  0  0
 18 30  1  0  0  0  0
 20 21  1  0  0  0  0
 20 26  1  1  0  0  0
 22 23  1  1  0  0  0
 22 28  1  0  0  0  0
 24 25  1  0  0  0  0
 26 27  1  0  0  0  0
 28 29  1  6  0  0  0
M  END
>  <CHROM.1>
-168.64668418,-141.70615232,-89.12801888,-165.72480206,-100.89562921,90.75082158
-22.08491635,-14.41937558,-14.34890587,-0.74056304,-0.54073615,0.02431676

>  <Name>
ligand

>  <RI>
0

>  <Rbt.Current_Directory>
/home/itssahil/PROJECTS/Mol_Feturizer/New_Systems/rnas/4GPW

>  <Rbt.Executable>
rbdock ($Id: //depot/dev/client3/rdock/2013.1/src/exe/rbdock.cxx#4 $)

>  <Rbt.Library>
libRbt.so (2013.1, Build901 2013/11/27)

>  <Rbt.Parameter_File>
/export/apps/rDock/src/rDock_2013.1_src/data/scripts/dock_solv.prm

>  <Rbt.Receptor>
prm/pocket_docking_7.prm

>  <SCORE>
-20.1073

>  <SCORE.INTER>
-17.1466

>  <SCORE.INTER.CONST>
1

>  <SCORE.INTER.POLAR>
0

>  <SCORE.INTER.ROT>
6

>  <SCORE.INTER.SOLV>
16.538

>  <SCORE.INTER.VDW>
-24.5437

>  <SCORE.INTER.norm>
-0.553116

>  <SCORE.INTRA>
-2.96076

>  <SCORE.INTRA.DIHEDRAL>
-6.1228

>  <SCORE.INTRA.DIHEDRAL.0>
19.2558

>  <SCORE.INTRA.POLAR>
0

>  <SCORE.INTRA.POLAR.0>
0

>  <SCORE.INTRA.REPUL>
0

>  <SCORE.INTRA.REPUL.0>
0

>  <SCORE.INTRA.SOLV>
-1.04748

>  <SCORE.INTRA.SOLV.lig_0>
-64.5929

>  <SCORE.INTRA.VDW>
0.624378

>  <SCORE.INTRA.VDW.0>
-4.40538

>  <SCORE.INTRA.norm>
-0.0955084

>  <SCORE.RESTR>
0

>  <SCORE.RESTR.CAVITY>
0

>  <SCORE.RESTR.norm>
0

>  <SCORE.SYSTEM>
0

>  <SCORE.SYSTEM.CONST>
0

>  <SCORE.SYSTEM.DIHEDRAL>
0

>  <SCORE.SYSTEM.SOLV>
0

>  <SCORE.SYSTEM.norm>
0

>  <SCORE.heavy>
31

>  <SCORE.norm>
-0.648624

>  <RMSD>
0.625

$$$$
ligand
 OpenBabel11021811493D
libRbt.so/2013.1/901 2013/11/27
 31 33  0  0  0  0  0  0  0  0999 V2000
  -19.3274  -15.6173  -12.5679 C   0  0  2  0  0  0  0  0  0  0  0  0
  -19.8659  -16.0215  -13.8182 O   0  0  0  0  0  0  0  0  0  0  0  0
  -23.5772  -16.0279  -15.9160 C   0  0  2  0  0  0  0  0  0  0  0  0
  -24.9746  -16.1757  -16.1662 N   0  0  0  0  0  0  0  0  0  0  0  0
  -25.1751  -13.1292  -14.9838 C   0  0  2  0  0  0  0  0  0  0  0  0
  -17.7980  -15.2788  -12.8105 C   0  0  2  0  0  0  0  0  0  0  0  0
  -17.6915  -14.2105  -13.8151 N   0  0  0  0  0  0  0  0  0  0  0  0
  -23.0082  -17.4226  -15.4051 C   0  0  0  0  0  0  0  0  0  0  0  0
  -25.5418  -12.2268  -16.2083 C   0  0  2  0  0  0  0  0  0  0  0  0
  -25.4685  -13.0182  -17.3707 O   0  0  0  0  0  0  0  0  0  0  0  0
  -17.0318  -16.5771  -13.2839 C   0  0  0  0  0  0  0  0  0  0  0  0
  -21.4451  -17.2609  -15.1314 C   0  0  2  0  0  0  0  0  0  0  0  0
  -20.8941  -18.5498  -14.6599 N   0  0  0  0  0  0  0  0  0  0  0  0
  -24.5356  -11.0037  -16.2784 C   0  0  1  0  0  0  0  0  0  0  0  0
  -24.8710  -10.1241  -17.4549 N   0  0  0  0  0  0  0  0  0  0  0  0
  -17.5074  -17.8764  -12.5106 C   0  0  0  0  0  0  0  0  0  0  0  0
  -21.2289  -16.1485  -14.0246 C   0  0  2  0  0  0  0  0  0  0  0  0
  -24.6639  -10.1298  -14.9119 C   0  0  1  0  0  0  0  0  0  0  0  0
  -25.9557   -9.5917  -14.7151 O   0  0  0  0  0  0  0  0  0  0  0  0
  -18.6190  -17.8625  -11.7405 C   0  0  2  0  0  0  0  0  0  0  0  0
  -19.4247  -16.6911  -11.5743 O   0  0  0  0  0  0  0  0  0  0  0  0
  -21.8182  -14.7724  -14.5411 C   0  0  2  0  0  0  0  0  0  0  0  0
  -21.6279  -13.7705  -13.5284 O   0  0  0  0  0  0  0  0  0  0  0  0
  -24.3216  -11.0531  -13.6956 C   0  0  0  0  0  0  0  0  0  0  0  0
  -25.2047  -12.2994  -13.7133 O   0  0  0  0  0  0  0  0  0  0  0  0
  -19.1064  -19.0944  -10.9791 C   0  0  0  0  0  0  0  0  0  0  0  0
  -19.1656  -18.7593   -9.5840 O   0  0  0  0  0  0  0  0  0  0  0  0
  -23.3668  -14.9277  -14.8144 C   0  0  1  0  0  0  0  0  0  0  0  0
  -23.8531  -13.6829  -15.2860 O   0  0  0  0  0  0  0  0  0  0  0  0
  -23.7217   -8.9092  -14.8372 C   0  0  0  0  0  0  0  0  0  0  0  0
  -24.2414  -10.4811  -18.7425 C   0  0  0  0  0  0  0  0  0  0  0  0
  1  2  1  6  0  0  0
  1  6  1  0  0  0  0
  1 21  1  0  0  0  0
  3  4  1  1  0  0  0
  3  8  1  0  0  0  0
  3 28  1  0  0  0  0
  5  9  1  0  0  0  0
  5 25  1  0  0  0  0
  5 29  1  6  0  0  0
  6  7  1  6  0  0  0
  6 11  1  0  0  0  0
  8 12  1  0  0  0  0
  9 10  1  6  0  0  0
  9 14  1  0  0  0  0
 11 16  1  0  0  0  0
 12 13  1  1  0  0  0
 12 17  1  0  0  0  0
 14 15  1  6  0  0  0
 14 18  1  0  0  0  0
 15 31  1  0  0  0  0
 16 20  1  0  0  0  0
 17  2  1  6  0  0  0
 17 22  1  0  0  0  0
 18 19  1  1  0  0  0
 18 24  1  0  0  0  0
 18 30  1  0  0  0  0
 20 21  1  0  0  0  0
 20 26  1  1  0  0  0
 22 23  1  1  0  0  0
 22 28  1  0  0  0  0
 24 25  1  0  0  0  0
 26 27  1  0  0  0  0
 28 29  1  6  0  0  0
M  END
>  <CHROM.1>
-167.63539168,-151.49365358,-87.94114494,-150.94582923,121.86160065,97.15113594
-22.11316658,-14.45160480,-14.33931376,-0.67516363,-0.60797332,0.09019682

>  <Name>
ligand

>  <RI>
0

>  <Rbt.Current_Directory>
/home/itssahil/PROJECTS/Mol_Feturizer/New_Systems/rnas/4GPW

>  <Rbt.Executable>
rbdock ($Id: //depot/dev/client3/rdock/2013.1/src/exe/rbdock.cxx#4 $)

>  <Rbt.Library>
libRbt.so (2013.1, Build901 2013/11/27)

>  <Rbt.Parameter_File>
/export/apps/rDock/src/rDock_2013.1_src/data/scripts/dock_solv.prm

>  <Rbt.Receptor>
prm/pocket_docking_5.prm

>  <SCORE>
-19.1586

>  <SCORE.INTER>
-16.973

>  <SCORE.INTER.CONST>
1

>  <SCORE.INTER.POLAR>
0

>  <SCORE.INTER.ROT>
6

>  <SCORE.INTER.SOLV>
17.1715

>  <SCORE.INTER.VDW>
-24.6392

>  <SCORE.INTER.norm>
-0.547517

>  <SCORE.INTRA>
-2.18555

>  <SCORE.INTRA.DIHEDRAL>
-4.65011

>  <SCORE.INTRA.DIHEDRAL.0>
19.2558

>  <SCORE.INTRA.POLAR>
0

>  <SCORE.INTRA.POLAR.0>
0

>  <SCORE.INTRA.REPUL>
0

>  <SCORE.INTRA.REPUL.0>
0

>  <SCORE.INTRA.SOLV>
-0.616345

>  <SCORE.INTRA.SOLV.lig_0>
-64.5929

>  <SCORE.INTRA.VDW>
0.44768

>  <SCORE.INTRA.VDW.0>
-4.40538

>  <SCORE.INTRA.norm>
-0.0705015

>  <SCORE.RESTR>
0

>  <SCORE.RESTR.CAVITY>
0

>  <SCORE.RESTR.norm>
0

>  <SCORE.SYSTEM>
0

>  <SCORE.SYSTEM.CONST>
0

>  <SCORE.SYSTEM.DIHEDRAL>
0

>  <SCORE.SYSTEM.SOLV>
0

>  <SCORE.SYSTEM.norm>
0

>  <SCORE.heavy>
31

>  <SCORE.norm>
-0.618018

>  <RMSD>
0.626

$$$$
ligand
 OpenBabel11021811493D
libRbt.so/2013.1/901 2013/11/27
 31 33  0  0  0  0  0  0  0  0999 V2000
  -19.3554  -15.6461  -12.6263 C   0  0  2  0  0  0  0  0  0  0  0  0
  -19.8909  -16.0803  -13.8678 O   0  0  0  0  0  0  0  0  0  0  0  0
  -23.5833  -15.8888  -15.9901 C   0  0  2  0  0  0  0  0  0  0  0  0
  -24.9815  -15.9905  -16.2581 N   0  0  0  0  0  0  0  0  0  0  0  0
  -25.1394  -13.0260  -14.9562 C   0  0  2  0  0  0  0  0  0  0  0  0
  -17.8259  -15.3119  -12.8736 C   0  0  2  0  0  0  0  0  0  0  0  0
  -17.7183  -14.2674  -13.9028 N   0  0  0  0  0  0  0  0  0  0  0  0
  -23.0507  -17.3215  -15.5501 C   0  0  0  0  0  0  0  0  0  0  0  0
  -25.5100  -12.1615  -16.2067 C   0  0  2  0  0  0  0  0  0  0  0  0
  -25.4243  -12.9839  -17.3464 O   0  0  0  0  0  0  0  0  0  0  0  0
  -17.0574  -16.6201  -13.3146 C   0  0  0  0  0  0  0  0  0  0  0  0
  -21.4867  -17.2110  -15.2568 C   0  0  2  0  0  0  0  0  0  0  0  0
  -20.9694  -18.5357  -14.8506 N   0  0  0  0  0  0  0  0  0  0  0  0
  -24.5155  -10.9309  -16.3068 C   0  0  1  0  0  0  0  0  0  0  0  0
  -24.8548  -10.0875  -17.5085 N   0  0  0  0  0  0  0  0  0  0  0  0
  -17.5334  -17.9013  -12.5119 C   0  0  0  0  0  0  0  0  0  0  0  0
  -21.2546  -16.1644  -14.0907 C   0  0  2  0  0  0  0  0  0  0  0  0
  -24.6578  -10.0209  -14.9656 C   0  0  1  0  0  0  0  0  0  0  0  0
  -25.9556   -9.4903  -14.7886 O   0  0  0  0  0  0  0  0  0  0  0  0
  -18.6466  -17.8705  -11.7447 C   0  0  2  0  0  0  0  0  0  0  0  0
  -19.4538  -16.6964  -11.6079 O   0  0  0  0  0  0  0  0  0  0  0  0
  -21.8078  -14.7494  -14.5374 C   0  0  2  0  0  0  0  0  0  0  0  0
  -21.6033  -13.8074  -13.4714 O   0  0  0  0  0  0  0  0  0  0  0  0
  -24.3114  -10.9067  -13.7229 C   0  0  0  0  0  0  0  0  0  0  0  0
  -25.1822  -12.1617  -13.7093 O   0  0  0  0  0  0  0  0  0  0  0  0
  -19.1345  -19.0846  -10.9555 C   0  0  0  0  0  0  0  0  0  0  0  0
  -19.2131  -18.7117   -9.5709 O   0  0  0  0  0  0  0  0  0  0  0  0
  -23.3573  -14.8538  -14.8299 C   0  0  1  0  0  0  0  0  0  0  0  0
  -23.8109  -13.5747  -15.2381 O   0  0  0  0  0  0  0  0  0  0  0  0
  -23.7279   -8.7894  -14.9213 C   0  0  0  0  0  0  0  0  0  0  0  0
  -24.2321  -10.4858  -18.7874 C   0  0  0  0  0  0  0  0  0  0  0  0
  1  2  1  6  0  0  0
  1  6  1  0  0  0  0
  1 21  1  0  0  0  0
  3  4  1  1  0  0  0
  3  8  1  0  0  0  0
  3 28  1  0  0  0  0
  5  9  1  0  0  0  0
  5 25  1  0  0  0  0
  5 29  1  6  0  0  0
  6  7  1  6  0  0  0
  6 11  1  0  0  0  0
  8 12  1  0  0  0  0
  9 10  1  6  0  0  0
  9 14  1  0  0  0  0
 11 16  1  0  0  0  0
 12 13  1  1  0  0  0
 12 17  1  0  0  0  0
 14 15  1  6  0  0  0
 14 18  1  0  0  0  0
 15 31  1  0  0  0  0
 16 20  1  0  0  0  0
 17  2  1  6  0  0  0
 17 22  1  0  0  0  0
 18 19  1  1  0  0  0
 18 24  1  0  0  0  0
 18 30  1  0  0  0  0
 20 21  1  0  0  0  0
 20 26  1  1  0  0  0
 22 23  1  1  0  0  0
 22 28  1  0  0  0  0
 24 25  1  0  0  0  0
 26 27  1  0  0  0  0
 28 29  1  6  0  0  0
M  END
>  <CHROM.1>
-165.09945577,-145.54427372,-87.07283354,-156.38741227,122.57542741,94.90098519
-22.11971928,-14.40790528,-14.37677008,-0.65892965,-0.64005224,0.13454212

>  <Name>
ligand

>  <RI>
0

>  <Rbt.Current_Directory>
/home/itssahil/PROJECTS/Mol_Feturizer/New_Systems/rnas/4GPW

>  <Rbt.Executable>
rbdock ($Id: //depot/dev/client3/rdock/2013.1/src/exe/rbdock.cxx#4 $)

>  <Rbt.Library>
libRbt.so (2013.1, Build901 2013/11/27)

>  <Rbt.Parameter_File>
/export/apps/rDock/src/rDock_2013.1_src/data/scripts/dock_solv.prm

>  <Rbt.Receptor>
prm/pocket_docking_3.prm

>  <SCORE>
-19.0747

>  <SCORE.INTER>
-16.9315

>  <SCORE.INTER.CONST>
1

>  <SCORE.INTER.POLAR>
0

>  <SCORE.INTER.ROT>
6

>  <SCORE.INTER.SOLV>
16.8625

>  <SCORE.INTER.VDW>
-24.5085

>  <SCORE.INTER.norm>
-0.546176

>  <SCORE.INTRA>
-2.14327

>  <SCORE.INTRA.DIHEDRAL>
-4.65124

>  <SCORE.INTRA.DIHEDRAL.0>
19.2558

>  <SCORE.INTRA.POLAR>
0

>  <SCORE.INTRA.POLAR.0>
0

>  <SCORE.INTRA.REPUL>
0

>  <SCORE.INTRA.REPUL.0>
0

>  <SCORE.INTRA.SOLV>
-0.789942

>  <SCORE.INTRA.SOLV.lig_0>
-64.5929

>  <SCORE.INTRA.VDW>
0.577316

>  <SCORE.INTRA.VDW.0>
-4.40538

>  <SCORE.INTRA.norm>
-0.0691379

>  <SCORE.RESTR>
0

>  <SCORE.RESTR.CAVITY>
0

>  <SCORE.RESTR.norm>
0

>  <SCORE.SYSTEM>
0

>  <SCORE.SYSTEM.CONST>
0

>  <SCORE.SYSTEM.DIHEDRAL>
0

>  <SCORE.SYSTEM.SOLV>
0

>  <SCORE.SYSTEM.norm>
0

>  <SCORE.heavy>
31

>  <SCORE.norm>
-0.615314

>  <RMSD>
0.629

$$$$
ligand
 OpenBabel11021811493D
libRbt.so/2013.1/901 2013/11/27
 31 33  0  0  0  0  0  0  0  0999 V2000
  -19.2025  -15.5252  -12.7757 C   0  0  2  0  0  0  0  0  0  0  0  0
  -19.7891  -16.1386  -13.9142 O   0  0  0  0  0  0  0  0  0  0  0  0
  -23.5743  -16.0520  -15.8736 C   0  0  2  0  0  0  0  0  0  0  0  0
  -24.9827  -16.1695  -16.0733 N   0  0  0  0  0  0  0  0  0  0  0  0
  -25.1114  -13.1686  -14.9328 C   0  0  2  0  0  0  0  0  0  0  0  0
  -17.6581  -15.3518  -13.0876 C   0  0  2  0  0  0  0  0  0  0  0  0
  -17.4970  -14.5224  -14.2909 N   0  0  0  0  0  0  0  0  0  0  0  0
  -23.0155  -17.4623  -15.3952 C   0  0  0  0  0  0  0  0  0  0  0  0
  -25.4806  -12.2911  -16.1745 C   0  0  2  0  0  0  0  0  0  0  0  0
  -25.3858  -13.0994  -17.3235 O   0  0  0  0  0  0  0  0  0  0  0  0
  -16.9903  -16.7700  -13.2860 C   0  0  0  0  0  0  0  0  0  0  0  0
  -21.4404  -17.3344  -15.1782 C   0  0  2  0  0  0  0  0  0  0  0  0
  -20.8989  -18.6383  -14.7376 N   0  0  0  0  0  0  0  0  0  0  0  0
  -24.4918  -11.0546  -16.2555 C   0  0  1  0  0  0  0  0  0  0  0  0
  -24.8298  -10.1985  -17.4485 N   0  0  0  0  0  0  0  0  0  0  0  0
  -17.5395  -17.8464  -12.2603 C   0  0  0  0  0  0  0  0  0  0  0  0
  -21.1610  -16.2364  -14.0712 C   0  0  2  0  0  0  0  0  0  0  0  0
  -24.6446  -10.1613  -14.9041 C   0  0  1  0  0  0  0  0  0  0  0  0
  -25.9458   -9.6392  -14.7267 O   0  0  0  0  0  0  0  0  0  0  0  0
  -18.6339  -17.5970  -11.5061 C   0  0  2  0  0  0  0  0  0  0  0  0
  -19.3551  -16.3630  -11.5820 O   0  0  0  0  0  0  0  0  0  0  0  0
  -21.7407  -14.8442  -14.5546 C   0  0  2  0  0  0  0  0  0  0  0  0
  -21.4928  -13.8552  -13.5416 O   0  0  0  0  0  0  0  0  0  0  0  0
  -24.2994  -11.0603  -13.6705 C   0  0  0  0  0  0  0  0  0  0  0  0
  -25.1641  -12.3195  -13.6759 O   0  0  0  0  0  0  0  0  0  0  0  0
  -19.1905  -18.6093  -10.5058 C   0  0  0  0  0  0  0  0  0  0  0  0
  -20.3731  -19.1918  -11.0752 O   0  0  0  0  0  0  0  0  0  0  0  0
  -23.3012  -14.9659  -14.7717 C   0  0  1  0  0  0  0  0  0  0  0  0
  -23.7789  -13.7075  -15.2151 O   0  0  0  0  0  0  0  0  0  0  0  0
  -23.7210   -8.9260  -14.8409 C   0  0  0  0  0  0  0  0  0  0  0  0
  -24.1930  -10.5735  -18.7274 C   0  0  0  0  0  0  0  0  0  0  0  0
  1  2  1  6  0  0  0
  1  6  1  0  0  0  0
  1 21  1  0  0  0  0
  3  4  1  1  0  0  0
  3  8  1  0  0  0  0
  3 28  1  0  0  0  0
  5  9  1  0  0  0  0
  5 25  1  0  0  0  0
  5 29  1  6  0  0  0
  6  7  1  6  0  0  0
  6 11  1  0  0  0  0
  8 12  1  0  0  0  0
  9 10  1  6  0  0  0
  9 14  1  0  0  0  0
 11 16  1  0  0  0  0
 12 13  1  1  0  0  0
 12 17  1  0  0  0  0
 14 15  1  6  0  0  0
 14 18  1  0  0  0  0
 15 31  1  0  0  0  0
 16 20  1  0  0  0  0
 17  2  1  6  0  0  0
 17 22  1  0  0  0  0
 18 19  1  1  0  0  0
 18 24  1  0  0  0  0
 18 30  1  0  0  0  0
 20 21  1  0  0  0  0
 20 26  1  1  0  0  0
 22 23  1  1  0  0  0
 22 28  1  0  0  0  0
 24 25  1  0  0  0  0
 26 27  1  0  0  0  0
 28 29  1  6  0  0  0
M  END
>  <CHROM.1>
-169.13156370,-148.36719230,-87.43507977,-162.84460338,-104.76284071,92.88787786
-22.11305528,-14.48470435,-14.38724349,-0.72827926,-0.53464565,0.01871807

>  <Name>
ligand

>  <RI>
0

>  <Rbt.Current_Directory>
/home/itssahil/PROJECTS/Mol_Feturizer/New_Systems/rnas/4GPW

>  <Rbt.Executable>
rbdock ($Id: //depot/dev/client3/rdock/2013.1/src/exe/rbdock.cxx#4 $)

>  <Rbt.Library>
libRbt.so (2013.1, Build901 2013/11/27)

>  <Rbt.Parameter_File>
/export/apps/rDock/src/rDock_2013.1_src/data/scripts/dock_solv.prm

>  <Rbt.Receptor>
prm/pocket_docking_2.prm

>  <SCORE>
-20.1426

>  <SCORE.INTER>
-16.836

>  <SCORE.INTER.CONST>
1

>  <SCORE.INTER.POLAR>
0

>  <SCORE.INTER.ROT>
6

>  <SCORE.INTER.SOLV>
16.5719

>  <SCORE.INTER.VDW>
-24.3479

>  <SCORE.INTER.norm>
-0.543096

>  <SCORE.INTRA>
-3.30665

>  <SCORE.INTRA.DIHEDRAL>
-6.78808

>  <SCORE.INTRA.DIHEDRAL.0>
19.2558

>  <SCORE.INTRA.POLAR>
0

>  <SCORE.INTRA.POLAR.0>
0

>  <SCORE.INTRA.REPUL>
0

>  <SCORE.INTRA.REPUL.0>
0

>  <SCORE.INTRA.SOLV>
-0.967047

>  <SCORE.INTRA.SOLV.lig_0>
-64.5929

>  <SCORE.INTRA.VDW>
0.570908

>  <SCORE.INTRA.VDW.0>
-4.40538

>  <SCORE.INTRA.norm>
-0.106666

>  <SCORE.RESTR>
0

>  <SCORE.RESTR.CAVITY>
0

>  <SCORE.RESTR.norm>
0

>  <SCORE.SYSTEM>
0

>  <SCORE.SYSTEM.CONST>
0

>  <SCORE.SYSTEM.DIHEDRAL>
0

>  <SCORE.SYSTEM.SOLV>
0

>  <SCORE.SYSTEM.norm>
0

>  <SCORE.heavy>
31

>  <SCORE.norm>
-0.649763

>  <RMSD>
0.630

$$$$
ligand
 OpenBabel11021811493D
libRbt.so/2013.1/901 2013/11/27
 31 33  0  0  0  0  0  0  0  0999 V2000
  -19.2360  -15.6384  -12.8024 C   0  0  2  0  0  0  0  0  0  0  0  0
  -19.8318  -16.2849  -13.9176 O   0  0  0  0  0  0  0  0  0  0  0  0
  -23.6254  -16.2602  -15.8624 C   0  0  2  0  0  0  0  0  0  0  0  0
  -25.0355  -16.3770  -16.0506 N   0  0  0  0  0  0  0  0  0  0  0  0
  -25.1270  -13.3120  -15.0165 C   0  0  2  0  0  0  0  0  0  0  0  0
  -17.6972  -15.4606  -13.1384 C   0  0  2  0  0  0  0  0  0  0  0  0
  -17.5581  -14.6606  -14.3641 N   0  0  0  0  0  0  0  0  0  0  0  0
  -23.0735  -17.6515  -15.3244 C   0  0  0  0  0  0  0  0  0  0  0  0
  -25.4615  -12.3913  -16.2366 C   0  0  2  0  0  0  0  0  0  0  0  0
  -25.3884  -13.1727  -17.4056 O   0  0  0  0  0  0  0  0  0  0  0  0
  -17.0203  -16.8781  -13.3097 C   0  0  0  0  0  0  0  0  0  0  0  0
  -21.4967  -17.5246  -15.1200 C   0  0  2  0  0  0  0  0  0  0  0  0
  -20.9615  -18.8112  -14.6244 N   0  0  0  0  0  0  0  0  0  0  0  0
  -24.4320  -11.1866  -16.2823 C   0  0  1  0  0  0  0  0  0  0  0  0
  -24.7362  -10.2897  -17.4542 N   0  0  0  0  0  0  0  0  0  0  0  0
  -17.5476  -17.9326  -12.2503 C   0  0  0  0  0  0  0  0  0  0  0  0
  -21.2051  -16.3804  -14.0641 C   0  0  2  0  0  0  0  0  0  0  0  0
  -24.5611  -10.3236  -14.9090 C   0  0  1  0  0  0  0  0  0  0  0  0
  -25.8451   -9.7633  -14.7229 O   0  0  0  0  0  0  0  0  0  0  0  0
  -18.6343  -17.6729  -11.4886 C   0  0  2  0  0  0  0  0  0  0  0  0
  -19.3666  -16.4469  -11.5862 O   0  0  0  0  0  0  0  0  0  0  0  0
  -21.7780  -15.0073  -14.6063 C   0  0  2  0  0  0  0  0  0  0  0  0
  -21.5191  -13.9759  -13.6393 O   0  0  0  0  0  0  0  0  0  0  0  0
  -24.2513  -11.2647  -13.6976 C   0  0  0  0  0  0  0  0  0  0  0  0
  -25.1571  -12.4940  -13.7384 O   0  0  0  0  0  0  0  0  0  0  0  0
  -19.1699  -18.6640  -10.4562 C   0  0  0  0  0  0  0  0  0  0  0  0
  -20.3180  -19.3162  -11.0207 O   0  0  0  0  0  0  0  0  0  0  0  0
  -23.3402  -15.1281  -14.8111 C   0  0  1  0  0  0  0  0  0  0  0  0
  -23.8119  -13.8874  -15.3078 O   0  0  0  0  0  0  0  0  0  0  0  0
  -23.5974   -9.1216  -14.8108 C   0  0  0  0  0  0  0  0  0  0  0  0
  -24.0924  -10.6426  -18.7359 C   0  0  0  0  0  0  0  0  0  0  0  0
  1  2  1  6  0  0  0
  1  6  1  0  0  0  0
  1 21  1  0  0  0  0
  3  4  1  1  0  0  0
  3  8  1  0  0  0  0
  3 28  1  0  0  0  0
  5  9  1  0  0  0  0
  5 25  1  0  0  0  0
  5 29  1  6  0  0  0
  6  7  1  6  0  0  0
  6 11  1  0  0  0  0
  8 12  1  0  0  0  0
  9 10  1  6  0  0  0
  9 14  1  0  0  0  0
 11 16  1  0  0  0  0
 12 13  1  1  0  0  0
 12 17  1  0  0  0  0
 14 15  1  6  0  0  0
 14 18  1  0  0  0  0
 15 31  1  0  0  0  0
 16 20  1  0  0  0  0
 17  2  1  6  0  0  0
 17 22  1  0  0  0  0
 18 19  1  1  0  0  0
 18 24  1  0  0  0  0
 18 30  1  0  0  0  0
 20 21  1  0  0  0  0
 20 26  1  1  0  0  0
 22 23  1  1  0  0  0
 22 28  1  0  0  0  0
 24 25  1  0  0  0  0
 26 27  1  0  0  0  0
 28 29  1  6  0  0  0
M  END
>  <CHROM.1>
-168.17455495,-153.40448776,-88.21084488,-162.13618553,-102.07005903,94.51141264
-22.11194108,-14.62120496,-14.39994417,-0.74602670,-0.52287537,-0.01319431

>  <Name>
ligand

>  <RI>
0

>  <Rbt.Current_Directory>
/home/itssahil/PROJECTS/Mol_Feturizer/New_Systems/rnas/4GPW

>  <Rbt.Executable>
rbdock ($Id: //depot/dev/client3/rdock/2013.1/src/exe/rbdock.cxx#4 $)

>  <Rbt.Library>
libRbt.so (2013.1, Build901 2013/11/27)

>  <Rbt.Parameter_File>
/export/apps/rDock/src/rDock_2013.1_src/data/scripts/dock_solv.prm

>  <Rbt.Receptor>
prm/pocket_docking_7.prm

>  <SCORE>
-20.1297

>  <SCORE.INTER>
-16.5742

>  <SCORE.INTER.CONST>
1

>  <SCORE.INTER.POLAR>
0

>  <SCORE.INTER.ROT>
6

>  <SCORE.INTER.SOLV>
16.6768

>  <SCORE.INTER.VDW>
-24.2084

>  <SCORE.INTER.norm>
-0.534651

>  <SCORE.INTRA>
-3.55557

>  <SCORE.INTRA.DIHEDRAL>
-7.10042

>  <SCORE.INTRA.DIHEDRAL.0>
19.2558

>  <SCORE.INTRA.POLAR>
0

>  <SCORE.INTRA.POLAR.0>
0

>  <SCORE.INTRA.REPUL>
0

>  <SCORE.INTRA.REPUL.0>
0

>  <SCORE.INTRA.SOLV>
-1.05221

>  <SCORE.INTRA.SOLV.lig_0>
-64.5929

>  <SCORE.INTRA.VDW>
0.520747

>  <SCORE.INTRA.VDW.0>
-4.40538

>  <SCORE.INTRA.norm>
-0.114696

>  <SCORE.RESTR>
0

>  <SCORE.RESTR.CAVITY>
0

>  <SCORE.RESTR.norm>
0

>  <SCORE.SYSTEM>
0

>  <SCORE.SYSTEM.CONST>
0

>  <SCORE.SYSTEM.DIHEDRAL>
0

>  <SCORE.SYSTEM.SOLV>
0

>  <SCORE.SYSTEM.norm>
0

>  <SCORE.heavy>
31

>  <SCORE.norm>
-0.649346

>  <RMSD>
0.630

$$$$
ligand
 OpenBabel11021811493D
libRbt.so/2013.1/901 2013/11/27
 31 33  0  0  0  0  0  0  0  0999 V2000
  -19.2912  -15.6500  -12.6082 C   0  0  2  0  0  0  0  0  0  0  0  0
  -19.8429  -16.0768  -13.8452 O   0  0  0  0  0  0  0  0  0  0  0  0
  -23.5701  -16.0110  -15.9136 C   0  0  2  0  0  0  0  0  0  0  0  0
  -24.9712  -16.1382  -16.1546 N   0  0  0  0  0  0  0  0  0  0  0  0
  -25.1399  -13.1227  -14.9682 C   0  0  2  0  0  0  0  0  0  0  0  0
  -17.7631  -15.3218  -12.8718 C   0  0  2  0  0  0  0  0  0  0  0  0
  -17.6625  -14.2739  -13.8982 N   0  0  0  0  0  0  0  0  0  0  0  0
  -23.0148  -17.4189  -15.4243 C   0  0  0  0  0  0  0  0  0  0  0  0
  -25.5045  -12.2414  -16.2086 C   0  0  2  0  0  0  0  0  0  0  0  0
  -25.4168  -13.0492  -17.3585 O   0  0  0  0  0  0  0  0  0  0  0  0
  -17.0058  -16.6319  -13.3267 C   0  0  0  0  0  0  0  0  0  0  0  0
  -21.4477  -17.2801  -15.1610 C   0  0  2  0  0  0  0  0  0  0  0  0
  -20.9093  -18.5815  -14.7096 N   0  0  0  0  0  0  0  0  0  0  0  0
  -24.5072  -11.0118  -16.2896 C   0  0  1  0  0  0  0  0  0  0  0  0
  -24.8408  -10.1522  -17.4814 N   0  0  0  0  0  0  0  0  0  0  0  0
  -17.4785  -17.9140  -12.5234 C   0  0  0  0  0  0  0  0  0  0  0  0
  -21.2089  -16.1843  -14.0423 C   0  0  2  0  0  0  0  0  0  0  0  0
  -24.6520  -10.1188  -14.9372 C   0  0  1  0  0  0  0  0  0  0  0  0
  -25.9493   -9.5878  -14.7575 O   0  0  0  0  0  0  0  0  0  0  0  0
  -18.5826  -17.8810  -11.7434 C   0  0  2  0  0  0  0  0  0  0  0  0
  -19.3828  -16.7037  -11.5928 O   0  0  0  0  0  0  0  0  0  0  0  0
  -21.7849  -14.7947  -14.5374 C   0  0  2  0  0  0  0  0  0  0  0  0
  -21.5741  -13.8077  -13.5140 O   0  0  0  0  0  0  0  0  0  0  0  0
  -24.3115  -11.0214  -13.7049 C   0  0  0  0  0  0  0  0  0  0  0  0
  -25.1850  -12.2745  -13.7104 O   0  0  0  0  0  0  0  0  0  0  0  0
  -19.0670  -19.0959  -10.9533 C   0  0  0  0  0  0  0  0  0  0  0  0
  -19.2176  -18.7015   -9.5807 O   0  0  0  0  0  0  0  0  0  0  0  0
  -23.3374  -14.9272  -14.8003 C   0  0  1  0  0  0  0  0  0  0  0  0
  -23.8116  -13.6706  -15.2528 O   0  0  0  0  0  0  0  0  0  0  0  0
  -23.7197   -8.8900  -14.8739 C   0  0  0  0  0  0  0  0  0  0  0  0
  -24.1897  -10.5160  -18.7563 C   0  0  0  0  0  0  0  0  0  0  0  0
  1  2  1  6  0  0  0
  1  6  1  0  0  0  0
  1 21  1  0  0  0  0
  3  4  1  1  0  0  0
  3  8  1  0  0  0  0
  3 28  1  0  0  0  0
  5  9  1  0  0  0  0
  5 25  1  0  0  0  0
  5 29  1  6  0  0  0
  6  7  1  6  0  0  0
  6 11  1  0  0  0  0
  8 12  1  0  0  0  0
  9 10  1  6  0  0  0
  9 14  1  0  0  0  0
 11 16  1  0  0  0  0
 12 13  1  1  0  0  0
 12 17  1  0  0  0  0
 14 15  1  6  0  0  0
 14 18  1  0  0  0  0
 15 31  1  0  0  0  0
 16 20  1  0  0  0  0
 17  2  1  6  0  0  0
 17 22  1  0  0  0  0
 18 19  1  1  0  0  0
 18 24  1  0  0  0  0
 18 30  1  0  0  0  0
 20 21  1  0  0  0  0
 20 26  1  1  0  0  0
 22 23  1  1  0  0  0
 22 28  1  0  0  0  0
 24 25  1  0  0  0  0
 26 27  1  0  0  0  0
 28 29  1  6  0  0  0
M  END
>  <CHROM.1>
-166.66921400,-149.01906642,-88.47333677,-153.18297980,126.54112835,95.12424033
-22.09083493,-14.46283870,-14.35287554,-0.67612901,-0.60804599,0.09284162

>  <Name>
ligand

>  <RI>
0

>  <Rbt.Current_Directory>
/home/itssahil/PROJECTS/Mol_Feturizer/New_Systems/rnas/4GPW

>  <Rbt.Executable>
rbdock ($Id: //depot/dev/client3/rdock/2013.1/src/exe/rbdock.cxx#4 $)

>  <Rbt.Library>
libRbt.so (2013.1, Build901 2013/11/27)

>  <Rbt.Parameter_File>
/export/apps/rDock/src/rDock_2013.1_src/data/scripts/dock_solv.prm

>  <Rbt.Receptor>
prm/pocket_docking_7.prm

>  <SCORE>
-19.1239

>  <SCORE.INTER>
-16.8893

>  <SCORE.INTER.CONST>
1

>  <SCORE.INTER.POLAR>
0

>  <SCORE.INTER.ROT>
6

>  <SCORE.INTER.SOLV>
17.0601

>  <SCORE.INTER.VDW>
-24.5463

>  <SCORE.INTER.norm>
-0.544817

>  <SCORE.INTRA>
-2.23457

>  <SCORE.INTRA.DIHEDRAL>
-4.78297

>  <SCORE.INTRA.DIHEDRAL.0>
19.2558

>  <SCORE.INTRA.POLAR>
0

>  <SCORE.INTRA.POLAR.0>
0

>  <SCORE.INTRA.REPUL>
0

>  <SCORE.INTRA.REPUL.0>
0

>  <SCORE.INTRA.SOLV>
-0.681262

>  <SCORE.INTRA.SOLV.lig_0>
-64.5929

>  <SCORE.INTRA.VDW>
0.497549

>  <SCORE.INTRA.VDW.0>
-4.40538

>  <SCORE.INTRA.norm>
-0.0720828

>  <SCORE.RESTR>
0

>  <SCORE.RESTR.CAVITY>
0

>  <SCORE.RESTR.norm>
0

>  <SCORE.SYSTEM>
0

>  <SCORE.SYSTEM.CONST>
0

>  <SCORE.SYSTEM.DIHEDRAL>
0

>  <SCORE.SYSTEM.SOLV>
0

>  <SCORE.SYSTEM.norm>
0

>  <SCORE.heavy>
31

>  <SCORE.norm>
-0.6169

>  <RMSD>
0.631

$$$$
ligand
 OpenBabel11021811493D
libRbt.so/2013.1/901 2013/11/27
 31 33  0  0  0  0  0  0  0  0999 V2000
  -19.3487  -15.6433  -12.6440 C   0  0  2  0  0  0  0  0  0  0  0  0
  -19.8982  -16.0856  -13.8765 O   0  0  0  0  0  0  0  0  0  0  0  0
  -23.6276  -16.2174  -15.9377 C   0  0  2  0  0  0  0  0  0  0  0  0
  -25.0266  -16.3834  -16.1672 N   0  0  0  0  0  0  0  0  0  0  0  0
  -25.2178  -13.2644  -15.1246 C   0  0  2  0  0  0  0  0  0  0  0  0
  -17.8255  -15.2977  -12.9140 C   0  0  2  0  0  0  0  0  0  0  0  0
  -17.7409  -14.2557  -13.9478 N   0  0  0  0  0  0  0  0  0  0  0  0
  -23.0484  -17.5808  -15.3582 C   0  0  0  0  0  0  0  0  0  0  0  0
  -25.5467  -12.3129  -16.3224 C   0  0  2  0  0  0  0  0  0  0  0  0
  -25.4812  -13.0674  -17.5095 O   0  0  0  0  0  0  0  0  0  0  0  0
  -17.0529  -16.6012  -13.3618 C   0  0  0  0  0  0  0  0  0  0  0  0
  -21.4837  -17.3990  -15.1076 C   0  0  2  0  0  0  0  0  0  0  0  0
  -20.9233  -18.6590  -14.5729 N   0  0  0  0  0  0  0  0  0  0  0  0
  -24.5078  -11.1156  -16.3415 C   0  0  1  0  0  0  0  0  0  0  0  0
  -24.8066  -10.1892  -17.4918 N   0  0  0  0  0  0  0  0  0  0  0  0
  -17.5073  -17.8836  -12.5485 C   0  0  0  0  0  0  0  0  0  0  0  0
  -21.2624  -16.2284  -14.0636 C   0  0  2  0  0  0  0  0  0  0  0  0
  -24.6283  -10.2838  -14.9484 C   0  0  1  0  0  0  0  0  0  0  0  0
  -25.9077   -9.7180  -14.7473 O   0  0  0  0  0  0  0  0  0  0  0  0
  -18.6097  -17.8591  -11.7657 C   0  0  2  0  0  0  0  0  0  0  0  0
  -19.4243  -16.6910  -11.6211 O   0  0  0  0  0  0  0  0  0  0  0  0
  -21.8618  -14.8840  -14.6475 C   0  0  2  0  0  0  0  0  0  0  0  0
  -21.6667  -13.8287  -13.6914 O   0  0  0  0  0  0  0  0  0  0  0  0
  -24.3244  -11.2553  -13.7597 C   0  0  0  0  0  0  0  0  0  0  0  0
  -25.2399  -12.4762  -13.8278 O   0  0  0  0  0  0  0  0  0  0  0  0
  -19.0767  -19.0745  -10.9659 C   0  0  0  0  0  0  0  0  0  0  0  0
  -19.1483  -18.6950   -9.5828 O   0  0  0  0  0  0  0  0  0  0  0  0
  -23.4121  -15.0592  -14.8982 C   0  0  1  0  0  0  0  0  0  0  0  0
  -23.9076  -13.8431  -15.4312 O   0  0  0  0  0  0  0  0  0  0  0  0
  -23.6552   -9.0920  -14.8236 C   0  0  0  0  0  0  0  0  0  0  0  0
  -24.1058  -10.4710  -18.7611 C   0  0  0  0  0  0  0  0  0  0  0  0
  1  2  1  6  0  0  0
  1  6  1  0  0  0  0
  1 21  1  0  0  0  0
  3  4  1  1  0  0  0
  3  8  1  0  0  0  0
  3 28  1  0  0  0  0
  5  9  1  0  0  0  0
  5 25  1  0  0  0  0
  5 29  1  6  0  0  0
  6  7  1  6  0  0  0
  6 11  1  0  0  0  0
  8 12  1  0  0  0  0
  9 10  1  6  0  0  0
  9 14  1  0  0  0  0
 11 16  1  0  0  0  0
 12 13  1  1  0  0  0
 12 17  1  0  0  0  0
 14 15  1  6  0  0  0
 14 18  1  0  0  0  0
 15 31  1  0  0  0  0
 16 20  1  0  0  0  0
 17  2  1  6  0  0  0
 17 22  1  0  0  0  0
 18 19  1  1  0  0  0
 18 24  1  0  0  0  0
 18 30  1  0  0  0  0
 20 21  1  0  0  0  0
 20 26  1  1  0  0  0
 22 23  1  1  0  0  0
 22 28  1  0  0  0  0
 24 25  1  0  0  0  0
 26 27  1  0  0  0  0
 28 29  1  6  0  0  0
M  END
>  <CHROM.1>
-167.53483755,-157.52960101,-91.65821421,-149.43311297,122.99945678,98.53762204
-22.12042206,-14.53835421,-14.39458703,-0.69234836,-0.58522855,0.04623204

>  <Name>
ligand

>  <RI>
0

>  <Rbt.Current_Directory>
/home/itssahil/PROJECTS/Mol_Feturizer/New_Systems/rnas/4GPW

>  <Rbt.Executable>
rbdock ($Id: //depot/dev/client3/rdock/2013.1/src/exe/rbdock.cxx#4 $)

>  <Rbt.Library>
libRbt.so (2013.1, Build901 2013/11/27)

>  <Rbt.Parameter_File>
/export/apps/rDock/src/rDock_2013.1_src/data/scripts/dock_solv.prm

>  <Rbt.Receptor>
prm/pocket_docking_3.prm

>  <SCORE>
-19.1224

>  <SCORE.INTER>
-16.5091

>  <SCORE.INTER.CONST>
1

>  <SCORE.INTER.POLAR>
0

>  <SCORE.INTER.ROT>
6

>  <SCORE.INTER.SOLV>
17.0258

>  <SCORE.INTER.VDW>
-24.2813

>  <SCORE.INTER.norm>
-0.532552

>  <SCORE.INTRA>
-2.61333

>  <SCORE.INTRA.DIHEDRAL>
-5.09285

>  <SCORE.INTRA.DIHEDRAL.0>
19.2558

>  <SCORE.INTRA.POLAR>
0

>  <SCORE.INTRA.POLAR.0>
0

>  <SCORE.INTRA.REPUL>
0

>  <SCORE.INTRA.REPUL.0>
0

>  <SCORE.INTRA.SOLV>
-0.715943

>  <SCORE.INTRA.SOLV.lig_0>
-64.5929

>  <SCORE.INTRA.VDW>
0.291062

>  <SCORE.INTRA.VDW.0>
-4.40538

>  <SCORE.INTRA.norm>
-0.084301

>  <SCORE.RESTR>
0

>  <SCORE.RESTR.CAVITY>
0

>  <SCORE.RESTR.norm>
0

>  <SCORE.SYSTEM>
0

>  <SCORE.SYSTEM.CONST>
0

>  <SCORE.SYSTEM.DIHEDRAL>
0

>  <SCORE.SYSTEM.SOLV>
0

>  <SCORE.SYSTEM.norm>
0

>  <SCORE.heavy>
31

>  <SCORE.norm>
-0.616853

>  <RMSD>
0.632

$$$$
ligand
 OpenBabel11021811493D
libRbt.so/2013.1/901 2013/11/27
 31 33  0  0  0  0  0  0  0  0999 V2000
  -19.2937  -15.5597  -12.8022 C   0  0  2  0  0  0  0  0  0  0  0  0
  -19.8721  -16.2182  -13.9195 O   0  0  0  0  0  0  0  0  0  0  0  0
  -23.6505  -16.2999  -15.8924 C   0  0  2  0  0  0  0  0  0  0  0  0
  -25.0572  -16.4420  -16.0878 N   0  0  0  0  0  0  0  0  0  0  0  0
  -25.1920  -13.3413  -15.1204 C   0  0  2  0  0  0  0  0  0  0  0  0
  -17.7600  -15.3405  -13.1373 C   0  0  2  0  0  0  0  0  0  0  0  0
  -17.6418  -14.5333  -14.3605 N   0  0  0  0  0  0  0  0  0  0  0  0
  -23.0832  -17.6683  -15.3130 C   0  0  0  0  0  0  0  0  0  0  0  0
  -25.5144  -12.4126  -16.3377 C   0  0  2  0  0  0  0  0  0  0  0  0
  -25.4312  -13.1867  -17.5109 O   0  0  0  0  0  0  0  0  0  0  0  0
  -17.0460  -16.7391  -13.3129 C   0  0  0  0  0  0  0  0  0  0  0  0
  -21.5099  -17.5134  -15.1004 C   0  0  2  0  0  0  0  0  0  0  0  0
  -20.9606  -18.7784  -14.5664 N   0  0  0  0  0  0  0  0  0  0  0  0
  -24.4835  -11.2086  -16.3662 C   0  0  1  0  0  0  0  0  0  0  0  0
  -24.7762  -10.3039  -17.5352 N   0  0  0  0  0  0  0  0  0  0  0  0
  -17.5456  -17.8105  -12.2569 C   0  0  0  0  0  0  0  0  0  0  0  0
  -21.2427  -16.3372  -14.0736 C   0  0  2  0  0  0  0  0  0  0  0  0
  -24.6245  -10.3542  -14.9887 C   0  0  1  0  0  0  0  0  0  0  0  0
  -25.9097   -9.7939  -14.8109 O   0  0  0  0  0  0  0  0  0  0  0  0
  -18.6389  -17.5819  -11.4946 C   0  0  2  0  0  0  0  0  0  0  0  0
  -19.4032  -16.3752  -11.5886 O   0  0  0  0  0  0  0  0  0  0  0  0
  -21.8307  -14.9875  -14.6568 C   0  0  2  0  0  0  0  0  0  0  0  0
  -21.5940  -13.9270  -13.7160 O   0  0  0  0  0  0  0  0  0  0  0  0
  -24.3267  -11.3032  -13.7806 C   0  0  0  0  0  0  0  0  0  0  0  0
  -25.2332  -12.5314  -13.8375 O   0  0  0  0  0  0  0  0  0  0  0  0
  -19.1484  -18.5899  -10.4654 C   0  0  0  0  0  0  0  0  0  0  0  0
  -20.2717  -19.2784  -11.0366 O   0  0  0  0  0  0  0  0  0  0  0  0
  -23.3895  -15.1361  -14.8698 C   0  0  1  0  0  0  0  0  0  0  0  0
  -23.8747  -13.9161  -15.4033 O   0  0  0  0  0  0  0  0  0  0  0  0
  -23.6607   -9.1537  -14.8740 C   0  0  0  0  0  0  0  0  0  0  0  0
  -24.0909  -10.6268  -18.8032 C   0  0  0  0  0  0  0  0  0  0  0  0
  1  2  1  6  0  0  0
  1  6  1  0  0  0  0
  1 21  1  0  0  0  0
  3  4  1  1  0  0  0
  3  8  1  0  0  0  0
  3 28  1  0  0  0  0
  5  9  1  0  0  0  0
  5 25  1  0  0  0  0
  5 29  1  6  0  0  0
  6  7  1  6  0  0  0
  6 11  1  0  0  0  0
  8 12  1  0  0  0  0
  9 10  1  6  0  0  0
  9 14  1  0  0  0  0
 11 16  1  0  0  0  0
 12 13  1  1  0  0  0
 12 17  1  0  0  0  0
 14 15  1  6  0  0  0
 14 18  1  0  0  0  0
 15 31  1  0  0  0  0
 16 20  1  0  0  0  0
 17  2  1  6  0  0  0
 17 22  1  0  0  0  0
 18 19  1  1  0  0  0
 18 24  1  0  0  0  0
 18 30  1  0  0  0  0
 20 21  1  0  0  0  0
 20 26  1  1  0  0  0
 22 23  1  1  0  0  0
 22 28  1  0  0  0  0
 24 25  1  0  0  0  0
 26 27  1  0  0  0  0
 28 29  1  6  0  0  0
M  END
>  <CHROM.1>
-167.49376760,-155.90948447,-89.88811247,-160.68551089,-101.57822613,95.53813661
-22.14998405,-14.59969603,-14.44145512,-0.73981716,-0.52139365,-0.02792013

>  <Name>
ligand

>  <RI>
0

>  <Rbt.Current_Directory>
/home/itssahil/PROJECTS/Mol_Feturizer/New_Systems/rnas/4GPW

>  <Rbt.Executable>
rbdock ($Id: //depot/dev/client3/rdock/2013.1/src/exe/rbdock.cxx#4 $)

>  <Rbt.Library>
libRbt.so (2013.1, Build901 2013/11/27)

>  <Rbt.Parameter_File>
/export/apps/rDock/src/rDock_2013.1_src/data/scripts/dock_solv.prm

>  <Rbt.Receptor>
prm/pocket_docking_6.prm

>  <SCORE>
-20.274

>  <SCORE.INTER>
-16.7242

>  <SCORE.INTER.CONST>
1

>  <SCORE.INTER.POLAR>
0

>  <SCORE.INTER.ROT>
6

>  <SCORE.INTER.SOLV>
16.6357

>  <SCORE.INTER.VDW>
-24.2947

>  <SCORE.INTER.norm>
-0.539491

>  <SCORE.INTRA>
-3.54972

>  <SCORE.INTRA.DIHEDRAL>
-6.99727

>  <SCORE.INTRA.DIHEDRAL.0>
19.2558

>  <SCORE.INTRA.POLAR>
0

>  <SCORE.INTRA.POLAR.0>
0

>  <SCORE.INTRA.REPUL>
0

>  <SCORE.INTRA.REPUL.0>
0

>  <SCORE.INTRA.SOLV>
-0.979249

>  <SCORE.INTRA.SOLV.lig_0>
-64.5929

>  <SCORE.INTRA.VDW>
0.438537

>  <SCORE.INTRA.VDW.0>
-4.40538

>  <SCORE.INTRA.norm>
-0.114507

>  <SCORE.RESTR>
0

>  <SCORE.RESTR.CAVITY>
0

>  <SCORE.RESTR.norm>
0

>  <SCORE.SYSTEM>
0

>  <SCORE.SYSTEM.CONST>
0

>  <SCORE.SYSTEM.DIHEDRAL>
0

>  <SCORE.SYSTEM.SOLV>
0

>  <SCORE.SYSTEM.norm>
0

>  <SCORE.heavy>
31

>  <SCORE.norm>
-0.653998

>  <RMSD>
0.632

$$$$
ligand
 OpenBabel11021811493D
libRbt.so/2013.1/901 2013/11/27
 31 33  0  0  0  0  0  0  0  0999 V2000
  -19.2347  -15.5141  -12.7672 C   0  0  2  0  0  0  0  0  0  0  0  0
  -19.8115  -16.1153  -13.9171 O   0  0  0  0  0  0  0  0  0  0  0  0
  -23.5944  -16.2860  -15.8754 C   0  0  2  0  0  0  0  0  0  0  0  0
  -24.9997  -16.4506  -16.0633 N   0  0  0  0  0  0  0  0  0  0  0  0
  -25.1716  -13.3318  -15.1531 C   0  0  2  0  0  0  0  0  0  0  0  0
  -17.6916  -15.3182  -13.0721 C   0  0  2  0  0  0  0  0  0  0  0  0
  -17.5368  -14.4675  -14.2613 N   0  0  0  0  0  0  0  0  0  0  0  0
  -23.0070  -17.6351  -15.2714 C   0  0  0  0  0  0  0  0  0  0  0  0
  -25.4909  -12.3932  -16.3636 C   0  0  2  0  0  0  0  0  0  0  0  0
  -25.3949  -13.1555  -17.5436 O   0  0  0  0  0  0  0  0  0  0  0  0
  -17.0074  -16.7254  -13.2918 C   0  0  0  0  0  0  0  0  0  0  0  0
  -21.4353  -17.4551  -15.0671 C   0  0  2  0  0  0  0  0  0  0  0  0
  -20.8674  -18.7020  -14.5104 N   0  0  0  0  0  0  0  0  0  0  0  0
  -24.4667  -11.1832  -16.3733 C   0  0  1  0  0  0  0  0  0  0  0  0
  -24.7564  -10.2690  -17.5356 N   0  0  0  0  0  0  0  0  0  0  0  0
  -17.5469  -17.8245  -12.2852 C   0  0  0  0  0  0  0  0  0  0  0  0
  -21.1808  -16.2557  -14.0643 C   0  0  2  0  0  0  0  0  0  0  0  0
  -24.6223  -10.3429  -14.9887 C   0  0  1  0  0  0  0  0  0  0  0  0
  -25.9119   -9.7916  -14.8146 O   0  0  0  0  0  0  0  0  0  0  0  0
  -18.6459  -17.5998  -11.5300 C   0  0  2  0  0  0  0  0  0  0  0  0
  -19.3808  -16.3728  -11.5877 O   0  0  0  0  0  0  0  0  0  0  0  0
  -21.7887  -14.9255  -14.6717 C   0  0  2  0  0  0  0  0  0  0  0  0
  -21.5633  -13.8438  -13.7525 O   0  0  0  0  0  0  0  0  0  0  0  0
  -24.3276  -11.3018  -13.7876 C   0  0  0  0  0  0  0  0  0  0  0  0
  -25.2265  -12.5345  -13.8627 O   0  0  0  0  0  0  0  0  0  0  0  0
  -19.1935  -18.6344  -10.5478 C   0  0  0  0  0  0  0  0  0  0  0  0
  -20.3871  -19.1965  -11.1148 O   0  0  0  0  0  0  0  0  0  0  0  0
  -23.3459  -15.0991  -14.8766 C   0  0  1  0  0  0  0  0  0  0  0  0
  -23.8491  -13.8963  -15.4320 O   0  0  0  0  0  0  0  0  0  0  0  0
  -23.6663   -9.1381  -14.8557 C   0  0  0  0  0  0  0  0  0  0  0  0
  -24.0736  -10.5860  -18.8065 C   0  0  0  0  0  0  0  0  0  0  0  0
  1  2  1  6  0  0  0
  1  6  1  0  0  0  0
  1 21  1  0  0  0  0
  3  4  1  1  0  0  0
  3  8  1  0  0  0  0
  3 28  1  0  0  0  0
  5  9  1  0  0  0  0
  5 25  1  0  0  0  0
  5 29  1  6  0  0  0
  6  7  1  6  0  0  0
  6 11  1  0  0  0  0
  8 12  1  0  0  0  0
  9 10  1  6  0  0  0
  9 14  1  0  0  0  0
 11 16  1  0  0  0  0
 12 13  1  1  0  0  0
 12 17  1  0  0  0  0
 14 15  1  6  0  0  0
 14 18  1  0  0  0  0
 15 31  1  0  0  0  0
 16 20  1  0  0  0  0
 17  2  1  6  0  0  0
 17 22  1  0  0  0  0
 18 19  1  1  0  0  0
 18 24  1  0  0  0  0
 18 30  1  0  0  0  0
 20 21  1  0  0  0  0
 20 26  1  1  0  0  0
 22 23  1  1  0  0  0
 22 28  1  0  0  0  0
 24 25  1  0  0  0  0
 26 27  1  0  0  0  0
 28 29  1  6  0  0  0
M  END
>  <CHROM.1>
-170.75995337,-157.83043969,-89.13158199,-155.97936804,-106.20006248,95.72300266
-22.12264155,-14.57017673,-14.44323878,-0.74594770,-0.50786648,-0.04291967

>  <Name>
ligand

>  <RI>
0

>  <Rbt.Current_Directory>
/home/itssahil/PROJECTS/Mol_Feturizer/New_Systems/rnas/4GPW

>  <Rbt.Executable>
rbdock ($Id: //depot/dev/client3/rdock/2013.1/src/exe/rbdock.cxx#4 $)

>  <Rbt.Library>
libRbt.so (2013.1, Build901 2013/11/27)

>  <Rbt.Parameter_File>
/export/apps/rDock/src/rDock_2013.1_src/data/scripts/dock_solv.prm

>  <Rbt.Receptor>
prm/pocket_docking_2.prm

>  <SCORE>
-20.252

>  <SCORE.INTER>
-16.7418

>  <SCORE.INTER.CONST>
1

>  <SCORE.INTER.POLAR>
0

>  <SCORE.INTER.ROT>
6

>  <SCORE.INTER.SOLV>
16.3942

>  <SCORE.INTER.VDW>
-24.2259

>  <SCORE.INTER.norm>
-0.540057

>  <SCORE.INTRA>
-3.51018

>  <SCORE.INTRA.DIHEDRAL>
-7.02956

>  <SCORE.INTRA.DIHEDRAL.0>
19.2558

>  <SCORE.INTRA.POLAR>
0

>  <SCORE.INTRA.POLAR.0>
0

>  <SCORE.INTRA.REPUL>
0

>  <SCORE.INTRA.REPUL.0>
0

>  <SCORE.INTRA.SOLV>
-0.572127

>  <SCORE.INTRA.SOLV.lig_0>
-64.5929

>  <SCORE.INTRA.VDW>
0.290668

>  <SCORE.INTRA.VDW.0>
-4.40538

>  <SCORE.INTRA.norm>
-0.113232

>  <SCORE.RESTR>
0

>  <SCORE.RESTR.CAVITY>
0

>  <SCORE.RESTR.norm>
0

>  <SCORE.SYSTEM>
0

>  <SCORE.SYSTEM.CONST>
0

>  <SCORE.SYSTEM.DIHEDRAL>
0

>  <SCORE.SYSTEM.SOLV>
0

>  <SCORE.SYSTEM.norm>
0

>  <SCORE.heavy>
31

>  <SCORE.norm>
-0.653289

>  <RMSD>
0.633

$$$$
ligand
 OpenBabel11021811493D
libRbt.so/2013.1/901 2013/11/27
 31 33  0  0  0  0  0  0  0  0999 V2000
  -19.2419  -15.4797  -12.8243 C   0  0  2  0  0  0  0  0  0  0  0  0
  -19.8258  -16.1234  -13.9474 O   0  0  0  0  0  0  0  0  0  0  0  0
  -23.6203  -16.2609  -15.8857 C   0  0  2  0  0  0  0  0  0  0  0  0
  -25.0275  -16.4170  -16.0670 N   0  0  0  0  0  0  0  0  0  0  0  0
  -25.1790  -13.3046  -15.1346 C   0  0  2  0  0  0  0  0  0  0  0  0
  -17.7033  -15.2840  -13.1513 C   0  0  2  0  0  0  0  0  0  0  0  0
  -17.5663  -14.4730  -14.3701 N   0  0  0  0  0  0  0  0  0  0  0  0
  -23.0365  -17.6172  -15.2946 C   0  0  0  0  0  0  0  0  0  0  0  0
  -25.4997  -12.3561  -16.3369 C   0  0  2  0  0  0  0  0  0  0  0  0
  -25.4130  -13.1105  -17.5227 O   0  0  0  0  0  0  0  0  0  0  0  0
  -17.0114  -16.6932  -13.3302 C   0  0  0  0  0  0  0  0  0  0  0  0
  -21.4628  -17.4466  -15.0979 C   0  0  2  0  0  0  0  0  0  0  0  0
  -20.8982  -18.7004  -14.5532 N   0  0  0  0  0  0  0  0  0  0  0  0
  -24.4701  -11.1507  -16.3431 C   0  0  1  0  0  0  0  0  0  0  0  0
  -24.7612  -10.2270  -17.4975 N   0  0  0  0  0  0  0  0  0  0  0  0
  -17.5333  -17.7611  -12.2817 C   0  0  0  0  0  0  0  0  0  0  0  0
  -21.1966  -16.2557  -14.0879 C   0  0  2  0  0  0  0  0  0  0  0  0
  -24.6152  -10.3194  -14.9520 C   0  0  1  0  0  0  0  0  0  0  0  0
  -25.9014   -9.7636  -14.7677 O   0  0  0  0  0  0  0  0  0  0  0  0
  -18.6263  -17.5183  -11.5234 C   0  0  2  0  0  0  0  0  0  0  0  0
  -19.3703  -16.2989  -11.6151 O   0  0  0  0  0  0  0  0  0  0  0  0
  -21.8010  -14.9182  -14.6825 C   0  0  2  0  0  0  0  0  0  0  0  0
  -21.5650  -13.8442  -13.7569 O   0  0  0  0  0  0  0  0  0  0  0  0
  -24.3190  -11.2881  -13.7590 C   0  0  0  0  0  0  0  0  0  0  0  0
  -25.2240  -12.5162  -13.8384 O   0  0  0  0  0  0  0  0  0  0  0  0
  -19.1569  -18.5226  -10.5013 C   0  0  0  0  0  0  0  0  0  0  0  0
  -20.3037  -19.1724  -11.0714 O   0  0  0  0  0  0  0  0  0  0  0  0
  -23.3602  -15.0824  -14.8798 C   0  0  1  0  0  0  0  0  0  0  0  0
  -23.8604  -13.8731  -15.4239 O   0  0  0  0  0  0  0  0  0  0  0  0
  -23.6531   -9.1200  -14.8151 C   0  0  0  0  0  0  0  0  0  0  0  0
  -24.1056  -10.5526  -18.7805 C   0  0  0  0  0  0  0  0  0  0  0  0
  1  2  1  6  0  0  0
  1  6  1  0  0  0  0
  1 21  1  0  0  0  0
  3  4  1  1  0  0  0
  3  8  1  0  0  0  0
  3 28  1  0  0  0  0
  5  9  1  0  0  0  0
  5 25  1  0  0  0  0
  5 29  1  6  0  0  0
  6  7  1  6  0  0  0
  6 11  1  0  0  0  0
  8 12  1  0  0  0  0
  9 10  1  6  0  0  0
  9 14  1  0  0  0  0
 11 16  1  0  0  0  0
 12 13  1  1  0  0  0
 12 17  1  0  0  0  0
 14 15  1  6  0  0  0
 14 18  1  0  0  0  0
 15 31  1  0  0  0  0
 16 20  1  0  0  0  0
 17  2  1  6  0  0  0
 17 22  1  0  0  0  0
 18 19  1  1  0  0  0
 18 24  1  0  0  0  0
 18 30  1  0  0  0  0
 20 21  1  0  0  0  0
 20 26  1  1  0  0  0
 22 23  1  1  0  0  0
 22 28  1  0  0  0  0
 24 25  1  0  0  0  0
 26 27  1  0  0  0  0
 28 29  1  6  0  0  0
M  END
>  <CHROM.1>
-169.53275724,-157.79853046,-88.04033491,-158.85854834,-102.63201147,95.65964681
-22.12639104,-14.54140695,-14.44412189,-0.73926923,-0.51128503,-0.03087199

>  <Name>
ligand

>  <RI>
0

>  <Rbt.Current_Directory>
/home/itssahil/PROJECTS/Mol_Feturizer/New_Systems/rnas/4GPW

>  <Rbt.Executable>
rbdock ($Id: //depot/dev/client3/rdock/2013.1/src/exe/rbdock.cxx#4 $)

>  <Rbt.Library>
libRbt.so (2013.1, Build901 2013/11/27)

>  <Rbt.Parameter_File>
/export/apps/rDock/src/rDock_2013.1_src/data/scripts/dock_solv.prm

>  <Rbt.Receptor>
prm/pocket_docking_5.prm

>  <SCORE>
-20.1449

>  <SCORE.INTER>
-16.4335

>  <SCORE.INTER.CONST>
1

>  <SCORE.INTER.POLAR>
0

>  <SCORE.INTER.ROT>
6

>  <SCORE.INTER.SOLV>
16.4033

>  <SCORE.INTER.VDW>
-24.0234

>  <SCORE.INTER.norm>
-0.530113

>  <SCORE.INTRA>
-3.71137

>  <SCORE.INTRA.DIHEDRAL>
-7.32655

>  <SCORE.INTRA.DIHEDRAL.0>
19.2558

>  <SCORE.INTRA.POLAR>
0

>  <SCORE.INTRA.POLAR.0>
0

>  <SCORE.INTRA.REPUL>
0

>  <SCORE.INTRA.REPUL.0>
0

>  <SCORE.INTRA.SOLV>
-0.866585

>  <SCORE.INTRA.SOLV.lig_0>
-64.5929

>  <SCORE.INTRA.VDW>
0.385198

>  <SCORE.INTRA.VDW.0>
-4.40538

>  <SCORE.INTRA.norm>
-0.119722

>  <SCORE.RESTR>
0

>  <SCORE.RESTR.CAVITY>
0

>  <SCORE.RESTR.norm>
0

>  <SCORE.SYSTEM>
0

>  <SCORE.SYSTEM.CONST>
0

>  <SCORE.SYSTEM.DIHEDRAL>
0

>  <SCORE.SYSTEM.SOLV>
0

>  <SCORE.SYSTEM.norm>
0

>  <SCORE.heavy>
31

>  <SCORE.norm>
-0.649834

>  <RMSD>
0.634

$$$$
ligand
 OpenBabel11021811493D
libRbt.so/2013.1/901 2013/11/27
 31 33  0  0  0  0  0  0  0  0999 V2000
  -19.1899  -15.5549  -12.7389 C   0  0  2  0  0  0  0  0  0  0  0  0
  -19.7820  -16.1792  -13.8686 O   0  0  0  0  0  0  0  0  0  0  0  0
  -23.5801  -16.2026  -15.8047 C   0  0  2  0  0  0  0  0  0  0  0  0
  -24.9893  -16.3354  -15.9892 N   0  0  0  0  0  0  0  0  0  0  0  0
  -25.1185  -13.2765  -14.9807 C   0  0  2  0  0  0  0  0  0  0  0  0
  -17.6467  -15.3866  -13.0591 C   0  0  2  0  0  0  0  0  0  0  0  0
  -17.4896  -14.5698  -14.2715 N   0  0  0  0  0  0  0  0  0  0  0  0
  -23.0119  -17.5859  -15.2629 C   0  0  0  0  0  0  0  0  0  0  0  0
  -25.4647  -12.3785  -16.2144 C   0  0  2  0  0  0  0  0  0  0  0  0
  -25.3706  -13.1737  -17.3727 O   0  0  0  0  0  0  0  0  0  0  0  0
  -16.9814  -16.8076  -13.2457 C   0  0  0  0  0  0  0  0  0  0  0  0
  -21.4361  -17.4412  -15.0627 C   0  0  2  0  0  0  0  0  0  0  0  0
  -20.8859  -18.7202  -14.5636 N   0  0  0  0  0  0  0  0  0  0  0  0
  -24.4585  -11.1548  -16.2712 C   0  0  1  0  0  0  0  0  0  0  0  0
  -24.7742  -10.2794  -17.4563 N   0  0  0  0  0  0  0  0  0  0  0  0
  -17.5276  -17.8727  -12.2066 C   0  0  0  0  0  0  0  0  0  0  0  0
  -21.1545  -16.2901  -14.0115 C   0  0  2  0  0  0  0  0  0  0  0  0
  -24.6110  -10.2765  -14.9101 C   0  0  1  0  0  0  0  0  0  0  0  0
  -25.9066   -9.7388  -14.7374 O   0  0  0  0  0  0  0  0  0  0  0  0
  -18.6184  -17.6142  -11.4504 C   0  0  2  0  0  0  0  0  0  0  0  0
  -19.3385  -16.3801  -11.5360 O   0  0  0  0  0  0  0  0  0  0  0  0
  -21.7435  -14.9252  -14.5574 C   0  0  2  0  0  0  0  0  0  0  0  0
  -21.4936  -13.8877  -13.5947 O   0  0  0  0  0  0  0  0  0  0  0  0
  -24.2891  -11.1954  -13.6849 C   0  0  0  0  0  0  0  0  0  0  0  0
  -25.1708  -12.4425  -13.7137 O   0  0  0  0  0  0  0  0  0  0  0  0
  -19.1720  -18.6154  -10.4374 C   0  0  0  0  0  0  0  0  0  0  0  0
  -20.3398  -19.2253  -11.0087 O   0  0  0  0  0  0  0  0  0  0  0  0
  -23.3048  -15.0637  -14.7581 C   0  0  1  0  0  0  0  0  0  0  0  0
  -23.7910  -13.8300  -15.2582 O   0  0  0  0  0  0  0  0  0  0  0  0
  -23.6713   -9.0548  -14.8232 C   0  0  0  0  0  0  0  0  0  0  0  0
  -24.0844  -10.6106  -18.7197 C   0  0  0  0  0  0  0  0  0  0  0  0
  1  2  1  6  0  0  0
  1  6  1  0  0  0  0
  1 21  1  0  0  0  0
  3  4  1  1  0  0  0
  3  8  1  0  0  0  0
  3 28  1  0  0  0  0
  5  9  1  0  0  0  0
  5 25  1  0  0  0  0
  5 29  1  6  0  0  0
  6  7  1  6  0  0  0
  6 11  1  0  0  0  0
  8 12  1  0  0  0  0
  9 10  1  6  0  0  0
  9 14  1  0  0  0  0
 11 16  1  0  0  0  0
 12 13  1  1  0  0  0
 12 17  1  0  0  0  0
 14 15  1  6  0  0  0
 14 18  1  0  0  0  0
 15 31  1  0  0  0  0
 16 20  1  0  0  0  0
 17  2  1  6  0  0  0
 17 22  1  0  0  0  0
 18 19  1  1  0  0  0
 18 24  1  0  0  0  0
 18 30  1  0  0  0  0
 20 21  1  0  0  0  0
 20 26  1  1  0  0  0
 22 23  1  1  0  0  0
 22 28  1  0  0  0  0
 24 25  1  0  0  0  0
 26 27  1  0  0  0  0
 28 29  1  6  0  0  0
M  END
>  <CHROM.1>
-169.86525879,-152.46589622,-90.07741256,-160.35790046,-103.42072188,93.62803867
-22.09708676,-14.56147767,-14.36221838,-0.74229069,-0.51504670,-0.02169657

>  <Name>
ligand

>  <RI>
0

>  <Rbt.Current_Directory>
/home/itssahil/PROJECTS/Mol_Feturizer/New_Systems/rnas/4GPW

>  <Rbt.Executable>
rbdock ($Id: //depot/dev/client3/rdock/2013.1/src/exe/rbdock.cxx#4 $)

>  <Rbt.Library>
libRbt.so (2013.1, Build901 2013/11/27)

>  <Rbt.Parameter_File>
/export/apps/rDock/src/rDock_2013.1_src/data/scripts/dock_solv.prm

>  <Rbt.Receptor>
prm/pocket_docking_4.prm

>  <SCORE>
-20.1006

>  <SCORE.INTER>
-16.6257

>  <SCORE.INTER.CONST>
1

>  <SCORE.INTER.POLAR>
0

>  <SCORE.INTER.ROT>
6

>  <SCORE.INTER.SOLV>
16.828

>  <SCORE.INTER.VDW>
-24.2932

>  <SCORE.INTER.norm>
-0.536314

>  <SCORE.INTRA>
-3.47484

>  <SCORE.INTRA.DIHEDRAL>
-6.97733

>  <SCORE.INTRA.DIHEDRAL.0>
19.2558

>  <SCORE.INTRA.POLAR>
0

>  <SCORE.INTRA.POLAR.0>
0

>  <SCORE.INTRA.REPUL>
0

>  <SCORE.INTRA.REPUL.0>
0

>  <SCORE.INTRA.SOLV>
-0.856996

>  <SCORE.INTRA.SOLV.lig_0>
-64.5929

>  <SCORE.INTRA.VDW>
0.44232

>  <SCORE.INTRA.VDW.0>
-4.40538

>  <SCORE.INTRA.norm>
-0.112092

>  <SCORE.RESTR>
0

>  <SCORE.RESTR.CAVITY>
0

>  <SCORE.RESTR.norm>
0

>  <SCORE.SYSTEM>
0

>  <SCORE.SYSTEM.CONST>
0

>  <SCORE.SYSTEM.DIHEDRAL>
0

>  <SCORE.SYSTEM.SOLV>
0

>  <SCORE.SYSTEM.norm>
0

>  <SCORE.heavy>
31

>  <SCORE.norm>
-0.648405

>  <RMSD>
0.635

$$$$
ligand
 OpenBabel11021811493D
libRbt.so/2013.1/901 2013/11/27
 31 33  0  0  0  0  0  0  0  0999 V2000
  -19.3071  -15.6035  -12.5853 C   0  0  2  0  0  0  0  0  0  0  0  0
  -19.8581  -16.0234  -13.8249 O   0  0  0  0  0  0  0  0  0  0  0  0
  -23.5879  -16.2114  -15.8811 C   0  0  2  0  0  0  0  0  0  0  0  0
  -24.9861  -16.3888  -16.1067 N   0  0  0  0  0  0  0  0  0  0  0  0
  -25.1959  -13.2563  -15.1252 C   0  0  2  0  0  0  0  0  0  0  0  0
  -17.7782  -15.2762  -12.8457 C   0  0  2  0  0  0  0  0  0  0  0  0
  -17.6751  -14.2233  -13.8667 N   0  0  0  0  0  0  0  0  0  0  0  0
  -23.0013  -17.5612  -15.2778 C   0  0  0  0  0  0  0  0  0  0  0  0
  -25.5211  -12.3168  -16.3334 C   0  0  2  0  0  0  0  0  0  0  0  0
  -25.4422  -13.0809  -17.5135 O   0  0  0  0  0  0  0  0  0  0  0  0
  -17.0223  -16.5851  -13.3063 C   0  0  0  0  0  0  0  0  0  0  0  0
  -21.4374  -17.3668  -15.0314 C   0  0  2  0  0  0  0  0  0  0  0  0
  -20.8701  -18.6140  -14.4747 N   0  0  0  0  0  0  0  0  0  0  0  0
  -24.4890  -11.1137  -16.3548 C   0  0  1  0  0  0  0  0  0  0  0  0
  -24.7843  -10.1987  -17.5150 N   0  0  0  0  0  0  0  0  0  0  0  0
  -17.4977  -17.8705  -12.5100 C   0  0  0  0  0  0  0  0  0  0  0  0
  -21.2217  -16.1766  -14.0086 C   0  0  2  0  0  0  0  0  0  0  0  0
  -24.6250  -10.2709  -14.9696 C   0  0  1  0  0  0  0  0  0  0  0  0
  -25.9091   -9.7109  -14.7831 O   0  0  0  0  0  0  0  0  0  0  0  0
  -18.6026  -17.8398  -11.7309 C   0  0  2  0  0  0  0  0  0  0  0  0
  -19.4012  -16.6622  -11.5752 O   0  0  0  0  0  0  0  0  0  0  0  0
  -21.8284  -14.8460  -14.6160 C   0  0  2  0  0  0  0  0  0  0  0  0
  -21.6384  -13.7728  -13.6790 O   0  0  0  0  0  0  0  0  0  0  0  0
  -24.3245  -11.2306  -13.7705 C   0  0  0  0  0  0  0  0  0  0  0  0
  -25.2324  -12.4574  -13.8352 O   0  0  0  0  0  0  0  0  0  0  0  0
  -19.0895  -19.0580  -10.9474 C   0  0  0  0  0  0  0  0  0  0  0  0
  -19.1480  -18.6980   -9.5584 O   0  0  0  0  0  0  0  0  0  0  0  0
  -23.3780  -15.0338  -14.8626 C   0  0  1  0  0  0  0  0  0  0  0  0
  -23.8801  -13.8299  -15.4169 O   0  0  0  0  0  0  0  0  0  0  0  0
  -23.6597   -9.0725  -14.8475 C   0  0  0  0  0  0  0  0  0  0  0  0
  -24.1256  -10.5282  -18.7954 C   0  0  0  0  0  0  0  0  0  0  0  0
  1  2  1  6  0  0  0
  1  6  1  0  0  0  0
  1 21  1  0  0  0  0
  3  4  1  1  0  0  0
  3  8  1  0  0  0  0
  3 28  1  0  0  0  0
  5  9  1  0  0  0  0
  5 25  1  0  0  0  0
  5 29  1  6  0  0  0
  6  7  1  6  0  0  0
  6 11  1  0  0  0  0
  8 12  1  0  0  0  0
  9 10  1  6  0  0  0
  9 14  1  0  0  0  0
 11 16  1  0  0  0  0
 12 13  1  1  0  0  0
 12 17  1  0  0  0  0
 14 15  1  6  0  0  0
 14 18  1  0  0  0  0
 15 31  1  0  0  0  0
 16 20  1  0  0  0  0
 17  2  1  6  0  0  0
 17 22  1  0  0  0  0
 18 19  1  1  0  0  0
 18 24  1  0  0  0  0
 18 30  1  0  0  0  0
 20 21  1  0  0  0  0
 20 26  1  1  0  0  0
 22 23  1  1  0  0  0
 22 28  1  0  0  0  0
 24 25  1  0  0  0  0
 26 27  1  0  0  0  0
 28 29  1  6  0  0  0
M  END
>  <CHROM.1>
-169.17044243,-158.00039285,-88.62922565,-147.05879047,122.42543902,98.20365923
-22.09645423,-14.52113493,-14.36914430,-0.69628200,-0.57968833,0.02988241

>  <Name>
ligand

>  <RI>
0

>  <Rbt.Current_Directory>
/home/itssahil/PROJECTS/Mol_Feturizer/New_Systems/rnas/4GPW

>  <Rbt.Executable>
rbdock ($Id: //depot/dev/client3/rdock/2013.1/src/exe/rbdock.cxx#4 $)

>  <Rbt.Library>
libRbt.so (2013.1, Build901 2013/11/27)

>  <Rbt.Parameter_File>
/export/apps/rDock/src/rDock_2013.1_src/data/scripts/dock_solv.prm

>  <Rbt.Receptor>
prm/pocket_docking_5.prm

>  <SCORE>
-19.2121

>  <SCORE.INTER>
-16.7262

>  <SCORE.INTER.CONST>
1

>  <SCORE.INTER.POLAR>
0

>  <SCORE.INTER.ROT>
6

>  <SCORE.INTER.SOLV>
17.1138

>  <SCORE.INTER.VDW>
-24.4554

>  <SCORE.INTER.norm>
-0.539556

>  <SCORE.INTRA>
-2.48588

>  <SCORE.INTRA.DIHEDRAL>
-5.06177

>  <SCORE.INTRA.DIHEDRAL.0>
19.2558

>  <SCORE.INTRA.POLAR>
0

>  <SCORE.INTRA.POLAR.0>
0

>  <SCORE.INTRA.REPUL>
0

>  <SCORE.INTRA.REPUL.0>
0

>  <SCORE.INTRA.SOLV>
-0.562668

>  <SCORE.INTRA.SOLV.lig_0>
-64.5929

>  <SCORE.INTRA.VDW>
0.326341

>  <SCORE.INTRA.VDW.0>
-4.40538

>  <SCORE.INTRA.norm>
-0.0801897

>  <SCORE.RESTR>
0

>  <SCORE.RESTR.CAVITY>
0

>  <SCORE.RESTR.norm>
0

>  <SCORE.SYSTEM>
0

>  <SCORE.SYSTEM.CONST>
0

>  <SCORE.SYSTEM.DIHEDRAL>
0

>  <SCORE.SYSTEM.SOLV>
0

>  <SCORE.SYSTEM.norm>
0

>  <SCORE.heavy>
31

>  <SCORE.norm>
-0.619745

>  <RMSD>
0.636

$$$$
ligand
 OpenBabel11021811493D
libRbt.so/2013.1/901 2013/11/27
 31 33  0  0  0  0  0  0  0  0999 V2000
  -19.1490  -15.5537  -12.7523 C   0  0  2  0  0  0  0  0  0  0  0  0
  -19.7700  -16.1464  -13.8835 O   0  0  0  0  0  0  0  0  0  0  0  0
  -23.5723  -15.8221  -15.7839 C   0  0  2  0  0  0  0  0  0  0  0  0
  -24.9861  -15.8817  -15.9713 N   0  0  0  0  0  0  0  0  0  0  0  0
  -25.0243  -12.9735  -14.7136 C   0  0  2  0  0  0  0  0  0  0  0  0
  -17.6070  -15.4136  -13.0913 C   0  0  2  0  0  0  0  0  0  0  0  0
  -17.4487  -14.5805  -14.2925 N   0  0  0  0  0  0  0  0  0  0  0  0
  -23.0554  -17.2754  -15.3956 C   0  0  0  0  0  0  0  0  0  0  0  0
  -25.4363  -12.1969  -16.0080 C   0  0  2  0  0  0  0  0  0  0  0  0
  -25.3570  -13.0883  -17.0952 O   0  0  0  0  0  0  0  0  0  0  0  0
  -16.9755  -16.8453  -13.3102 C   0  0  0  0  0  0  0  0  0  0  0  0
  -21.4746  -17.2119  -15.1925 C   0  0  2  0  0  0  0  0  0  0  0  0
  -20.9719  -18.5562  -14.8355 N   0  0  0  0  0  0  0  0  0  0  0  0
  -24.4683  -10.9572  -16.2062 C   0  0  1  0  0  0  0  0  0  0  0  0
  -24.8476  -10.1980  -17.4513 N   0  0  0  0  0  0  0  0  0  0  0  0
  -17.5306  -17.9153  -12.2809 C   0  0  0  0  0  0  0  0  0  0  0  0
  -21.1461  -16.1900  -14.0276 C   0  0  2  0  0  0  0  0  0  0  0  0
  -24.6019   -9.9667  -14.9223 C   0  0  1  0  0  0  0  0  0  0  0  0
  -25.9061   -9.4498  -14.7520 O   0  0  0  0  0  0  0  0  0  0  0  0
  -18.6051  -17.6458  -11.5054 C   0  0  2  0  0  0  0  0  0  0  0  0
  -19.2991  -16.3951  -11.5609 O   0  0  0  0  0  0  0  0  0  0  0  0
  -21.6845  -14.7539  -14.4217 C   0  0  2  0  0  0  0  0  0  0  0  0
  -21.3923  -13.8343  -13.3565 O   0  0  0  0  0  0  0  0  0  0  0  0
  -24.2139  -10.7655  -13.6338 C   0  0  0  0  0  0  0  0  0  0  0  0
  -25.0595  -12.0328  -13.5230 O   0  0  0  0  0  0  0  0  0  0  0  0
  -19.1665  -18.6512  -10.5010 C   0  0  0  0  0  0  0  0  0  0  0  0
  -20.3882  -19.1809  -11.0387 O   0  0  0  0  0  0  0  0  0  0  0  0
  -23.2506  -14.8117  -14.6247 C   0  0  1  0  0  0  0  0  0  0  0  0
  -23.6911  -13.5146  -14.9880 O   0  0  0  0  0  0  0  0  0  0  0  0
  -23.6956   -8.7181  -14.9751 C   0  0  0  0  0  0  0  0  0  0  0  0
  -24.1882  -10.6195  -18.7040 C   0  0  0  0  0  0  0  0  0  0  0  0
  1  2  1  6  0  0  0
  1  6  1  0  0  0  0
  1 21  1  0  0  0  0
  3  4  1  1  0  0  0
  3  8  1  0  0  0  0
  3 28  1  0  0  0  0
  5  9  1  0  0  0  0
  5 25  1  0  0  0  0
  5 29  1  6  0  0  0
  6  7  1  6  0  0  0
  6 11  1  0  0  0  0
  8 12  1  0  0  0  0
  9 10  1  6  0  0  0
  9 14  1  0  0  0  0
 11 16  1  0  0  0  0
 12 13  1  1  0  0  0
 12 17  1  0  0  0  0
 14 15  1  6  0  0  0
 14 18  1  0  0  0  0
 15 31  1  0  0  0  0
 16 20  1  0  0  0  0
 17  2  1  6  0  0  0
 17 22  1  0  0  0  0
 18 19  1  1  0  0  0
 18 24  1  0  0  0  0
 18 30  1  0  0  0  0
 20 21  1  0  0  0  0
 20 26  1  1  0  0  0
 22 23  1  1  0  0  0
 22 28  1  0  0  0  0
 24 25  1  0  0  0  0
 26 27  1  0  0  0  0
 28 29  1  6  0  0  0
M  END
>  <CHROM.1>
-167.92271350,-138.85315385,-90.18564009,-166.37487534,-106.03531369,89.77544877
-22.08280014,-14.40361190,-14.33516768,-0.74079473,-0.53269172,0.02604544

>  <Name>
ligand

>  <RI>
0

>  <Rbt.Current_Directory>
/home/itssahil/PROJECTS/Mol_Feturizer/New_Systems/rnas/4GPW

>  <Rbt.Executable>
rbdock ($Id: //depot/dev/client3/rdock/2013.1/src/exe/rbdock.cxx#4 $)

>  <Rbt.Library>
libRbt.so (2013.1, Build901 2013/11/27)

>  <Rbt.Parameter_File>
/export/apps/rDock/src/rDock_2013.1_src/data/scripts/dock_solv.prm

>  <Rbt.Receptor>
prm/pocket_docking_2.prm

>  <SCORE>
-20.049

>  <SCORE.INTER>
-17.1413

>  <SCORE.INTER.CONST>
1

>  <SCORE.INTER.POLAR>
0

>  <SCORE.INTER.ROT>
6

>  <SCORE.INTER.SOLV>
16.5431

>  <SCORE.INTER.VDW>
-24.5419

>  <SCORE.INTER.norm>
-0.552944

>  <SCORE.INTRA>
-2.90768

>  <SCORE.INTRA.DIHEDRAL>
-6.00284

>  <SCORE.INTRA.DIHEDRAL.0>
19.2558

>  <SCORE.INTRA.POLAR>
0

>  <SCORE.INTRA.POLAR.0>
0

>  <SCORE.INTRA.REPUL>
0

>  <SCORE.INTRA.REPUL.0>
0

>  <SCORE.INTRA.SOLV>
-1.00816

>  <SCORE.INTRA.SOLV.lig_0>
-64.5929

>  <SCORE.INTRA.VDW>
0.597818

>  <SCORE.INTRA.VDW.0>
-4.40538

>  <SCORE.INTRA.norm>
-0.0937962

>  <SCORE.RESTR>
0

>  <SCORE.RESTR.CAVITY>
0

>  <SCORE.RESTR.norm>
0

>  <SCORE.SYSTEM>
0

>  <SCORE.SYSTEM.CONST>
0

>  <SCORE.SYSTEM.DIHEDRAL>
0

>  <SCORE.SYSTEM.SOLV>
0

>  <SCORE.SYSTEM.norm>
0

>  <SCORE.heavy>
31

>  <SCORE.norm>
-0.64674

>  <RMSD>
0.637

$$$$
ligand
 OpenBabel11021811493D
libRbt.so/2013.1/901 2013/11/27
 31 33  0  0  0  0  0  0  0  0999 V2000
  -19.2849  -15.5059  -12.7768 C   0  0  2  0  0  0  0  0  0  0  0  0
  -19.8499  -16.1586  -13.9043 O   0  0  0  0  0  0  0  0  0  0  0  0
  -23.6155  -16.2915  -15.8987 C   0  0  2  0  0  0  0  0  0  0  0  0
  -25.0194  -16.4502  -16.1016 N   0  0  0  0  0  0  0  0  0  0  0  0
  -25.1908  -13.3420  -15.1410 C   0  0  2  0  0  0  0  0  0  0  0  0
  -17.7505  -15.2722  -13.0982 C   0  0  2  0  0  0  0  0  0  0  0  0
  -17.6292  -14.4530  -14.3132 N   0  0  0  0  0  0  0  0  0  0  0  0
  -23.0362  -17.6508  -15.3099 C   0  0  0  0  0  0  0  0  0  0  0  0
  -25.5073  -12.3979  -16.3479 C   0  0  2  0  0  0  0  0  0  0  0  0
  -25.4123  -13.1556  -17.5310 O   0  0  0  0  0  0  0  0  0  0  0  0
  -17.0246  -16.6637  -13.2810 C   0  0  0  0  0  0  0  0  0  0  0  0
  -21.4661  -17.4773  -15.0890 C   0  0  2  0  0  0  0  0  0  0  0  0
  -20.9057  -18.7337  -14.5461 N   0  0  0  0  0  0  0  0  0  0  0  0
  -24.4806  -11.1900  -16.3522 C   0  0  1  0  0  0  0  0  0  0  0  0
  -24.7676  -10.2705  -17.5109 N   0  0  0  0  0  0  0  0  0  0  0  0
  -17.5239  -17.7483  -12.2385 C   0  0  0  0  0  0  0  0  0  0  0  0
  -21.2181  -16.2937  -14.0658 C   0  0  2  0  0  0  0  0  0  0  0  0
  -24.6352  -10.3549  -14.9643 C   0  0  1  0  0  0  0  0  0  0  0  0
  -25.9237   -9.8016  -14.7888 O   0  0  0  0  0  0  0  0  0  0  0  0
  -18.6246  -17.5348  -11.4825 C   0  0  2  0  0  0  0  0  0  0  0  0
  -19.3973  -16.3332  -11.5714 O   0  0  0  0  0  0  0  0  0  0  0  0
  -21.8178  -14.9532  -14.6585 C   0  0  2  0  0  0  0  0  0  0  0  0
  -21.5985  -13.8860  -13.7210 O   0  0  0  0  0  0  0  0  0  0  0  0
  -24.3432  -11.3193  -13.7669 C   0  0  0  0  0  0  0  0  0  0  0  0
  -25.2447  -12.5498  -13.8475 O   0  0  0  0  0  0  0  0  0  0  0  0
  -19.1341  -18.5559  -10.4663 C   0  0  0  0  0  0  0  0  0  0  0  0
  -20.3310  -19.1484  -10.9942 O   0  0  0  0  0  0  0  0  0  0  0  0
  -23.3735  -15.1203  -14.8798 C   0  0  1  0  0  0  0  0  0  0  0  0
  -23.8693  -13.9082  -15.4215 O   0  0  0  0  0  0  0  0  0  0  0  0
  -23.6767   -9.1527  -14.8258 C   0  0  0  0  0  0  0  0  0  0  0  0
  -24.1071  -10.6003  -18.7902 C   0  0  0  0  0  0  0  0  0  0  0  0
  1  2  1  6  0  0  0
  1  6  1  0  0  0  0
  1 21  1  0  0  0  0
  3  4  1  1  0  0  0
  3  8  1  0  0  0  0
  3 28  1  0  0  0  0
  5  9  1  0  0  0  0
  5 25  1  0  0  0  0
  5 29  1  6  0  0  0
  6  7  1  6  0  0  0
  6 11  1  0  0  0  0
  8 12  1  0  0  0  0
  9 10  1  6  0  0  0
  9 14  1  0  0  0  0
 11 16  1  0  0  0  0
 12 13  1  1  0  0  0
 12 17  1  0  0  0  0
 14 15  1  6  0  0  0
 14 18  1  0  0  0  0
 15 31  1  0  0  0  0
 16 20  1  0  0  0  0
 17  2  1  6  0  0  0
 17 22  1  0  0  0  0
 18 19  1  1  0  0  0
 18 24  1  0  0  0  0
 18 30  1  0  0  0  0
 20 21  1  0  0  0  0
 20 26  1  1  0  0  0
 22 23  1  1  0  0  0
 22 28  1  0  0  0  0
 24 25  1  0  0  0  0
 26 27  1  0  0  0  0
 28 29  1  6  0  0  0
M  END
>  <CHROM.1>
-167.89540544,-157.24178135,-87.88610073,-159.74391866,-107.53222458,96.01901358
-22.14107226,-14.56800345,-14.43070041,-0.73039336,-0.52664632,-0.02202461

>  <Name>
ligand

>  <RI>
0

>  <Rbt.Current_Directory>
/home/itssahil/PROJECTS/Mol_Feturizer/New_Systems/rnas/4GPW

>  <Rbt.Executable>
rbdock ($Id: //depot/dev/client3/rdock/2013.1/src/exe/rbdock.cxx#4 $)

>  <Rbt.Library>
libRbt.so (2013.1, Build901 2013/11/27)

>  <Rbt.Parameter_File>
/export/apps/rDock/src/rDock_2013.1_src/data/scripts/dock_solv.prm

>  <Rbt.Receptor>
prm/pocket_docking_3.prm

>  <SCORE>
-20.2128

>  <SCORE.INTER>
-16.5213

>  <SCORE.INTER.CONST>
1

>  <SCORE.INTER.POLAR>
0

>  <SCORE.INTER.ROT>
6

>  <SCORE.INTER.SOLV>
16.6139

>  <SCORE.INTER.VDW>
-24.1522

>  <SCORE.INTER.norm>
-0.532946

>  <SCORE.INTRA>
-3.69152

>  <SCORE.INTRA.DIHEDRAL>
-7.31834

>  <SCORE.INTRA.DIHEDRAL.0>
19.2558

>  <SCORE.INTRA.POLAR>
0

>  <SCORE.INTRA.POLAR.0>
0

>  <SCORE.INTRA.REPUL>
0

>  <SCORE.INTRA.REPUL.0>
0

>  <SCORE.INTRA.SOLV>
-0.923144

>  <SCORE.INTRA.SOLV.lig_0>
-64.5929

>  <SCORE.INTRA.VDW>
0.429225

>  <SCORE.INTRA.VDW.0>
-4.40538

>  <SCORE.INTRA.norm>
-0.119081

>  <SCORE.RESTR>
0

>  <SCORE.RESTR.CAVITY>
0

>  <SCORE.RESTR.norm>
0

>  <SCORE.SYSTEM>
0

>  <SCORE.SYSTEM.CONST>
0

>  <SCORE.SYSTEM.DIHEDRAL>
0

>  <SCORE.SYSTEM.SOLV>
0

>  <SCORE.SYSTEM.norm>
0

>  <SCORE.heavy>
31

>  <SCORE.norm>
-0.652027

>  <RMSD>
0.637

$$$$
ligand
 OpenBabel11021811493D
libRbt.so/2013.1/901 2013/11/27
 31 33  0  0  0  0  0  0  0  0999 V2000
  -19.2909  -15.5670  -12.8093 C   0  0  2  0  0  0  0  0  0  0  0  0
  -19.8684  -16.2075  -13.9375 O   0  0  0  0  0  0  0  0  0  0  0  0
  -23.6497  -16.3248  -15.9028 C   0  0  2  0  0  0  0  0  0  0  0  0
  -25.0560  -16.4764  -16.0947 N   0  0  0  0  0  0  0  0  0  0  0  0
  -25.1998  -13.3605  -15.1333 C   0  0  2  0  0  0  0  0  0  0  0  0
  -17.7551  -15.3503  -13.1360 C   0  0  2  0  0  0  0  0  0  0  0  0
  -17.6290  -14.5270  -14.3476 N   0  0  0  0  0  0  0  0  0  0  0  0
  -23.0734  -17.6858  -15.3152 C   0  0  0  0  0  0  0  0  0  0  0  0
  -25.5263  -12.4212  -16.3413 C   0  0  2  0  0  0  0  0  0  0  0  0
  -25.4546  -13.1867  -17.5208 O   0  0  0  0  0  0  0  0  0  0  0  0
  -17.0469  -16.7496  -13.3282 C   0  0  0  0  0  0  0  0  0  0  0  0
  -21.5007  -17.5203  -15.1066 C   0  0  2  0  0  0  0  0  0  0  0  0
  -20.9429  -18.7784  -14.5650 N   0  0  0  0  0  0  0  0  0  0  0  0
  -24.4901  -11.2216  -16.3678 C   0  0  1  0  0  0  0  0  0  0  0  0
  -24.7866  -10.3069  -17.5279 N   0  0  0  0  0  0  0  0  0  0  0  0
  -17.5550  -17.8330  -12.2887 C   0  0  0  0  0  0  0  0  0  0  0  0
  -21.2386  -16.3357  -14.0882 C   0  0  2  0  0  0  0  0  0  0  0  0
  -24.6179  -10.3770  -14.9830 C   0  0  1  0  0  0  0  0  0  0  0  0
  -25.8993   -9.8123  -14.7922 O   0  0  0  0  0  0  0  0  0  0  0  0
  -18.6500  -17.6098  -11.5271 C   0  0  2  0  0  0  0  0  0  0  0  0
  -19.4084  -16.3985  -11.6073 O   0  0  0  0  0  0  0  0  0  0  0  0
  -21.8355  -14.9934  -14.6795 C   0  0  2  0  0  0  0  0  0  0  0  0
  -21.6033  -13.9252  -13.7463 O   0  0  0  0  0  0  0  0  0  0  0  0
  -24.3162  -11.3365  -13.7840 C   0  0  0  0  0  0  0  0  0  0  0  0
  -25.2286  -12.5602  -13.8440 O   0  0  0  0  0  0  0  0  0  0  0  0
  -19.1676  -18.6294  -10.5136 C   0  0  0  0  0  0  0  0  0  0  0  0
  -20.3700  -19.2099  -11.0422 O   0  0  0  0  0  0  0  0  0  0  0  0
  -23.3937  -15.1526  -14.8886 C   0  0  1  0  0  0  0  0  0  0  0  0
  -23.8871  -13.9390  -15.4294 O   0  0  0  0  0  0  0  0  0  0  0  0
  -23.6480   -9.1818  -14.8658 C   0  0  0  0  0  0  0  0  0  0  0  0
  -24.1051  -10.6185  -18.8008 C   0  0  0  0  0  0  0  0  0  0  0  0
  1  2  1  6  0  0  0
  1  6  1  0  0  0  0
  1 21  1  0  0  0  0
  3  4  1  1  0  0  0
  3  8  1  0  0  0  0
  3 28  1  0  0  0  0
  5  9  1  0  0  0  0
  5 25  1  0  0  0  0
  5 29  1  6  0  0  0
  6  7  1  6  0  0  0
  6 11  1  0  0  0  0
  8 12  1  0  0  0  0
  9 10  1  6  0  0  0
  9 14  1  0  0  0  0
 11 16  1  0  0  0  0
 12 13  1  1  0  0  0
 12 17  1  0  0  0  0
 14 15  1  6  0  0  0
 14 18  1  0  0  0  0
 15 31  1  0  0  0  0
 16 20  1  0  0  0  0
 17  2  1  6  0  0  0
 17 22  1  0  0  0  0
 18 19  1  1  0  0  0
 18 24  1  0  0  0  0
 18 30  1  0  0  0  0
 20 21  1  0  0  0  0
 20 26  1  1  0  0  0
 22 23  1  1  0  0  0
 22 28  1  0  0  0  0
 24 25  1  0  0  0  0
 26 27  1  0  0  0  0
 28 29  1  6  0  0  0
M  END
>  <CHROM.1>
-168.46899269,-157.17177049,-90.24258671,-159.10359484,-107.24653114,96.44991892
-22.15493764,-14.61048788,-14.45102209,-0.74188922,-0.51617746,-0.03211202

>  <Name>
ligand

>  <RI>
0

>  <Rbt.Current_Directory>
/home/itssahil/PROJECTS/Mol_Feturizer/New_Systems/rnas/4GPW

>  <Rbt.Executable>
rbdock ($Id: //depot/dev/client3/rdock/2013.1/src/exe/rbdock.cxx#4 $)

>  <Rbt.Library>
libRbt.so (2013.1, Build901 2013/11/27)

>  <Rbt.Parameter_File>
/export/apps/rDock/src/rDock_2013.1_src/data/scripts/dock_solv.prm

>  <Rbt.Receptor>
prm/pocket_docking_4.prm

>  <SCORE>
-20.3149

>  <SCORE.INTER>
-16.6844

>  <SCORE.INTER.CONST>
1

>  <SCORE.INTER.POLAR>
0

>  <SCORE.INTER.ROT>
6

>  <SCORE.INTER.SOLV>
16.6114

>  <SCORE.INTER.VDW>
-24.26

>  <SCORE.INTER.norm>
-0.538205

>  <SCORE.INTRA>
-3.63056

>  <SCORE.INTRA.DIHEDRAL>
-7.10314

>  <SCORE.INTRA.DIHEDRAL.0>
19.2558

>  <SCORE.INTRA.POLAR>
0

>  <SCORE.INTRA.POLAR.0>
0

>  <SCORE.INTRA.REPUL>
0

>  <SCORE.INTRA.REPUL.0>
0

>  <SCORE.INTRA.SOLV>
-0.86527

>  <SCORE.INTRA.SOLV.lig_0>
-64.5929

>  <SCORE.INTRA.VDW>
0.353646

>  <SCORE.INTRA.VDW.0>
-4.40538

>  <SCORE.INTRA.norm>
-0.117115

>  <SCORE.RESTR>
0

>  <SCORE.RESTR.CAVITY>
0

>  <SCORE.RESTR.norm>
0

>  <SCORE.SYSTEM>
0

>  <SCORE.SYSTEM.CONST>
0

>  <SCORE.SYSTEM.DIHEDRAL>
0

>  <SCORE.SYSTEM.SOLV>
0

>  <SCORE.SYSTEM.norm>
0

>  <SCORE.heavy>
31

>  <SCORE.norm>
-0.65532

>  <RMSD>
0.637

$$$$
ligand
 OpenBabel11021811493D
libRbt.so/2013.1/901 2013/11/27
 31 33  0  0  0  0  0  0  0  0999 V2000
  -19.3310  -15.6263  -12.6075 C   0  0  2  0  0  0  0  0  0  0  0  0
  -19.8750  -16.0466  -13.8501 O   0  0  0  0  0  0  0  0  0  0  0  0
  -23.5965  -16.0780  -15.9296 C   0  0  2  0  0  0  0  0  0  0  0  0
  -24.9950  -16.2299  -16.1715 N   0  0  0  0  0  0  0  0  0  0  0  0
  -25.1900  -13.1681  -15.0115 C   0  0  2  0  0  0  0  0  0  0  0  0
  -17.7974  -15.3124  -12.8563 C   0  0  2  0  0  0  0  0  0  0  0  0
  -17.6772  -14.2643  -13.8804 N   0  0  0  0  0  0  0  0  0  0  0  0
  -23.0233  -17.4669  -15.4076 C   0  0  0  0  0  0  0  0  0  0  0  0
  -25.5580  -12.2602  -16.2316 C   0  0  2  0  0  0  0  0  0  0  0  0
  -25.4938  -13.0482  -17.3967 O   0  0  0  0  0  0  0  0  0  0  0  0
  -17.0483  -16.6290  -13.3055 C   0  0  0  0  0  0  0  0  0  0  0  0
  -21.4591  -17.3007  -15.1432 C   0  0  2  0  0  0  0  0  0  0  0  0
  -20.9043  -18.5843  -14.6616 N   0  0  0  0  0  0  0  0  0  0  0  0
  -24.5463  -11.0417  -16.3025 C   0  0  1  0  0  0  0  0  0  0  0  0
  -24.8828  -10.1568  -17.4747 N   0  0  0  0  0  0  0  0  0  0  0  0
  -17.5407  -17.9075  -12.5083 C   0  0  0  0  0  0  0  0  0  0  0  0
  -21.2388  -16.1772  -14.0486 C   0  0  2  0  0  0  0  0  0  0  0  0
  -24.6640  -10.1715  -14.9327 C   0  0  1  0  0  0  0  0  0  0  0  0
  -25.9524   -9.6278  -14.7283 O   0  0  0  0  0  0  0  0  0  0  0  0
  -18.6518  -17.8649  -11.7387 C   0  0  2  0  0  0  0  0  0  0  0  0
  -19.4421  -16.6802  -11.5942 O   0  0  0  0  0  0  0  0  0  0  0  0
  -21.8323  -14.8070  -14.5759 C   0  0  2  0  0  0  0  0  0  0  0  0
  -21.6382  -13.7948  -13.5741 O   0  0  0  0  0  0  0  0  0  0  0  0
  -24.3207  -11.1002  -13.7208 C   0  0  0  0  0  0  0  0  0  0  0  0
  -25.2098  -12.3421  -13.7383 O   0  0  0  0  0  0  0  0  0  0  0  0
  -19.1551  -19.0760  -10.9546 C   0  0  0  0  0  0  0  0  0  0  0  0
  -19.1668  -18.7291   -9.5611 O   0  0  0  0  0  0  0  0  0  0  0  0
  -23.3821  -14.9667  -14.8400 C   0  0  1  0  0  0  0  0  0  0  0  0
  -23.8721  -13.7271  -15.3215 O   0  0  0  0  0  0  0  0  0  0  0  0
  -23.7157   -8.9556  -14.8586 C   0  0  0  0  0  0  0  0  0  0  0  0
  -24.2447  -10.5007  -18.7617 C   0  0  0  0  0  0  0  0  0  0  0  0
  1  2  1  6  0  0  0
  1  6  1  0  0  0  0
  1 21  1  0  0  0  0
  3  4  1  1  0  0  0
  3  8  1  0  0  0  0
  3 28  1  0  0  0  0
  5  9  1  0  0  0  0
  5 25  1  0  0  0  0
  5 29  1  6  0  0  0
  6  7  1  6  0  0  0
  6 11  1  0  0  0  0
  8 12  1  0  0  0  0
  9 10  1  6  0  0  0
  9 14  1  0  0  0  0
 11 16  1  0  0  0  0
 12 13  1  1  0  0  0
 12 17  1  0  0  0  0
 14 15  1  6  0  0  0
 14 18  1  0  0  0  0
 15 31  1  0  0  0  0
 16 20  1  0  0  0  0
 17  2  1  6  0  0  0
 17 22  1  0  0  0  0
 18 19  1  1  0  0  0
 18 24  1  0  0  0  0
 18 30  1  0  0  0  0
 20 21  1  0  0  0  0
 20 26  1  1  0  0  0
 22 23  1  1  0  0  0
 22 28  1  0  0  0  0
 24 25  1  0  0  0  0
 26 27  1  0  0  0  0
 28 29  1  6  0  0  0
M  END
>  <CHROM.1>
-168.53755081,-152.47709613,-88.83768116,-151.09605522,119.94798879,97.55700630
-22.12506574,-14.48172956,-14.35924163,-0.67583869,-0.60630838,0.08486122

>  <Name>
ligand

>  <RI>
0

>  <Rbt.Current_Directory>
/home/itssahil/PROJECTS/Mol_Feturizer/New_Systems/rnas/4GPW

>  <Rbt.Executable>
rbdock ($Id: //depot/dev/client3/rdock/2013.1/src/exe/rbdock.cxx#4 $)

>  <Rbt.Library>
libRbt.so (2013.1, Build901 2013/11/27)

>  <Rbt.Parameter_File>
/export/apps/rDock/src/rDock_2013.1_src/data/scripts/dock_solv.prm

>  <Rbt.Receptor>
prm/pocket_docking_3.prm

>  <SCORE>
-19.1338

>  <SCORE.INTER>
-16.7701

>  <SCORE.INTER.CONST>
1

>  <SCORE.INTER.POLAR>
0

>  <SCORE.INTER.ROT>
6

>  <SCORE.INTER.SOLV>
17.2129

>  <SCORE.INTER.VDW>
-24.5177

>  <SCORE.INTER.norm>
-0.540972

>  <SCORE.INTRA>
-2.36363

>  <SCORE.INTRA.DIHEDRAL>
-4.86757

>  <SCORE.INTRA.DIHEDRAL.0>
19.2558

>  <SCORE.INTRA.POLAR>
0

>  <SCORE.INTRA.POLAR.0>
0

>  <SCORE.INTRA.REPUL>
0

>  <SCORE.INTRA.REPUL.0>
0

>  <SCORE.INTRA.SOLV>
-0.670583

>  <SCORE.INTRA.SOLV.lig_0>
-64.5929

>  <SCORE.INTRA.VDW>
0.405445

>  <SCORE.INTRA.VDW.0>
-4.40538

>  <SCORE.INTRA.norm>
-0.0762462

>  <SCORE.RESTR>
0

>  <SCORE.RESTR.CAVITY>
0

>  <SCORE.RESTR.norm>
0

>  <SCORE.SYSTEM>
0

>  <SCORE.SYSTEM.CONST>
0

>  <SCORE.SYSTEM.DIHEDRAL>
0

>  <SCORE.SYSTEM.SOLV>
0

>  <SCORE.SYSTEM.norm>
0

>  <SCORE.heavy>
31

>  <SCORE.norm>
-0.617218

>  <RMSD>
0.638

$$$$
ligand
 OpenBabel11021811493D
libRbt.so/2013.1/901 2013/11/27
 31 33  0  0  0  0  0  0  0  0999 V2000
  -19.3311  -15.6020  -12.5883 C   0  0  2  0  0  0  0  0  0  0  0  0
  -19.8804  -16.0055  -13.8341 O   0  0  0  0  0  0  0  0  0  0  0  0
  -23.6059  -16.2490  -15.8922 C   0  0  2  0  0  0  0  0  0  0  0  0
  -25.0025  -16.4395  -16.1171 N   0  0  0  0  0  0  0  0  0  0  0  0
  -25.2274  -13.2837  -15.1638 C   0  0  2  0  0  0  0  0  0  0  0  0
  -17.7979  -15.2872  -12.8388 C   0  0  2  0  0  0  0  0  0  0  0  0
  -17.6800  -14.2263  -13.8499 N   0  0  0  0  0  0  0  0  0  0  0  0
  -23.0106  -17.5859  -15.2692 C   0  0  0  0  0  0  0  0  0  0  0  0
  -25.5414  -12.3211  -16.3567 C   0  0  2  0  0  0  0  0  0  0  0  0
  -25.4658  -13.0656  -17.5494 O   0  0  0  0  0  0  0  0  0  0  0  0
  -17.0526  -16.5992  -13.3077 C   0  0  0  0  0  0  0  0  0  0  0  0
  -21.4484  -17.3770  -15.0236 C   0  0  2  0  0  0  0  0  0  0  0  0
  -20.8731  -18.6122  -14.4486 N   0  0  0  0  0  0  0  0  0  0  0  0
  -24.4992  -11.1265  -16.3550 C   0  0  1  0  0  0  0  0  0  0  0  0
  -24.7836  -10.1895  -17.5003 N   0  0  0  0  0  0  0  0  0  0  0  0
  -17.5439  -17.8870  -12.5251 C   0  0  0  0  0  0  0  0  0  0  0  0
  -21.2426  -16.1710  -14.0173 C   0  0  2  0  0  0  0  0  0  0  0  0
  -24.6317  -10.3063  -14.9560 C   0  0  1  0  0  0  0  0  0  0  0  0
  -25.9115   -9.7387  -14.7632 O   0  0  0  0  0  0  0  0  0  0  0  0
  -18.6520  -17.8526  -11.7508 C   0  0  2  0  0  0  0  0  0  0  0  0
  -19.4400  -16.6687  -11.5882 O   0  0  0  0  0  0  0  0  0  0  0  0
  -21.8579  -14.8534  -14.6442 C   0  0  2  0  0  0  0  0  0  0  0  0
  -21.6768  -13.7659  -13.7221 O   0  0  0  0  0  0  0  0  0  0  0  0
  -24.3425  -11.2887  -13.7727 C   0  0  0  0  0  0  0  0  0  0  0  0
  -25.2605  -12.5065  -13.8605 O   0  0  0  0  0  0  0  0  0  0  0  0
  -19.1543  -19.0729  -10.9804 C   0  0  0  0  0  0  0  0  0  0  0  0
  -19.2046  -18.7285   -9.5872 O   0  0  0  0  0  0  0  0  0  0  0  0
  -23.4058  -15.0557  -14.8901 C   0  0  1  0  0  0  0  0  0  0  0  0
  -23.9156  -13.8634  -15.4619 O   0  0  0  0  0  0  0  0  0  0  0  0
  -23.6566   -9.1183  -14.8112 C   0  0  0  0  0  0  0  0  0  0  0  0
  -24.1449  -10.5173  -18.7911 C   0  0  0  0  0  0  0  0  0  0  0  0
  1  2  1  6  0  0  0
  1  6  1  0  0  0  0
  1 21  1  0  0  0  0
  3  4  1  1  0  0  0
  3  8  1  0  0  0  0
  3 28  1  0  0  0  0
  5  9  1  0  0  0  0
  5 25  1  0  0  0  0
  5 29  1  6  0  0  0
  6  7  1  6  0  0  0
  6 11  1  0  0  0  0
  8 12  1  0  0  0  0
  9 10  1  6  0  0  0
  9 14  1  0  0  0  0
 11 16  1  0  0  0  0
 12 13  1  1  0  0  0
 12 17  1  0  0  0  0
 14 15  1  6  0  0  0
 14 18  1  0  0  0  0
 15 31  1  0  0  0  0
 16 20  1  0  0  0  0
 17  2  1  6  0  0  0
 17 22  1  0  0  0  0
 18 19  1  1  0  0  0
 18 24  1  0  0  0  0
 18 30  1  0  0  0  0
 20 21  1  0  0  0  0
 20 26  1  1  0  0  0
 22 23  1  1  0  0  0
 22 28  1  0  0  0  0
 24 25  1  0  0  0  0
 26 27  1  0  0  0  0
 28 29  1  6  0  0  0
M  END
>  <CHROM.1>
-170.55192279,-160.39468304,-87.50212329,-145.17657257,121.93269329,99.23484757
-22.12004218,-14.53675739,-14.37814925,-0.70087071,-0.57588167,0.02293676

>  <Name>
ligand

>  <RI>
0

>  <Rbt.Current_Directory>
/home/itssahil/PROJECTS/Mol_Feturizer/New_Systems/rnas/4GPW

>  <Rbt.Executable>
rbdock ($Id: //depot/dev/client3/rdock/2013.1/src/exe/rbdock.cxx#4 $)

>  <Rbt.Library>
libRbt.so (2013.1, Build901 2013/11/27)

>  <Rbt.Parameter_File>
/export/apps/rDock/src/rDock_2013.1_src/data/scripts/dock_solv.prm

>  <Rbt.Receptor>
prm/pocket_docking_3.prm

>  <SCORE>
-19.2453

>  <SCORE.INTER>
-16.7449

>  <SCORE.INTER.CONST>
1

>  <SCORE.INTER.POLAR>
0

>  <SCORE.INTER.ROT>
6

>  <SCORE.INTER.SOLV>
17.064

>  <SCORE.INTER.VDW>
-24.4513

>  <SCORE.INTER.norm>
-0.540158

>  <SCORE.INTRA>
-2.50045

>  <SCORE.INTRA.DIHEDRAL>
-5.11026

>  <SCORE.INTRA.DIHEDRAL.0>
19.2558

>  <SCORE.INTRA.POLAR>
0

>  <SCORE.INTRA.POLAR.0>
0

>  <SCORE.INTRA.REPUL>
0

>  <SCORE.INTRA.REPUL.0>
0

>  <SCORE.INTRA.SOLV>
-0.509257

>  <SCORE.INTRA.SOLV.lig_0>
-64.5929

>  <SCORE.INTRA.VDW>
0.309313

>  <SCORE.INTRA.VDW.0>
-4.40538

>  <SCORE.INTRA.norm>
-0.0806596

>  <SCORE.RESTR>
0

>  <SCORE.RESTR.CAVITY>
0

>  <SCORE.RESTR.norm>
0

>  <SCORE.SYSTEM>
0

>  <SCORE.SYSTEM.CONST>
0

>  <SCORE.SYSTEM.DIHEDRAL>
0

>  <SCORE.SYSTEM.SOLV>
0

>  <SCORE.SYSTEM.norm>
0

>  <SCORE.heavy>
31

>  <SCORE.norm>
-0.620817

>  <RMSD>
0.638

$$$$
ligand
 OpenBabel11021811493D
libRbt.so/2013.1/901 2013/11/27
 31 33  0  0  0  0  0  0  0  0999 V2000
  -19.3330  -15.6035  -12.6560 C   0  0  2  0  0  0  0  0  0  0  0  0
  -19.8771  -16.0473  -13.8904 O   0  0  0  0  0  0  0  0  0  0  0  0
  -23.6022  -16.1934  -15.9585 C   0  0  2  0  0  0  0  0  0  0  0  0
  -24.9996  -16.3679  -16.1913 N   0  0  0  0  0  0  0  0  0  0  0  0
  -25.2082  -13.2486  -15.1196 C   0  0  2  0  0  0  0  0  0  0  0  0
  -17.8082  -15.2599  -12.9193 C   0  0  2  0  0  0  0  0  0  0  0  0
  -17.7177  -14.2196  -13.9544 N   0  0  0  0  0  0  0  0  0  0  0  0
  -23.0144  -17.5560  -15.3859 C   0  0  0  0  0  0  0  0  0  0  0  0
  -25.5500  -12.2960  -16.3128 C   0  0  2  0  0  0  0  0  0  0  0  0
  -25.4939  -13.0485  -17.5016 O   0  0  0  0  0  0  0  0  0  0  0  0
  -17.0348  -16.5648  -13.3615 C   0  0  0  0  0  0  0  0  0  0  0  0
  -21.4514  -17.3647  -15.1316 C   0  0  2  0  0  0  0  0  0  0  0  0
  -20.8831  -18.6237  -14.6031 N   0  0  0  0  0  0  0  0  0  0  0  0
  -24.5139  -11.0964  -16.3396 C   0  0  1  0  0  0  0  0  0  0  0  0
  -24.8251  -10.1689  -17.4856 N   0  0  0  0  0  0  0  0  0  0  0  0
  -17.4943  -17.8455  -12.5483 C   0  0  0  0  0  0  0  0  0  0  0  0
  -21.2400  -16.1986  -14.0806 C   0  0  2  0  0  0  0  0  0  0  0  0
  -24.6233  -10.2670  -14.9441 C   0  0  1  0  0  0  0  0  0  0  0  0
  -25.9020   -9.7042  -14.7304 O   0  0  0  0  0  0  0  0  0  0  0  0
  -18.6004  -17.8187  -11.7708 C   0  0  2  0  0  0  0  0  0  0  0  0
  -19.4145  -16.6496  -11.6319 O   0  0  0  0  0  0  0  0  0  0  0  0
  -21.8478  -14.8551  -14.6579 C   0  0  2  0  0  0  0  0  0  0  0  0
  -21.6617  -13.8039  -13.6955 O   0  0  0  0  0  0  0  0  0  0  0  0
  -24.3064  -11.2397  -13.7598 C   0  0  0  0  0  0  0  0  0  0  0  0
  -25.2199  -12.4625  -13.8213 O   0  0  0  0  0  0  0  0  0  0  0  0
  -19.0723  -19.0324  -10.9713 C   0  0  0  0  0  0  0  0  0  0  0  0
  -19.1791  -18.6422   -9.5935 O   0  0  0  0  0  0  0  0  0  0  0  0
  -23.3965  -15.0397  -14.9122 C   0  0  1  0  0  0  0  0  0  0  0  0
  -23.8996  -13.8241  -15.4391 O   0  0  0  0  0  0  0  0  0  0  0  0
  -23.6516   -9.0734  -14.8264 C   0  0  0  0  0  0  0  0  0  0  0  0
  -24.1934  -10.4910  -18.7814 C   0  0  0  0  0  0  0  0  0  0  0  0
  1  2  1  6  0  0  0
  1  6  1  0  0  0  0
  1 21  1  0  0  0  0
  3  4  1  1  0  0  0
  3  8  1  0  0  0  0
  3 28  1  0  0  0  0
  5  9  1  0  0  0  0
  5 25  1  0  0  0  0
  5 29  1  6  0  0  0
  6  7  1  6  0  0  0
  6 11  1  0  0  0  0
  8 12  1  0  0  0  0
  9 10  1  6  0  0  0
  9 14  1  0  0  0  0
 11 16  1  0  0  0  0
 12 13  1  1  0  0  0
 12 17  1  0  0  0  0
 14 15  1  6  0  0  0
 14 18  1  0  0  0  0
 15 31  1  0  0  0  0
 16 20  1  0  0  0  0
 17  2  1  6  0  0  0
 17 22  1  0  0  0  0
 18 19  1  1  0  0  0
 18 24  1  0  0  0  0
 18 30  1  0  0  0  0
 20 21  1  0  0  0  0
 20 26  1  1  0  0  0
 22 23  1  1  0  0  0
 22 28  1  0  0  0  0
 24 25  1  0  0  0  0
 26 27  1  0  0  0  0
 28 29  1  6  0  0  0
M  END
>  <CHROM.1>
-168.02456929,-157.55491005,-88.40153830,-149.66331205,124.27927965,99.27241664
-22.11261706,-14.51232873,-14.40135912,-0.68087768,-0.59242495,0.06113567

>  <Name>
ligand

>  <RI>
0

>  <Rbt.Current_Directory>
/home/itssahil/PROJECTS/Mol_Feturizer/New_Systems/rnas/4GPW

>  <Rbt.Executable>
rbdock ($Id: //depot/dev/client3/rdock/2013.1/src/exe/rbdock.cxx#4 $)

>  <Rbt.Library>
libRbt.so (2013.1, Build901 2013/11/27)

>  <Rbt.Parameter_File>
/export/apps/rDock/src/rDock_2013.1_src/data/scripts/dock_solv.prm

>  <Rbt.Receptor>
prm/pocket_docking_7.prm

>  <SCORE>
-19.1403

>  <SCORE.INTER>
-16.5568

>  <SCORE.INTER.CONST>
1

>  <SCORE.INTER.POLAR>
0

>  <SCORE.INTER.ROT>
6

>  <SCORE.INTER.SOLV>
16.9014

>  <SCORE.INTER.VDW>
-24.2717

>  <SCORE.INTER.norm>
-0.534092

>  <SCORE.INTRA>
-2.58346

>  <SCORE.INTRA.DIHEDRAL>
-5.16232

>  <SCORE.INTRA.DIHEDRAL.0>
19.2558

>  <SCORE.INTRA.POLAR>
0

>  <SCORE.INTRA.POLAR.0>
0

>  <SCORE.INTRA.REPUL>
0

>  <SCORE.INTRA.REPUL.0>
0

>  <SCORE.INTRA.SOLV>
-0.724035

>  <SCORE.INTRA.SOLV.lig_0>
-64.5929

>  <SCORE.INTRA.VDW>
0.359714

>  <SCORE.INTRA.VDW.0>
-4.40538

>  <SCORE.INTRA.norm>
-0.0833376

>  <SCORE.RESTR>
0

>  <SCORE.RESTR.CAVITY>
0

>  <SCORE.RESTR.norm>
0

>  <SCORE.SYSTEM>
0

>  <SCORE.SYSTEM.CONST>
0

>  <SCORE.SYSTEM.DIHEDRAL>
0

>  <SCORE.SYSTEM.SOLV>
0

>  <SCORE.SYSTEM.norm>
0

>  <SCORE.heavy>
31

>  <SCORE.norm>
-0.617429

>  <RMSD>
0.639

$$$$
ligand
 OpenBabel11021811493D
libRbt.so/2013.1/901 2013/11/27
 31 33  0  0  0  0  0  0  0  0999 V2000
  -19.2826  -15.5437  -12.7853 C   0  0  2  0  0  0  0  0  0  0  0  0
  -19.8554  -16.1953  -13.9096 O   0  0  0  0  0  0  0  0  0  0  0  0
  -23.6280  -16.3244  -15.8907 C   0  0  2  0  0  0  0  0  0  0  0  0
  -25.0335  -16.4766  -16.0877 N   0  0  0  0  0  0  0  0  0  0  0  0
  -25.1886  -13.3656  -15.1668 C   0  0  2  0  0  0  0  0  0  0  0  0
  -17.7492  -15.3146  -13.1149 C   0  0  2  0  0  0  0  0  0  0  0  0
  -17.6319  -14.4964  -14.3308 N   0  0  0  0  0  0  0  0  0  0  0  0
  -23.0550  -17.6816  -15.2909 C   0  0  0  0  0  0  0  0  0  0  0  0
  -25.4924  -12.4221  -16.3775 C   0  0  2  0  0  0  0  0  0  0  0  0
  -25.3891  -13.1814  -17.5588 O   0  0  0  0  0  0  0  0  0  0  0  0
  -17.0283  -16.7083  -13.3007 C   0  0  0  0  0  0  0  0  0  0  0  0
  -21.4832  -17.5154  -15.0766 C   0  0  2  0  0  0  0  0  0  0  0  0
  -20.9286  -18.7700  -14.5236 N   0  0  0  0  0  0  0  0  0  0  0  0
  -24.4628  -11.2166  -16.3743 C   0  0  1  0  0  0  0  0  0  0  0  0
  -24.7376  -10.2978  -17.5365 N   0  0  0  0  0  0  0  0  0  0  0  0
  -17.5253  -17.7909  -12.2550 C   0  0  0  0  0  0  0  0  0  0  0  0
  -21.2249  -16.3237  -14.0655 C   0  0  2  0  0  0  0  0  0  0  0  0
  -24.6273  -10.3796  -14.9887 C   0  0  1  0  0  0  0  0  0  0  0  0
  -25.9159   -9.8230  -14.8248 O   0  0  0  0  0  0  0  0  0  0  0  0
  -18.6215  -17.5738  -11.4934 C   0  0  2  0  0  0  0  0  0  0  0  0
  -19.3911  -16.3700  -11.5790 O   0  0  0  0  0  0  0  0  0  0  0  0
  -21.8185  -14.9853  -14.6689 C   0  0  2  0  0  0  0  0  0  0  0  0
  -21.5897  -13.9106  -13.7423 O   0  0  0  0  0  0  0  0  0  0  0  0
  -24.3479  -11.3433  -13.7878 C   0  0  0  0  0  0  0  0  0  0  0  0
  -25.2517  -12.5718  -13.8747 O   0  0  0  0  0  0  0  0  0  0  0  0
  -19.1287  -18.5929  -10.4741 C   0  0  0  0  0  0  0  0  0  0  0  0
  -20.2801  -19.2444  -11.0327 O   0  0  0  0  0  0  0  0  0  0  0  0
  -23.3758  -15.1452  -14.8838 C   0  0  1  0  0  0  0  0  0  0  0  0
  -23.8661  -13.9352  -15.4353 O   0  0  0  0  0  0  0  0  0  0  0  0
  -23.6671   -9.1796  -14.8434 C   0  0  0  0  0  0  0  0  0  0  0  0
  -24.1149  -10.6640  -18.8248 C   0  0  0  0  0  0  0  0  0  0  0  0
  1  2  1  6  0  0  0
  1  6  1  0  0  0  0
  1 21  1  0  0  0  0
  3  4  1  1  0  0  0
  3  8  1  0  0  0  0
  3 28  1  0  0  0  0
  5  9  1  0  0  0  0
  5 25  1  0  0  0  0
  5 29  1  6  0  0  0
  6  7  1  6  0  0  0
  6 11  1  0  0  0  0
  8 12  1  0  0  0  0
  9 10  1  6  0  0  0
  9 14  1  0  0  0  0
 11 16  1  0  0  0  0
 12 13  1  1  0  0  0
 12 17  1  0  0  0  0
 14 15  1  6  0  0  0
 14 18  1  0  0  0  0
 15 31  1  0  0  0  0
 16 20  1  0  0  0  0
 17  2  1  6  0  0  0
 17 22  1  0  0  0  0
 18 19  1  1  0  0  0
 18 24  1  0  0  0  0
 18 30  1  0  0  0  0
 20 21  1  0  0  0  0
 20 26  1  1  0  0  0
 22 23  1  1  0  0  0
 22 28  1  0  0  0  0
 24 25  1  0  0  0  0
 26 27  1  0  0  0  0
 28 29  1  6  0  0  0
M  END
>  <CHROM.1>
-167.73951924,-157.51508332,-85.27648187,-159.28774530,-103.83825200,95.35524471
-22.13859331,-14.60273506,-14.44447598,-0.73620380,-0.52245378,-0.03043528

>  <Name>
ligand

>  <RI>
0

>  <Rbt.Current_Directory>
/home/itssahil/PROJECTS/Mol_Feturizer/New_Systems/rnas/4GPW

>  <Rbt.Executable>
rbdock ($Id: //depot/dev/client3/rdock/2013.1/src/exe/rbdock.cxx#4 $)

>  <Rbt.Library>
libRbt.so (2013.1, Build901 2013/11/27)

>  <Rbt.Parameter_File>
/export/apps/rDock/src/rDock_2013.1_src/data/scripts/dock_solv.prm

>  <Rbt.Receptor>
prm/pocket_docking_4.prm

>  <SCORE>
-20.2349

>  <SCORE.INTER>
-16.6177

>  <SCORE.INTER.CONST>
1

>  <SCORE.INTER.POLAR>
0

>  <SCORE.INTER.ROT>
6

>  <SCORE.INTER.SOLV>
16.5169

>  <SCORE.INTER.VDW>
-24.1841

>  <SCORE.INTER.norm>
-0.536055

>  <SCORE.INTRA>
-3.61719

>  <SCORE.INTRA.DIHEDRAL>
-7.3469

>  <SCORE.INTRA.DIHEDRAL.0>
19.2558

>  <SCORE.INTRA.POLAR>
0

>  <SCORE.INTRA.POLAR.0>
0

>  <SCORE.INTRA.REPUL>
0

>  <SCORE.INTRA.REPUL.0>
0

>  <SCORE.INTRA.SOLV>
-0.875997

>  <SCORE.INTRA.SOLV.lig_0>
-64.5929

>  <SCORE.INTRA.VDW>
0.494259

>  <SCORE.INTRA.VDW.0>
-4.40538

>  <SCORE.INTRA.norm>
-0.116684

>  <SCORE.RESTR>
0

>  <SCORE.RESTR.CAVITY>
0

>  <SCORE.RESTR.norm>
0

>  <SCORE.SYSTEM>
0

>  <SCORE.SYSTEM.CONST>
0

>  <SCORE.SYSTEM.DIHEDRAL>
0

>  <SCORE.SYSTEM.SOLV>
0

>  <SCORE.SYSTEM.norm>
0

>  <SCORE.heavy>
31

>  <SCORE.norm>
-0.652739

>  <RMSD>
0.640

$$$$
ligand
 OpenBabel11021811493D
libRbt.so/2013.1/901 2013/11/27
 31 33  0  0  0  0  0  0  0  0999 V2000
  -19.2712  -15.6799  -12.6253 C   0  0  2  0  0  0  0  0  0  0  0  0
  -19.8376  -16.1252  -13.8491 O   0  0  0  0  0  0  0  0  0  0  0  0
  -23.5695  -15.8603  -15.8928 C   0  0  2  0  0  0  0  0  0  0  0  0
  -24.9742  -15.9407  -16.1333 N   0  0  0  0  0  0  0  0  0  0  0  0
  -25.0821  -13.0071  -14.8313 C   0  0  2  0  0  0  0  0  0  0  0  0
  -17.7459  -15.3576  -12.9115 C   0  0  2  0  0  0  0  0  0  0  0  0
  -17.6562  -14.3257  -13.9551 N   0  0  0  0  0  0  0  0  0  0  0  0
  -23.0469  -17.3050  -15.4810 C   0  0  0  0  0  0  0  0  0  0  0  0
  -25.4693  -12.1799  -16.1017 C   0  0  2  0  0  0  0  0  0  0  0  0
  -25.3858  -13.0322  -17.2194 O   0  0  0  0  0  0  0  0  0  0  0  0
  -16.9952  -16.6754  -13.3548 C   0  0  0  0  0  0  0  0  0  0  0  0
  -21.4760  -17.2182  -15.2184 C   0  0  2  0  0  0  0  0  0  0  0  0
  -20.9680  -18.5543  -14.8387 N   0  0  0  0  0  0  0  0  0  0  0  0
  -24.4857  -10.9446  -16.2430 C   0  0  1  0  0  0  0  0  0  0  0  0
  -24.8411  -10.1369  -17.4644 N   0  0  0  0  0  0  0  0  0  0  0  0
  -17.4598  -17.9444  -12.5265 C   0  0  0  0  0  0  0  0  0  0  0  0
  -21.2065  -16.1890  -14.0449 C   0  0  2  0  0  0  0  0  0  0  0  0
  -24.6250   -9.9997  -14.9258 C   0  0  1  0  0  0  0  0  0  0  0  0
  -25.9257   -9.4748  -14.7529 O   0  0  0  0  0  0  0  0  0  0  0  0
  -18.5548  -17.8981  -11.7344 C   0  0  2  0  0  0  0  0  0  0  0  0
  -19.3520  -16.7177  -11.5927 O   0  0  0  0  0  0  0  0  0  0  0  0
  -21.7501  -14.7617  -14.4634 C   0  0  2  0  0  0  0  0  0  0  0  0
  -21.5116  -13.8354  -13.3905 O   0  0  0  0  0  0  0  0  0  0  0  0
  -24.2618  -10.8487  -13.6624 C   0  0  0  0  0  0  0  0  0  0  0  0
  -25.1223  -12.1097  -13.6079 O   0  0  0  0  0  0  0  0  0  0  0  0
  -19.0312  -19.1001  -10.9200 C   0  0  0  0  0  0  0  0  0  0  0  0
  -19.2049  -18.6741   -9.5597 O   0  0  0  0  0  0  0  0  0  0  0  0
  -23.3064  -14.8426  -14.7253 C   0  0  1  0  0  0  0  0  0  0  0  0
  -23.7514  -13.5528  -15.1088 O   0  0  0  0  0  0  0  0  0  0  0  0
  -23.7048   -8.7602  -14.9223 C   0  0  0  0  0  0  0  0  0  0  0  0
  -24.2010  -10.5456  -18.7312 C   0  0  0  0  0  0  0  0  0  0  0  0
  1  2  1  6  0  0  0
  1  6  1  0  0  0  0
  1 21  1  0  0  0  0
  3  4  1  1  0  0  0
  3  8  1  0  0  0  0
  3 28  1  0  0  0  0
  5  9  1  0  0  0  0
  5 25  1  0  0  0  0
  5 29  1  6  0  0  0
  6  7  1  6  0  0  0
  6 11  1  0  0  0  0
  8 12  1  0  0  0  0
  9 10  1  6  0  0  0
  9 14  1  0  0  0  0
 11 16  1  0  0  0  0
 12 13  1  1  0  0  0
 12 17  1  0  0  0  0
 14 15  1  6  0  0  0
 14 18  1  0  0  0  0
 15 31  1  0  0  0  0
 16 20  1  0  0  0  0
 17  2  1  6  0  0  0
 17 22  1  0  0  0  0
 18 19  1  1  0  0  0
 18 24  1  0  0  0  0
 18 30  1  0  0  0  0
 20 21  1  0  0  0  0
 20 26  1  1  0  0  0
 22 23  1  1  0  0  0
 22 28  1  0  0  0  0
 24 25  1  0  0  0  0
 26 27  1  0  0  0  0
 28 29  1  6  0  0  0
M  END
>  <CHROM.1>
-164.33069105,-142.33283565,-88.43036583,-158.06268666,128.27679332,92.78290731
-22.07208032,-14.41633135,-14.32869437,-0.66688928,-0.62498903,0.12802576

>  <Name>
ligand

>  <RI>
0

>  <Rbt.Current_Directory>
/home/itssahil/PROJECTS/Mol_Feturizer/New_Systems/rnas/4GPW

>  <Rbt.Executable>
rbdock ($Id: //depot/dev/client3/rdock/2013.1/src/exe/rbdock.cxx#4 $)

>  <Rbt.Library>
libRbt.so (2013.1, Build901 2013/11/27)

>  <Rbt.Parameter_File>
/export/apps/rDock/src/rDock_2013.1_src/data/scripts/dock_solv.prm

>  <Rbt.Receptor>
prm/pocket_docking_7.prm

>  <SCORE>
-18.9704

>  <SCORE.INTER>
-16.9117

>  <SCORE.INTER.CONST>
1

>  <SCORE.INTER.POLAR>
0

>  <SCORE.INTER.ROT>
6

>  <SCORE.INTER.SOLV>
17.0183

>  <SCORE.INTER.VDW>
-24.5472

>  <SCORE.INTER.norm>
-0.54554

>  <SCORE.INTRA>
-2.05868

>  <SCORE.INTRA.DIHEDRAL>
-4.53387

>  <SCORE.INTRA.DIHEDRAL.0>
19.2558

>  <SCORE.INTRA.POLAR>
0

>  <SCORE.INTRA.POLAR.0>
0

>  <SCORE.INTRA.REPUL>
0

>  <SCORE.INTRA.REPUL.0>
0

>  <SCORE.INTRA.SOLV>
-0.788114

>  <SCORE.INTRA.SOLV.lig_0>
-64.5929

>  <SCORE.INTRA.VDW>
0.602311

>  <SCORE.INTRA.VDW.0>
-4.40538

>  <SCORE.INTRA.norm>
-0.0664091

>  <SCORE.RESTR>
0

>  <SCORE.RESTR.CAVITY>
0

>  <SCORE.RESTR.norm>
0

>  <SCORE.SYSTEM>
0

>  <SCORE.SYSTEM.CONST>
0

>  <SCORE.SYSTEM.DIHEDRAL>
0

>  <SCORE.SYSTEM.SOLV>
0

>  <SCORE.SYSTEM.norm>
0

>  <SCORE.heavy>
31

>  <SCORE.norm>
-0.611949

>  <RMSD>
0.640

$$$$
ligand
 OpenBabel11021811493D
libRbt.so/2013.1/901 2013/11/27
 31 33  0  0  0  0  0  0  0  0999 V2000
  -19.2664  -15.5182  -12.7932 C   0  0  2  0  0  0  0  0  0  0  0  0
  -19.8423  -16.1778  -13.9112 O   0  0  0  0  0  0  0  0  0  0  0  0
  -23.6205  -16.2798  -15.8835 C   0  0  2  0  0  0  0  0  0  0  0  0
  -25.0266  -16.4284  -16.0784 N   0  0  0  0  0  0  0  0  0  0  0  0
  -25.1824  -13.3366  -15.1331 C   0  0  2  0  0  0  0  0  0  0  0  0
  -17.7355  -15.2855  -13.1313 C   0  0  2  0  0  0  0  0  0  0  0  0
  -17.6269  -14.4733  -14.3522 N   0  0  0  0  0  0  0  0  0  0  0  0
  -23.0472  -17.6446  -15.3014 C   0  0  0  0  0  0  0  0  0  0  0  0
  -25.4983  -12.4085  -16.3525 C   0  0  2  0  0  0  0  0  0  0  0  0
  -25.3904  -13.1788  -17.5263 O   0  0  0  0  0  0  0  0  0  0  0  0
  -17.0106  -16.6776  -13.3132 C   0  0  0  0  0  0  0  0  0  0  0  0
  -21.4746  -17.4824  -15.0894 C   0  0  2  0  0  0  0  0  0  0  0  0
  -20.9196  -18.7440  -14.5529 N   0  0  0  0  0  0  0  0  0  0  0  0
  -24.4805  -11.1931  -16.3641 C   0  0  1  0  0  0  0  0  0  0  0  0
  -24.7671  -10.2890  -17.5350 N   0  0  0  0  0  0  0  0  0  0  0  0
  -17.4988  -17.7564  -12.2595 C   0  0  0  0  0  0  0  0  0  0  0  0
  -21.2124  -16.3031  -14.0649 C   0  0  2  0  0  0  0  0  0  0  0  0
  -24.6500  -10.3436  -14.9868 C   0  0  1  0  0  0  0  0  0  0  0  0
  -25.9436   -9.7980  -14.8255 O   0  0  0  0  0  0  0  0  0  0  0  0
  -18.5920  -17.5392  -11.4938 C   0  0  2  0  0  0  0  0  0  0  0  0
  -19.3663  -16.3385  -11.5820 O   0  0  0  0  0  0  0  0  0  0  0  0
  -21.8063  -14.9571  -14.6507 C   0  0  2  0  0  0  0  0  0  0  0  0
  -21.5741  -13.8937  -13.7120 O   0  0  0  0  0  0  0  0  0  0  0  0
  -24.3583  -11.2922  -13.7768 C   0  0  0  0  0  0  0  0  0  0  0  0
  -25.2502  -12.5302  -13.8490 O   0  0  0  0  0  0  0  0  0  0  0  0
  -19.0907  -18.5546  -10.4666 C   0  0  0  0  0  0  0  0  0  0  0  0
  -20.2804  -19.1665  -10.9886 O   0  0  0  0  0  0  0  0  0  0  0  0
  -23.3644  -15.1129  -14.8632 C   0  0  1  0  0  0  0  0  0  0  0  0
  -23.8550  -13.8960  -15.3990 O   0  0  0  0  0  0  0  0  0  0  0  0
  -23.7013   -9.1328  -14.8561 C   0  0  0  0  0  0  0  0  0  0  0  0
  -24.1146  -10.6418  -18.8123 C   0  0  0  0  0  0  0  0  0  0  0  0
  1  2  1  6  0  0  0
  1  6  1  0  0  0  0
  1 21  1  0  0  0  0
  3  4  1  1  0  0  0
  3  8  1  0  0  0  0
  3 28  1  0  0  0  0
  5  9  1  0  0  0  0
  5 25  1  0  0  0  0
  5 29  1  6  0  0  0
  6  7  1  6  0  0  0
  6 11  1  0  0  0  0
  8 12  1  0  0  0  0
  9 10  1  6  0  0  0
  9 14  1  0  0  0  0
 11 16  1  0  0  0  0
 12 13  1  1  0  0  0
 12 17  1  0  0  0  0
 14 15  1  6  0  0  0
 14 18  1  0  0  0  0
 15 31  1  0  0  0  0
 16 20  1  0  0  0  0
 17  2  1  6  0  0  0
 17 22  1  0  0  0  0
 18 19  1  1  0  0  0
 18 24  1  0  0  0  0
 18 30  1  0  0  0  0
 20 21  1  0  0  0  0
 20 26  1  1  0  0  0
 22 23  1  1  0  0  0
 22 28  1  0  0  0  0
 24 25  1  0  0  0  0
 26 27  1  0  0  0  0
 28 29  1  6  0  0  0
M  END
>  <CHROM.1>
-167.24567314,-155.81050018,-86.86612162,-160.48596384,-106.61498401,94.56491412
-22.13397570,-14.57140937,-14.43772229,-0.73129831,-0.52157599,-0.02547507

>  <Name>
ligand

>  <RI>
0

>  <Rbt.Current_Directory>
/home/itssahil/PROJECTS/Mol_Feturizer/New_Systems/rnas/4GPW

>  <Rbt.Executable>
rbdock ($Id: //depot/dev/client3/rdock/2013.1/src/exe/rbdock.cxx#4 $)

>  <Rbt.Library>
libRbt.so (2013.1, Build901 2013/11/27)

>  <Rbt.Parameter_File>
/export/apps/rDock/src/rDock_2013.1_src/data/scripts/dock_solv.prm

>  <Rbt.Receptor>
prm/pocket_docking_2.prm

>  <SCORE>
-20.2259

>  <SCORE.INTER>
-16.5713

>  <SCORE.INTER.CONST>
1

>  <SCORE.INTER.POLAR>
0

>  <SCORE.INTER.ROT>
6

>  <SCORE.INTER.SOLV>
16.5803

>  <SCORE.INTER.VDW>
-24.1743

>  <SCORE.INTER.norm>
-0.534559

>  <SCORE.INTRA>
-3.6546

>  <SCORE.INTRA.DIHEDRAL>
-7.37642

>  <SCORE.INTRA.DIHEDRAL.0>
19.2558

>  <SCORE.INTRA.POLAR>
0

>  <SCORE.INTRA.POLAR.0>
0

>  <SCORE.INTRA.REPUL>
0

>  <SCORE.INTRA.REPUL.0>
0

>  <SCORE.INTRA.SOLV>
-0.944515

>  <SCORE.INTRA.SOLV.lig_0>
-64.5929

>  <SCORE.INTRA.VDW>
0.505867

>  <SCORE.INTRA.VDW.0>
-4.40538

>  <SCORE.INTRA.norm>
-0.11789

>  <SCORE.RESTR>
0

>  <SCORE.RESTR.CAVITY>
0

>  <SCORE.RESTR.norm>
0

>  <SCORE.SYSTEM>
0

>  <SCORE.SYSTEM.CONST>
0

>  <SCORE.SYSTEM.DIHEDRAL>
0

>  <SCORE.SYSTEM.SOLV>
0

>  <SCORE.SYSTEM.norm>
0

>  <SCORE.heavy>
31

>  <SCORE.norm>
-0.65245

>  <RMSD>
0.641

$$$$
ligand
 OpenBabel11021811493D
libRbt.so/2013.1/901 2013/11/27
 31 33  0  0  0  0  0  0  0  0999 V2000
  -19.1637  -15.5530  -12.7535 C   0  0  2  0  0  0  0  0  0  0  0  0
  -19.7558  -16.1731  -13.8856 O   0  0  0  0  0  0  0  0  0  0  0  0
  -23.5509  -16.1420  -15.8273 C   0  0  2  0  0  0  0  0  0  0  0  0
  -24.9602  -16.2660  -16.0167 N   0  0  0  0  0  0  0  0  0  0  0  0
  -25.0897  -13.2405  -14.9642 C   0  0  2  0  0  0  0  0  0  0  0  0
  -17.6185  -15.3936  -13.0685 C   0  0  2  0  0  0  0  0  0  0  0  0
  -17.4526  -14.5769  -14.2799 N   0  0  0  0  0  0  0  0  0  0  0  0
  -22.9883  -17.5385  -15.3144 C   0  0  0  0  0  0  0  0  0  0  0  0
  -25.4357  -12.3487  -16.2024 C   0  0  2  0  0  0  0  0  0  0  0  0
  -25.3248  -13.1453  -17.3582 O   0  0  0  0  0  0  0  0  0  0  0  0
  -16.9610  -16.8183  -13.2539 C   0  0  0  0  0  0  0  0  0  0  0  0
  -21.4123  -17.4036  -15.1088 C   0  0  2  0  0  0  0  0  0  0  0  0
  -20.8672  -18.6947  -14.6365 N   0  0  0  0  0  0  0  0  0  0  0  0
  -24.4417  -11.1148  -16.2542 C   0  0  1  0  0  0  0  0  0  0  0  0
  -24.7574  -10.2452  -17.4436 N   0  0  0  0  0  0  0  0  0  0  0  0
  -17.5168  -17.8809  -12.2173 C   0  0  0  0  0  0  0  0  0  0  0  0
  -21.1284  -16.2762  -14.0329 C   0  0  2  0  0  0  0  0  0  0  0  0
  -24.6136  -10.2353  -14.8962 C   0  0  1  0  0  0  0  0  0  0  0  0
  -25.9159   -9.7106  -14.7346 O   0  0  0  0  0  0  0  0  0  0  0  0
  -18.6086  -17.6165  -11.4645 C   0  0  2  0  0  0  0  0  0  0  0  0
  -19.3211  -16.3781  -11.5517 O   0  0  0  0  0  0  0  0  0  0  0  0
  -21.7119  -14.8979  -14.5503 C   0  0  2  0  0  0  0  0  0  0  0  0
  -21.4599  -13.8821  -13.5652 O   0  0  0  0  0  0  0  0  0  0  0  0
  -24.2916  -11.1483  -13.6667 C   0  0  0  0  0  0  0  0  0  0  0  0
  -25.1602  -12.4044  -13.6994 O   0  0  0  0  0  0  0  0  0  0  0  0
  -19.1714  -18.6150  -10.4541 C   0  0  0  0  0  0  0  0  0  0  0  0
  -20.3360  -19.2238  -11.0330 O   0  0  0  0  0  0  0  0  0  0  0  0
  -23.2733  -15.0267  -14.7561 C   0  0  1  0  0  0  0  0  0  0  0  0
  -23.7546  -13.7809  -15.2304 O   0  0  0  0  0  0  0  0  0  0  0  0
  -23.6872   -9.0038  -14.8049 C   0  0  0  0  0  0  0  0  0  0  0  0
  -24.1137  -10.6185  -18.7195 C   0  0  0  0  0  0  0  0  0  0  0  0
  1  2  1  6  0  0  0
  1  6  1  0  0  0  0
  1 21  1  0  0  0  0
  3  4  1  1  0  0  0
  3  8  1  0  0  0  0
  3 28  1  0  0  0  0
  5  9  1  0  0  0  0
  5 25  1  0  0  0  0
  5 29  1  6  0  0  0
  6  7  1  6  0  0  0
  6 11  1  0  0  0  0
  8 12  1  0  0  0  0
  9 10  1  6  0  0  0
  9 14  1  0  0  0  0
 11 16  1  0  0  0  0
 12 13  1  1  0  0  0
 12 17  1  0  0  0  0
 14 15  1  6  0  0  0
 14 18  1  0  0  0  0
 15 31  1  0  0  0  0
 16 20  1  0  0  0  0
 17  2  1  6  0  0  0
 17 22  1  0  0  0  0
 18 19  1  1  0  0  0
 18 24  1  0  0  0  0
 18 30  1  0  0  0  0
 20 21  1  0  0  0  0
 20 26  1  1  0  0  0
 22 23  1  1  0  0  0
 22 28  1  0  0  0  0
 24 25  1  0  0  0  0
 26 27  1  0  0  0  0
 28 29  1  6  0  0  0
M  END
>  <CHROM.1>
-169.88784847,-150.52137065,-86.72537389,-161.54698152,-103.06510257,92.40069264
-22.07944732,-14.53864407,-14.36749283,-0.73556206,-0.52448287,-0.00239380

>  <Name>
ligand

>  <RI>
0

>  <Rbt.Current_Directory>
/home/itssahil/PROJECTS/Mol_Feturizer/New_Systems/rnas/4GPW

>  <Rbt.Executable>
rbdock ($Id: //depot/dev/client3/rdock/2013.1/src/exe/rbdock.cxx#4 $)

>  <Rbt.Library>
libRbt.so (2013.1, Build901 2013/11/27)

>  <Rbt.Parameter_File>
/export/apps/rDock/src/rDock_2013.1_src/data/scripts/dock_solv.prm

>  <Rbt.Receptor>
prm/pocket_docking_4.prm

>  <SCORE>
-20.0951

>  <SCORE.INTER>
-16.6395

>  <SCORE.INTER.CONST>
1

>  <SCORE.INTER.POLAR>
0

>  <SCORE.INTER.ROT>
6

>  <SCORE.INTER.SOLV>
16.6484

>  <SCORE.INTER.VDW>
-24.2424

>  <SCORE.INTER.norm>
-0.536758

>  <SCORE.INTRA>
-3.45557

>  <SCORE.INTRA.DIHEDRAL>
-7.12111

>  <SCORE.INTRA.DIHEDRAL.0>
19.2558

>  <SCORE.INTRA.POLAR>
0

>  <SCORE.INTRA.POLAR.0>
0

>  <SCORE.INTRA.REPUL>
0

>  <SCORE.INTRA.REPUL.0>
0

>  <SCORE.INTRA.SOLV>
-0.91152

>  <SCORE.INTRA.SOLV.lig_0>
-64.5929

>  <SCORE.INTRA.VDW>
0.560752

>  <SCORE.INTRA.VDW.0>
-4.40538

>  <SCORE.INTRA.norm>
-0.11147

>  <SCORE.RESTR>
0

>  <SCORE.RESTR.CAVITY>
0

>  <SCORE.RESTR.norm>
0

>  <SCORE.SYSTEM>
0

>  <SCORE.SYSTEM.CONST>
0

>  <SCORE.SYSTEM.DIHEDRAL>
0

>  <SCORE.SYSTEM.SOLV>
0

>  <SCORE.SYSTEM.norm>
0

>  <SCORE.heavy>
31

>  <SCORE.norm>
-0.648228

>  <RMSD>
0.641

$$$$
ligand
 OpenBabel11021811493D
libRbt.so/2013.1/901 2013/11/27
 31 33  0  0  0  0  0  0  0  0999 V2000
  -19.2184  -15.5101  -12.7775 C   0  0  2  0  0  0  0  0  0  0  0  0
  -19.8001  -16.1316  -13.9142 O   0  0  0  0  0  0  0  0  0  0  0  0
  -23.5838  -16.0595  -15.8772 C   0  0  2  0  0  0  0  0  0  0  0  0
  -24.9913  -16.1843  -16.0787 N   0  0  0  0  0  0  0  0  0  0  0  0
  -25.1346  -13.1838  -14.9186 C   0  0  2  0  0  0  0  0  0  0  0  0
  -17.6748  -15.3285  -13.0888 C   0  0  2  0  0  0  0  0  0  0  0  0
  -17.5176  -14.5029  -14.2952 N   0  0  0  0  0  0  0  0  0  0  0  0
  -23.0174  -17.4682  -15.4033 C   0  0  0  0  0  0  0  0  0  0  0  0
  -25.5172  -12.3110  -16.1596 C   0  0  2  0  0  0  0  0  0  0  0  0
  -25.4287  -13.1222  -17.3072 O   0  0  0  0  0  0  0  0  0  0  0  0
  -16.9982  -16.7433  -13.2809 C   0  0  0  0  0  0  0  0  0  0  0  0
  -21.4433  -17.3322  -15.1842 C   0  0  2  0  0  0  0  0  0  0  0  0
  -20.8948  -18.6345  -14.7478 N   0  0  0  0  0  0  0  0  0  0  0  0
  -24.5336  -11.0711  -16.2520 C   0  0  1  0  0  0  0  0  0  0  0  0
  -24.8845  -10.2196  -17.4446 N   0  0  0  0  0  0  0  0  0  0  0  0
  -17.5417  -17.8190  -12.2514 C   0  0  0  0  0  0  0  0  0  0  0  0
  -21.1713  -16.2366  -14.0729 C   0  0  2  0  0  0  0  0  0  0  0  0
  -24.6786  -10.1748  -14.9019 C   0  0  1  0  0  0  0  0  0  0  0  0
  -25.9803   -9.6569  -14.7152 O   0  0  0  0  0  0  0  0  0  0  0  0
  -18.6383  -17.5734  -11.4992 C   0  0  2  0  0  0  0  0  0  0  0  0
  -19.3670  -16.3440  -11.5807 O   0  0  0  0  0  0  0  0  0  0  0  0
  -21.7585  -14.8461  -14.5519 C   0  0  2  0  0  0  0  0  0  0  0  0
  -21.5173  -13.8593  -13.5350 O   0  0  0  0  0  0  0  0  0  0  0  0
  -24.3201  -11.0691  -13.6687 C   0  0  0  0  0  0  0  0  0  0  0  0
  -25.1801  -12.3315  -13.6636 O   0  0  0  0  0  0  0  0  0  0  0  0
  -19.1896  -18.5850  -10.4954 C   0  0  0  0  0  0  0  0  0  0  0  0
  -20.3744  -19.1690  -11.0589 O   0  0  0  0  0  0  0  0  0  0  0  0
  -23.3180  -14.9759  -14.7711 C   0  0  1  0  0  0  0  0  0  0  0  0
  -23.8025  -13.7186  -15.2104 O   0  0  0  0  0  0  0  0  0  0  0  0
  -23.7591   -8.9359  -14.8496 C   0  0  0  0  0  0  0  0  0  0  0  0
  -24.2373  -10.5803  -18.7224 C   0  0  0  0  0  0  0  0  0  0  0  0
  1  2  1  6  0  0  0
  1  6  1  0  0  0  0
  1 21  1  0  0  0  0
  3  4  1  1  0  0  0
  3  8  1  0  0  0  0
  3 28  1  0  0  0  0
  5  9  1  0  0  0  0
  5 25  1  0  0  0  0
  5 29  1  6  0  0  0
  6  7  1  6  0  0  0
  6 11  1  0  0  0  0
  8 12  1  0  0  0  0
  9 10  1  6  0  0  0
  9 14  1  0  0  0  0
 11 16  1  0  0  0  0
 12 13  1  1  0  0  0
 12 17  1  0  0  0  0
 14 15  1  6  0  0  0
 14 18  1  0  0  0  0
 15 31  1  0  0  0  0
 16 20  1  0  0  0  0
 17  2  1  6  0  0  0
 17 22  1  0  0  0  0
 18 19  1  1  0  0  0
 18 24  1  0  0  0  0
 18 30  1  0  0  0  0
 20 21  1  0  0  0  0
 20 26  1  1  0  0  0
 22 23  1  1  0  0  0
 22 28  1  0  0  0  0
 24 25  1  0  0  0  0
 26 27  1  0  0  0  0
 28 29  1  6  0  0  0
M  END
>  <CHROM.1>
-169.03401070,-148.15519868,-88.53767991,-163.32602984,-105.23020378,93.39584942
-22.13219201,-14.48491525,-14.38387486,-0.72030161,-0.53709055,0.02514404

>  <Name>
ligand

>  <RI>
0

>  <Rbt.Current_Directory>
/home/itssahil/PROJECTS/Mol_Feturizer/New_Systems/rnas/4GPW

>  <Rbt.Executable>
rbdock ($Id: //depot/dev/client3/rdock/2013.1/src/exe/rbdock.cxx#4 $)

>  <Rbt.Library>
libRbt.so (2013.1, Build901 2013/11/27)

>  <Rbt.Parameter_File>
/export/apps/rDock/src/rDock_2013.1_src/data/scripts/dock_solv.prm

>  <Rbt.Receptor>
prm/pocket_docking_3.prm

>  <SCORE>
-20.0851

>  <SCORE.INTER>
-16.7859

>  <SCORE.INTER.CONST>
1

>  <SCORE.INTER.POLAR>
0

>  <SCORE.INTER.ROT>
6

>  <SCORE.INTER.SOLV>
16.7119

>  <SCORE.INTER.VDW>
-24.3612

>  <SCORE.INTER.norm>
-0.54148

>  <SCORE.INTRA>
-3.29925

>  <SCORE.INTRA.DIHEDRAL>
-6.69648

>  <SCORE.INTRA.DIHEDRAL.0>
19.2558

>  <SCORE.INTRA.POLAR>
0

>  <SCORE.INTRA.POLAR.0>
0

>  <SCORE.INTRA.REPUL>
0

>  <SCORE.INTRA.REPUL.0>
0

>  <SCORE.INTRA.SOLV>
-1.0122

>  <SCORE.INTRA.SOLV.lig_0>
-64.5929

>  <SCORE.INTRA.VDW>
0.555095

>  <SCORE.INTRA.VDW.0>
-4.40538

>  <SCORE.INTRA.norm>
-0.106427

>  <SCORE.RESTR>
0

>  <SCORE.RESTR.CAVITY>
0

>  <SCORE.RESTR.norm>
0

>  <SCORE.SYSTEM>
0

>  <SCORE.SYSTEM.CONST>
0

>  <SCORE.SYSTEM.DIHEDRAL>
0

>  <SCORE.SYSTEM.SOLV>
0

>  <SCORE.SYSTEM.norm>
0

>  <SCORE.heavy>
31

>  <SCORE.norm>
-0.647907

>  <RMSD>
0.642

$$$$
ligand
 OpenBabel11021811493D
libRbt.so/2013.1/901 2013/11/27
 31 33  0  0  0  0  0  0  0  0999 V2000
  -19.3193  -15.6320  -12.5697 C   0  0  2  0  0  0  0  0  0  0  0  0
  -19.8702  -16.0512  -13.8096 O   0  0  0  0  0  0  0  0  0  0  0  0
  -23.5998  -16.2592  -15.8641 C   0  0  2  0  0  0  0  0  0  0  0  0
  -24.9977  -16.4408  -16.0886 N   0  0  0  0  0  0  0  0  0  0  0  0
  -25.2148  -13.3042  -15.1266 C   0  0  2  0  0  0  0  0  0  0  0  0
  -17.7951  -15.2863  -12.8339 C   0  0  2  0  0  0  0  0  0  0  0  0
  -17.7075  -14.2268  -13.8495 N   0  0  0  0  0  0  0  0  0  0  0  0
  -23.0103  -17.6041  -15.2531 C   0  0  0  0  0  0  0  0  0  0  0  0
  -25.5392  -12.3686  -16.3381 C   0  0  2  0  0  0  0  0  0  0  0  0
  -25.4558  -13.1357  -17.5160 O   0  0  0  0  0  0  0  0  0  0  0  0
  -17.0264  -16.5842  -13.3044 C   0  0  0  0  0  0  0  0  0  0  0  0
  -21.4468  -17.4050  -15.0080 C   0  0  2  0  0  0  0  0  0  0  0  0
  -20.8768  -18.6478  -14.4441 N   0  0  0  0  0  0  0  0  0  0  0  0
  -24.5097  -11.1633  -16.3603 C   0  0  1  0  0  0  0  0  0  0  0  0
  -24.8042  -10.2520  -17.5237 N   0  0  0  0  0  0  0  0  0  0  0  0
  -17.4845  -17.8791  -12.5134 C   0  0  0  0  0  0  0  0  0  0  0  0
  -21.2334  -16.2084  -13.9922 C   0  0  2  0  0  0  0  0  0  0  0  0
  -24.6508  -10.3171  -14.9777 C   0  0  1  0  0  0  0  0  0  0  0  0
  -25.9365   -9.7594  -14.7957 O   0  0  0  0  0  0  0  0  0  0  0  0
  -18.5868  -17.8649  -11.7302 C   0  0  2  0  0  0  0  0  0  0  0  0
  -19.3979  -16.6971  -11.5651 O   0  0  0  0  0  0  0  0  0  0  0  0
  -21.8431  -14.8826  -14.6073 C   0  0  2  0  0  0  0  0  0  0  0  0
  -21.6553  -13.8037  -13.6765 O   0  0  0  0  0  0  0  0  0  0  0  0
  -24.3510  -11.2730  -13.7753 C   0  0  0  0  0  0  0  0  0  0  0  0
  -25.2561  -12.5019  -13.8389 O   0  0  0  0  0  0  0  0  0  0  0  0
  -19.0573  -19.0926  -10.9515 C   0  0  0  0  0  0  0  0  0  0  0  0
  -19.1824  -18.7211   -9.5700 O   0  0  0  0  0  0  0  0  0  0  0  0
  -23.3923  -15.0752  -14.8525 C   0  0  1  0  0  0  0  0  0  0  0  0
  -23.8970  -13.8756  -15.4137 O   0  0  0  0  0  0  0  0  0  0  0  0
  -23.6884   -9.1162  -14.8565 C   0  0  0  0  0  0  0  0  0  0  0  0
  -24.0880  -10.5418  -18.7825 C   0  0  0  0  0  0  0  0  0  0  0  0
  1  2  1  6  0  0  0
  1  6  1  0  0  0  0
  1 21  1  0  0  0  0
  3  4  1  1  0  0  0
  3  8  1  0  0  0  0
  3 28  1  0  0  0  0
  5  9  1  0  0  0  0
  5 25  1  0  0  0  0
  5 29  1  6  0  0  0
  6  7  1  6  0  0  0
  6 11  1  0  0  0  0
  8 12  1  0  0  0  0
  9 10  1  6  0  0  0
  9 14  1  0  0  0  0
 11 16  1  0  0  0  0
 12 13  1  1  0  0  0
 12 17  1  0  0  0  0
 14 15  1  6  0  0  0
 14 18  1  0  0  0  0
 15 31  1  0  0  0  0
 16 20  1  0  0  0  0
 17  2  1  6  0  0  0
 17 22  1  0  0  0  0
 18 19  1  1  0  0  0
 18 24  1  0  0  0  0
 18 30  1  0  0  0  0
 20 21  1  0  0  0  0
 20 26  1  1  0  0  0
 22 23  1  1  0  0  0
 22 28  1  0  0  0  0
 24 25  1  0  0  0  0
 26 27  1  0  0  0  0
 28 29  1  6  0  0  0
M  END
>  <CHROM.1>
-168.64939702,-158.16493501,-91.69274271,-146.60942445,125.41757852,98.11240356
-22.10800583,-14.55637833,-14.36420470,-0.70008757,-0.57157737,0.01845761

>  <Name>
ligand

>  <RI>
0

>  <Rbt.Current_Directory>
/home/itssahil/PROJECTS/Mol_Feturizer/New_Systems/rnas/4GPW

>  <Rbt.Executable>
rbdock ($Id: //depot/dev/client3/rdock/2013.1/src/exe/rbdock.cxx#4 $)

>  <Rbt.Library>
libRbt.so (2013.1, Build901 2013/11/27)

>  <Rbt.Parameter_File>
/export/apps/rDock/src/rDock_2013.1_src/data/scripts/dock_solv.prm

>  <Rbt.Receptor>
prm/pocket_docking_3.prm

>  <SCORE>
-19.2004

>  <SCORE.INTER>
-16.7768

>  <SCORE.INTER.CONST>
1

>  <SCORE.INTER.POLAR>
0

>  <SCORE.INTER.ROT>
6

>  <SCORE.INTER.SOLV>
17.1862

>  <SCORE.INTER.VDW>
-24.5132

>  <SCORE.INTER.norm>
-0.541186

>  <SCORE.INTRA>
-2.42361

>  <SCORE.INTRA.DIHEDRAL>
-4.84185

>  <SCORE.INTRA.DIHEDRAL.0>
19.2558

>  <SCORE.INTRA.POLAR>
0

>  <SCORE.INTRA.POLAR.0>
0

>  <SCORE.INTRA.REPUL>
0

>  <SCORE.INTRA.REPUL.0>
0

>  <SCORE.INTRA.SOLV>
-0.537285

>  <SCORE.INTRA.SOLV.lig_0>
-64.5929

>  <SCORE.INTRA.VDW>
0.265955

>  <SCORE.INTRA.VDW.0>
-4.40538

>  <SCORE.INTRA.norm>
-0.078181

>  <SCORE.RESTR>
0

>  <SCORE.RESTR.CAVITY>
0

>  <SCORE.RESTR.norm>
0

>  <SCORE.SYSTEM>
0

>  <SCORE.SYSTEM.CONST>
0

>  <SCORE.SYSTEM.DIHEDRAL>
0

>  <SCORE.SYSTEM.SOLV>
0

>  <SCORE.SYSTEM.norm>
0

>  <SCORE.heavy>
31

>  <SCORE.norm>
-0.619367

>  <RMSD>
0.643

$$$$
ligand
 OpenBabel11021811493D
libRbt.so/2013.1/901 2013/11/27
 31 33  0  0  0  0  0  0  0  0999 V2000
  -19.1712  -15.5769  -12.7737 C   0  0  2  0  0  0  0  0  0  0  0  0
  -19.7648  -16.1957  -13.9057 O   0  0  0  0  0  0  0  0  0  0  0  0
  -23.5518  -16.0500  -15.8582 C   0  0  2  0  0  0  0  0  0  0  0  0
  -24.9615  -16.1523  -16.0573 N   0  0  0  0  0  0  0  0  0  0  0  0
  -25.0758  -13.1823  -14.9137 C   0  0  2  0  0  0  0  0  0  0  0  0
  -17.6252  -15.4238  -13.0877 C   0  0  2  0  0  0  0  0  0  0  0  0
  -17.4552  -14.6088  -14.2996 N   0  0  0  0  0  0  0  0  0  0  0  0
  -23.0050  -17.4712  -15.3988 C   0  0  0  0  0  0  0  0  0  0  0  0
  -25.4334  -12.3219  -16.1707 C   0  0  2  0  0  0  0  0  0  0  0  0
  -25.3138  -13.1421  -17.3090 O   0  0  0  0  0  0  0  0  0  0  0  0
  -16.9730  -16.8512  -13.2713 C   0  0  0  0  0  0  0  0  0  0  0  0
  -21.4286  -17.3603  -15.1824 C   0  0  2  0  0  0  0  0  0  0  0  0
  -20.8982  -18.6745  -14.7594 N   0  0  0  0  0  0  0  0  0  0  0  0
  -24.4544  -11.0776  -16.2503 C   0  0  1  0  0  0  0  0  0  0  0  0
  -24.7814  -10.2379  -17.4580 N   0  0  0  0  0  0  0  0  0  0  0  0
  -17.5337  -17.9107  -12.2343 C   0  0  0  0  0  0  0  0  0  0  0  0
  -21.1378  -16.2791  -14.0619 C   0  0  2  0  0  0  0  0  0  0  0  0
  -24.6358  -10.1709  -14.9116 C   0  0  1  0  0  0  0  0  0  0  0  0
  -25.9441   -9.6585  -14.7600 O   0  0  0  0  0  0  0  0  0  0  0  0
  -18.6251  -17.6414  -11.4826 C   0  0  2  0  0  0  0  0  0  0  0  0
  -19.3327  -16.4004  -11.5713 O   0  0  0  0  0  0  0  0  0  0  0  0
  -21.7056  -14.8757  -14.5266 C   0  0  2  0  0  0  0  0  0  0  0  0
  -21.4475  -13.9020  -13.5013 O   0  0  0  0  0  0  0  0  0  0  0  0
  -24.3019  -11.0530  -13.6628 C   0  0  0  0  0  0  0  0  0  0  0  0
  -25.1553  -12.3199  -13.6673 O   0  0  0  0  0  0  0  0  0  0  0  0
  -19.1925  -18.6370  -10.4717 C   0  0  0  0  0  0  0  0  0  0  0  0
  -20.3540  -19.2482  -11.0545 O   0  0  0  0  0  0  0  0  0  0  0  0
  -23.2674  -14.9806  -14.7429 C   0  0  1  0  0  0  0  0  0  0  0  0
  -23.7344  -13.7124  -15.1695 O   0  0  0  0  0  0  0  0  0  0  0  0
  -23.7242   -8.9267  -14.8480 C   0  0  0  0  0  0  0  0  0  0  0  0
  -24.1048  -10.6077  -18.7178 C   0  0  0  0  0  0  0  0  0  0  0  0
  1  2  1  6  0  0  0
  1  6  1  0  0  0  0
  1 21  1  0  0  0  0
  3  4  1  1  0  0  0
  3  8  1  0  0  0  0
  3 28  1  0  0  0  0
  5  9  1  0  0  0  0
  5 25  1  0  0  0  0
  5 29  1  6  0  0  0
  6  7  1  6  0  0  0
  6 11  1  0  0  0  0
  8 12  1  0  0  0  0
  9 10  1  6  0  0  0
  9 14  1  0  0  0  0
 11 16  1  0  0  0  0
 12 13  1  1  0  0  0
 12 17  1  0  0  0  0
 14 15  1  6  0  0  0
 14 18  1  0  0  0  0
 15 31  1  0  0  0  0
 16 20  1  0  0  0  0
 17  2  1  6  0  0  0
 17 22  1  0  0  0  0
 18 19  1  1  0  0  0
 18 24  1  0  0  0  0
 18 30  1  0  0  0  0
 20 21  1  0  0  0  0
 20 26  1  1  0  0  0
 22 23  1  1  0  0  0
 22 28  1  0  0  0  0
 24 25  1  0  0  0  0
 26 27  1  0  0  0  0
 28 29  1  6  0  0  0
M  END
>  <CHROM.1>
-169.08278387,-146.13545699,-88.39468415,-164.21084726,-102.68992123,90.89572612
-22.08725831,-14.51633975,-14.37751166,-0.73172318,-0.53623453,0.01889500

>  <Name>
ligand

>  <RI>
0

>  <Rbt.Current_Directory>
/home/itssahil/PROJECTS/Mol_Feturizer/New_Systems/rnas/4GPW

>  <Rbt.Executable>
rbdock ($Id: //depot/dev/client3/rdock/2013.1/src/exe/rbdock.cxx#4 $)

>  <Rbt.Library>
libRbt.so (2013.1, Build901 2013/11/27)

>  <Rbt.Parameter_File>
/export/apps/rDock/src/rDock_2013.1_src/data/scripts/dock_solv.prm

>  <Rbt.Receptor>
prm/pocket_docking_5.prm

>  <SCORE>
-20.0805

>  <SCORE.INTER>
-16.7478

>  <SCORE.INTER.CONST>
1

>  <SCORE.INTER.POLAR>
0

>  <SCORE.INTER.ROT>
6

>  <SCORE.INTER.SOLV>
16.5575

>  <SCORE.INTER.VDW>
-24.2844

>  <SCORE.INTER.norm>
-0.54025

>  <SCORE.INTRA>
-3.33274

>  <SCORE.INTRA.DIHEDRAL>
-6.82657

>  <SCORE.INTRA.DIHEDRAL.0>
19.2558

>  <SCORE.INTRA.POLAR>
0

>  <SCORE.INTRA.POLAR.0>
0

>  <SCORE.INTRA.REPUL>
0

>  <SCORE.INTRA.REPUL.0>
0

>  <SCORE.INTRA.SOLV>
-1.04216

>  <SCORE.INTRA.SOLV.lig_0>
-64.5929

>  <SCORE.INTRA.VDW>
0.601627

>  <SCORE.INTRA.VDW.0>
-4.40538

>  <SCORE.INTRA.norm>
-0.107508

>  <SCORE.RESTR>
0

>  <SCORE.RESTR.CAVITY>
0

>  <SCORE.RESTR.norm>
0

>  <SCORE.SYSTEM>
0

>  <SCORE.SYSTEM.CONST>
0

>  <SCORE.SYSTEM.DIHEDRAL>
0

>  <SCORE.SYSTEM.SOLV>
0

>  <SCORE.SYSTEM.norm>
0

>  <SCORE.heavy>
31

>  <SCORE.norm>
-0.647758

>  <RMSD>
0.643

$$$$
ligand
 OpenBabel11021811493D
libRbt.so/2013.1/901 2013/11/27
 31 33  0  0  0  0  0  0  0  0999 V2000
  -19.2598  -15.5113  -12.8032 C   0  0  2  0  0  0  0  0  0  0  0  0
  -19.8360  -16.1596  -13.9277 O   0  0  0  0  0  0  0  0  0  0  0  0
  -23.6191  -16.2893  -15.8889 C   0  0  2  0  0  0  0  0  0  0  0  0
  -25.0250  -16.4459  -16.0793 N   0  0  0  0  0  0  0  0  0  0  0  0
  -25.1850  -13.3391  -15.1286 C   0  0  2  0  0  0  0  0  0  0  0  0
  -17.7215  -15.3059  -13.1256 C   0  0  2  0  0  0  0  0  0  0  0  0
  -17.5859  -14.4950  -14.3445 N   0  0  0  0  0  0  0  0  0  0  0  0
  -23.0372  -17.6486  -15.3026 C   0  0  0  0  0  0  0  0  0  0  0  0
  -25.5129  -12.4065  -16.3415 C   0  0  2  0  0  0  0  0  0  0  0  0
  -25.4251  -13.1745  -17.5184 O   0  0  0  0  0  0  0  0  0  0  0  0
  -17.0200  -16.7107  -13.3013 C   0  0  0  0  0  0  0  0  0  0  0  0
  -21.4649  -17.4776  -15.0956 C   0  0  2  0  0  0  0  0  0  0  0  0
  -20.9021  -18.7340  -14.5552 N   0  0  0  0  0  0  0  0  0  0  0  0
  -24.4891  -11.1963  -16.3643 C   0  0  1  0  0  0  0  0  0  0  0  0
  -24.7871  -10.2879  -17.5290 N   0  0  0  0  0  0  0  0  0  0  0  0
  -17.5382  -17.7813  -12.2536 C   0  0  0  0  0  0  0  0  0  0  0  0
  -21.2059  -16.2925  -14.0769 C   0  0  2  0  0  0  0  0  0  0  0  0
  -24.6352  -10.3492  -14.9828 C   0  0  1  0  0  0  0  0  0  0  0  0
  -25.9236   -9.7974  -14.8024 O   0  0  0  0  0  0  0  0  0  0  0  0
  -18.6351  -17.5450  -11.4989 C   0  0  2  0  0  0  0  0  0  0  0  0
  -19.3867  -16.3306  -11.5938 O   0  0  0  0  0  0  0  0  0  0  0  0
  -21.8083  -14.9521  -14.6669 C   0  0  2  0  0  0  0  0  0  0  0  0
  -21.5788  -13.8835  -13.7335 O   0  0  0  0  0  0  0  0  0  0  0  0
  -24.3318  -11.3022  -13.7791 C   0  0  0  0  0  0  0  0  0  0  0  0
  -25.2310  -12.5355  -13.8419 O   0  0  0  0  0  0  0  0  0  0  0  0
  -19.1624  -18.5521  -10.4777 C   0  0  0  0  0  0  0  0  0  0  0  0
  -20.3338  -19.1725  -11.0301 O   0  0  0  0  0  0  0  0  0  0  0  0
  -23.3661  -15.1167  -14.8744 C   0  0  1  0  0  0  0  0  0  0  0  0
  -23.8644  -13.9047  -15.4141 O   0  0  0  0  0  0  0  0  0  0  0  0
  -23.6785   -9.1437  -14.8624 C   0  0  0  0  0  0  0  0  0  0  0  0
  -24.0980  -10.5992  -18.7978 C   0  0  0  0  0  0  0  0  0  0  0  0
  1  2  1  6  0  0  0
  1  6  1  0  0  0  0
  1 21  1  0  0  0  0
  3  4  1  1  0  0  0
  3  8  1  0  0  0  0
  3 28  1  0  0  0  0
  5  9  1  0  0  0  0
  5 25  1  0  0  0  0
  5 29  1  6  0  0  0
  6  7  1  6  0  0  0
  6 11  1  0  0  0  0
  8 12  1  0  0  0  0
  9 10  1  6  0  0  0
  9 14  1  0  0  0  0
 11 16  1  0  0  0  0
 12 13  1  1  0  0  0
 12 17  1  0  0  0  0
 14 15  1  6  0  0  0
 14 18  1  0  0  0  0
 15 31  1  0  0  0  0
 16 20  1  0  0  0  0
 17  2  1  6  0  0  0
 17 22  1  0  0  0  0
 18 19  1  1  0  0  0
 18 24  1  0  0  0  0
 18 30  1  0  0  0  0
 20 21  1  0  0  0  0
 20 26  1  1  0  0  0
 22 23  1  1  0  0  0
 22 28  1  0  0  0  0
 24 25  1  0  0  0  0
 26 27  1  0  0  0  0
 28 29  1  6  0  0  0
M  END
>  <CHROM.1>
-169.06412867,-156.66657022,-89.99583849,-159.44268938,-104.83171308,95.68497049
-22.13744972,-14.57328628,-14.44072319,-0.73607397,-0.51726772,-0.03013776

>  <Name>
ligand

>  <RI>
0

>  <Rbt.Current_Directory>
/home/itssahil/PROJECTS/Mol_Feturizer/New_Systems/rnas/4GPW

>  <Rbt.Executable>
rbdock ($Id: //depot/dev/client3/rdock/2013.1/src/exe/rbdock.cxx#4 $)

>  <Rbt.Library>
libRbt.so (2013.1, Build901 2013/11/27)

>  <Rbt.Parameter_File>
/export/apps/rDock/src/rDock_2013.1_src/data/scripts/dock_solv.prm

>  <Rbt.Receptor>
prm/pocket_docking_2.prm

>  <SCORE>
-20.2637

>  <SCORE.INTER>
-16.6137

>  <SCORE.INTER.CONST>
1

>  <SCORE.INTER.POLAR>
0

>  <SCORE.INTER.ROT>
6

>  <SCORE.INTER.SOLV>
16.5874

>  <SCORE.INTER.VDW>
-24.2049

>  <SCORE.INTER.norm>
-0.535925

>  <SCORE.INTRA>
-3.64998

>  <SCORE.INTRA.DIHEDRAL>
-7.19621

>  <SCORE.INTRA.DIHEDRAL.0>
19.2558

>  <SCORE.INTRA.POLAR>
0

>  <SCORE.INTRA.POLAR.0>
0

>  <SCORE.INTRA.REPUL>
0

>  <SCORE.INTRA.REPUL.0>
0

>  <SCORE.INTRA.SOLV>
-0.88934

>  <SCORE.INTRA.SOLV.lig_0>
-64.5929

>  <SCORE.INTRA.VDW>
0.392795

>  <SCORE.INTRA.VDW.0>
-4.40538

>  <SCORE.INTRA.norm>
-0.117741

>  <SCORE.RESTR>
0

>  <SCORE.RESTR.CAVITY>
0

>  <SCORE.RESTR.norm>
0

>  <SCORE.SYSTEM>
0

>  <SCORE.SYSTEM.CONST>
0

>  <SCORE.SYSTEM.DIHEDRAL>
0

>  <SCORE.SYSTEM.SOLV>
0

>  <SCORE.SYSTEM.norm>
0

>  <SCORE.heavy>
31

>  <SCORE.norm>
-0.653666

>  <RMSD>
0.644

$$$$
ligand
 OpenBabel11021811493D
libRbt.so/2013.1/901 2013/11/27
 31 33  0  0  0  0  0  0  0  0999 V2000
  -19.4118  -15.7104  -12.5000 C   0  0  2  0  0  0  0  0  0  0  0  0
  -19.9462  -15.9724  -13.7894 O   0  0  0  0  0  0  0  0  0  0  0  0
  -23.6257  -16.2733  -15.9213 C   0  0  2  0  0  0  0  0  0  0  0  0
  -25.0149  -16.4825  -16.1735 N   0  0  0  0  0  0  0  0  0  0  0  0
  -25.2729  -13.2905  -15.1946 C   0  0  2  0  0  0  0  0  0  0  0  0
  -17.8507  -15.5030  -12.6795 C   0  0  2  0  0  0  0  0  0  0  0  0
  -17.6136  -14.3816  -13.6004 N   0  0  0  0  0  0  0  0  0  0  0  0
  -23.0264  -17.5994  -15.2793 C   0  0  0  0  0  0  0  0  0  0  0  0
  -25.5768  -12.3047  -16.3710 C   0  0  2  0  0  0  0  0  0  0  0  0
  -25.5225  -13.0327  -17.5751 O   0  0  0  0  0  0  0  0  0  0  0  0
  -17.1944  -16.8318  -13.2275 C   0  0  0  0  0  0  0  0  0  0  0  0
  -21.4724  -17.3695  -15.0032 C   0  0  2  0  0  0  0  0  0  0  0  0
  -20.8934  -18.5945  -14.4102 N   0  0  0  0  0  0  0  0  0  0  0  0
  -24.5128  -11.1296  -16.3586 C   0  0  1  0  0  0  0  0  0  0  0  0
  -24.7872  -10.1706  -17.4880 N   0  0  0  0  0  0  0  0  0  0  0  0
  -17.8132  -18.1311  -12.5632 C   0  0  0  0  0  0  0  0  0  0  0  0
  -21.3021  -16.1561  -13.9993 C   0  0  2  0  0  0  0  0  0  0  0  0
  -24.6213  -10.3280  -14.9468 C   0  0  1  0  0  0  0  0  0  0  0  0
  -25.8891   -9.7400  -14.7371 O   0  0  0  0  0  0  0  0  0  0  0  0
  -18.9423  -18.0656  -11.8218 C   0  0  2  0  0  0  0  0  0  0  0  0
  -19.6400  -16.8375  -11.5903 O   0  0  0  0  0  0  0  0  0  0  0  0
  -21.9211  -14.8495  -14.6455 C   0  0  2  0  0  0  0  0  0  0  0  0
  -21.7724  -13.7551  -13.7257 O   0  0  0  0  0  0  0  0  0  0  0  0
  -24.3427  -11.3331  -13.7800 C   0  0  0  0  0  0  0  0  0  0  0  0
  -25.2834  -12.5324  -13.8798 O   0  0  0  0  0  0  0  0  0  0  0  0
  -19.5662  -19.2960  -11.1646 C   0  0  0  0  0  0  0  0  0  0  0  0
  -18.8869  -19.5274   -9.9207 O   0  0  0  0  0  0  0  0  0  0  0  0
  -23.4609  -15.0725  -14.9216 C   0  0  1  0  0  0  0  0  0  0  0  0
  -23.9740  -13.8896  -15.5099 O   0  0  0  0  0  0  0  0  0  0  0  0
  -23.6236   -9.1603  -14.7909 C   0  0  0  0  0  0  0  0  0  0  0  0
  -24.1627  -10.4906  -18.7877 C   0  0  0  0  0  0  0  0  0  0  0  0
  1  2  1  6  0  0  0
  1  6  1  0  0  0  0
  1 21  1  0  0  0  0
  3  4  1  1  0  0  0
  3  8  1  0  0  0  0
  3 28  1  0  0  0  0
  5  9  1  0  0  0  0
  5 25  1  0  0  0  0
  5 29  1  6  0  0  0
  6  7  1  6  0  0  0
  6 11  1  0  0  0  0
  8 12  1  0  0  0  0
  9 10  1  6  0  0  0
  9 14  1  0  0  0  0
 11 16  1  0  0  0  0
 12 13  1  1  0  0  0
 12 17  1  0  0  0  0
 14 15  1  6  0  0  0
 14 18  1  0  0  0  0
 15 31  1  0  0  0  0
 16 20  1  0  0  0  0
 17  2  1  6  0  0  0
 17 22  1  0  0  0  0
 18 19  1  1  0  0  0
 18 24  1  0  0  0  0
 18 30  1  0  0  0  0
 20 21  1  0  0  0  0
 20 26  1  1  0  0  0
 22 23  1  1  0  0  0
 22 28  1  0  0  0  0
 24 25  1  0  0  0  0
 26 27  1  0  0  0  0
 28 29  1  6  0  0  0
M  END
>  <CHROM.1>
-177.69101541,-162.91028819,-87.51404030,-137.59075775,83.26691493,102.27639727
-22.17276915,-14.61776199,-14.38446552,-0.73343732,-0.57377036,0.01212387

>  <Name>
ligand

>  <RI>
0

>  <Rbt.Current_Directory>
/home/itssahil/PROJECTS/Mol_Feturizer/New_Systems/rnas/4GPW

>  <Rbt.Executable>
rbdock ($Id: //depot/dev/client3/rdock/2013.1/src/exe/rbdock.cxx#4 $)

>  <Rbt.Library>
libRbt.so (2013.1, Build901 2013/11/27)

>  <Rbt.Parameter_File>
/export/apps/rDock/src/rDock_2013.1_src/data/scripts/dock_solv.prm

>  <Rbt.Receptor>
prm/pocket_docking_2.prm

>  <SCORE>
-17.3738

>  <SCORE.INTER>
-16.067

>  <SCORE.INTER.CONST>
1

>  <SCORE.INTER.POLAR>
0

>  <SCORE.INTER.ROT>
6

>  <SCORE.INTER.SOLV>
16.7108

>  <SCORE.INTER.VDW>
-23.8816

>  <SCORE.INTER.norm>
-0.518291

>  <SCORE.INTRA>
-1.30678

>  <SCORE.INTRA.DIHEDRAL>
-2.85561

>  <SCORE.INTRA.DIHEDRAL.0>
19.2558

>  <SCORE.INTRA.POLAR>
0

>  <SCORE.INTRA.POLAR.0>
0

>  <SCORE.INTRA.REPUL>
0

>  <SCORE.INTRA.REPUL.0>
0

>  <SCORE.INTRA.SOLV>
-0.100014

>  <SCORE.INTRA.SOLV.lig_0>
-64.5929

>  <SCORE.INTRA.VDW>
0.171029

>  <SCORE.INTRA.VDW.0>
-4.40538

>  <SCORE.INTRA.norm>
-0.0421543

>  <SCORE.RESTR>
0

>  <SCORE.RESTR.CAVITY>
0

>  <SCORE.RESTR.norm>
0

>  <SCORE.SYSTEM>
0

>  <SCORE.SYSTEM.CONST>
0

>  <SCORE.SYSTEM.DIHEDRAL>
0

>  <SCORE.SYSTEM.SOLV>
0

>  <SCORE.SYSTEM.norm>
0

>  <SCORE.heavy>
31

>  <SCORE.norm>
-0.560445

>  <RMSD>
0.644

$$$$
ligand
 OpenBabel11021811493D
libRbt.so/2013.1/901 2013/11/27
 31 33  0  0  0  0  0  0  0  0999 V2000
  -19.3321  -15.6253  -12.6534 C   0  0  2  0  0  0  0  0  0  0  0  0
  -19.8761  -16.0805  -13.8836 O   0  0  0  0  0  0  0  0  0  0  0  0
  -23.6016  -16.2506  -15.9493 C   0  0  2  0  0  0  0  0  0  0  0  0
  -24.9988  -16.4286  -16.1799 N   0  0  0  0  0  0  0  0  0  0  0  0
  -25.2037  -13.2912  -15.1282 C   0  0  2  0  0  0  0  0  0  0  0  0
  -17.8100  -15.2740  -12.9224 C   0  0  2  0  0  0  0  0  0  0  0  0
  -17.7281  -14.2401  -13.9645 N   0  0  0  0  0  0  0  0  0  0  0  0
  -23.0125  -17.6068  -15.3631 C   0  0  0  0  0  0  0  0  0  0  0  0
  -25.5428  -12.3343  -16.3187 C   0  0  2  0  0  0  0  0  0  0  0  0
  -25.4970  -13.0855  -17.5088 O   0  0  0  0  0  0  0  0  0  0  0  0
  -17.0296  -16.5772  -13.3576 C   0  0  0  0  0  0  0  0  0  0  0  0
  -21.4496  -17.4117  -15.1111 C   0  0  2  0  0  0  0  0  0  0  0  0
  -20.8801  -18.6648  -14.5702 N   0  0  0  0  0  0  0  0  0  0  0  0
  -24.4975  -11.1427  -16.3478 C   0  0  1  0  0  0  0  0  0  0  0  0
  -24.8059  -10.2112  -17.4914 N   0  0  0  0  0  0  0  0  0  0  0  0
  -17.4794  -17.8552  -12.5350 C   0  0  0  0  0  0  0  0  0  0  0  0
  -21.2389  -16.2348  -14.0719 C   0  0  2  0  0  0  0  0  0  0  0  0
  -24.5951  -10.3145  -14.9508 C   0  0  1  0  0  0  0  0  0  0  0  0
  -25.8685   -9.7421  -14.7314 O   0  0  0  0  0  0  0  0  0  0  0  0
  -18.5839  -17.8300  -11.7552 C   0  0  2  0  0  0  0  0  0  0  0  0
  -19.4048  -16.6650  -11.6222 O   0  0  0  0  0  0  0  0  0  0  0  0
  -21.8481  -14.8977  -14.6625 C   0  0  2  0  0  0  0  0  0  0  0  0
  -21.6626  -13.8368  -13.7107 O   0  0  0  0  0  0  0  0  0  0  0  0
  -24.2812  -11.2913  -13.7690 C   0  0  0  0  0  0  0  0  0  0  0  0
  -25.2044  -12.5069  -13.8288 O   0  0  0  0  0  0  0  0  0  0  0  0
  -19.0466  -19.0413  -10.9467 C   0  0  0  0  0  0  0  0  0  0  0  0
  -19.1420  -18.6456   -9.5695 O   0  0  0  0  0  0  0  0  0  0  0  0
  -23.3966  -15.0862  -14.9146 C   0  0  1  0  0  0  0  0  0  0  0  0
  -23.9009  -13.8763  -15.4535 O   0  0  0  0  0  0  0  0  0  0  0  0
  -23.6137   -9.1286  -14.8352 C   0  0  0  0  0  0  0  0  0  0  0  0
  -24.1401  -10.5059  -18.7765 C   0  0  0  0  0  0  0  0  0  0  0  0
  1  2  1  6  0  0  0
  1  6  1  0  0  0  0
  1 21  1  0  0  0  0
  3  4  1  1  0  0  0
  3  8  1  0  0  0  0
  3 28  1  0  0  0  0
  5  9  1  0  0  0  0
  5 25  1  0  0  0  0
  5 29  1  6  0  0  0
  6  7  1  6  0  0  0
  6 11  1  0  0  0  0
  8 12  1  0  0  0  0
  9 10  1  6  0  0  0
  9 14  1  0  0  0  0
 11 16  1  0  0  0  0
 12 13  1  1  0  0  0
 12 17  1  0  0  0  0
 14 15  1  6  0  0  0
 14 18  1  0  0  0  0
 15 31  1  0  0  0  0
 16 20  1  0  0  0  0
 17  2  1  6  0  0  0
 17 22  1  0  0  0  0
 18 19  1  1  0  0  0
 18 24  1  0  0  0  0
 18 30  1  0  0  0  0
 20 21  1  0  0  0  0
 20 26  1  1  0  0  0
 22 23  1  1  0  0  0
 22 28  1  0  0  0  0
 24 25  1  0  0  0  0
 26 27  1  0  0  0  0
 28 29  1  6  0  0  0
M  END
>  <CHROM.1>
-167.68775067,-158.57451142,-90.71220223,-149.59569743,123.80758003,99.98739321
-22.10128325,-14.54682924,-14.39848206,-0.68443304,-0.58867966,0.05052548

>  <Name>
ligand

>  <RI>
0

>  <Rbt.Current_Directory>
/home/itssahil/PROJECTS/Mol_Feturizer/New_Systems/rnas/4GPW

>  <Rbt.Executable>
rbdock ($Id: //depot/dev/client3/rdock/2013.1/src/exe/rbdock.cxx#4 $)

>  <Rbt.Library>
libRbt.so (2013.1, Build901 2013/11/27)

>  <Rbt.Parameter_File>
/export/apps/rDock/src/rDock_2013.1_src/data/scripts/dock_solv.prm

>  <Rbt.Receptor>
prm/pocket_docking_4.prm

>  <SCORE>
-19.1195

>  <SCORE.INTER>
-16.4928

>  <SCORE.INTER.CONST>
1

>  <SCORE.INTER.POLAR>
0

>  <SCORE.INTER.ROT>
6

>  <SCORE.INTER.SOLV>
16.9419

>  <SCORE.INTER.VDW>
-24.2425

>  <SCORE.INTER.norm>
-0.532025

>  <SCORE.INTRA>
-2.62668

>  <SCORE.INTRA.DIHEDRAL>
-5.10199

>  <SCORE.INTRA.DIHEDRAL.0>
19.2558

>  <SCORE.INTRA.POLAR>
0

>  <SCORE.INTRA.POLAR.0>
0

>  <SCORE.INTRA.REPUL>
0

>  <SCORE.INTRA.REPUL.0>
0

>  <SCORE.INTRA.SOLV>
-0.758057

>  <SCORE.INTRA.SOLV.lig_0>
-64.5929

>  <SCORE.INTRA.VDW>
0.30334

>  <SCORE.INTRA.VDW.0>
-4.40538

>  <SCORE.INTRA.norm>
-0.0847317

>  <SCORE.RESTR>
0

>  <SCORE.RESTR.CAVITY>
0

>  <SCORE.RESTR.norm>
0

>  <SCORE.SYSTEM>
0

>  <SCORE.SYSTEM.CONST>
0

>  <SCORE.SYSTEM.DIHEDRAL>
0

>  <SCORE.SYSTEM.SOLV>
0

>  <SCORE.SYSTEM.norm>
0

>  <SCORE.heavy>
31

>  <SCORE.norm>
-0.616757

>  <RMSD>
0.644

$$$$
ligand
 OpenBabel11021811493D
libRbt.so/2013.1/901 2013/11/27
 31 33  0  0  0  0  0  0  0  0999 V2000
  -19.1583  -15.5815  -12.7709 C   0  0  2  0  0  0  0  0  0  0  0  0
  -19.7534  -16.2151  -13.8939 O   0  0  0  0  0  0  0  0  0  0  0  0
  -23.5510  -16.1809  -15.8308 C   0  0  2  0  0  0  0  0  0  0  0  0
  -24.9608  -16.3017  -16.0179 N   0  0  0  0  0  0  0  0  0  0  0  0
  -25.0787  -13.2695  -14.9726 C   0  0  2  0  0  0  0  0  0  0  0  0
  -17.6140  -15.4257  -13.0921 C   0  0  2  0  0  0  0  0  0  0  0  0
  -17.4516  -14.6235  -14.3135 N   0  0  0  0  0  0  0  0  0  0  0  0
  -22.9915  -17.5770  -15.3133 C   0  0  0  0  0  0  0  0  0  0  0  0
  -25.4231  -12.3747  -16.2091 C   0  0  2  0  0  0  0  0  0  0  0  0
  -25.3197  -13.1709  -17.3658 O   0  0  0  0  0  0  0  0  0  0  0  0
  -16.9568  -16.8524  -13.2623 C   0  0  0  0  0  0  0  0  0  0  0  0
  -21.4149  -17.4457  -15.1102 C   0  0  2  0  0  0  0  0  0  0  0  0
  -20.8728  -18.7365  -14.6336 N   0  0  0  0  0  0  0  0  0  0  0  0
  -24.4225  -11.1463  -16.2625 C   0  0  1  0  0  0  0  0  0  0  0  0
  -24.7365  -10.2739  -17.4503 N   0  0  0  0  0  0  0  0  0  0  0  0
  -17.5095  -17.9027  -12.2116 C   0  0  0  0  0  0  0  0  0  0  0  0
  -21.1265  -16.3150  -14.0390 C   0  0  2  0  0  0  0  0  0  0  0  0
  -24.5859  -10.2670  -14.9033 C   0  0  1  0  0  0  0  0  0  0  0  0
  -25.8847   -9.7353  -14.7377 O   0  0  0  0  0  0  0  0  0  0  0  0
  -18.5993  -17.6294  -11.4590 C   0  0  2  0  0  0  0  0  0  0  0  0
  -19.3123  -16.3922  -11.5589 O   0  0  0  0  0  0  0  0  0  0  0  0
  -21.7068  -14.9371  -14.5609 C   0  0  2  0  0  0  0  0  0  0  0  0
  -21.4508  -13.9181  -13.5801 O   0  0  0  0  0  0  0  0  0  0  0  0
  -24.2656  -11.1828  -13.6754 C   0  0  0  0  0  0  0  0  0  0  0  0
  -25.1412  -12.4341  -13.7069 O   0  0  0  0  0  0  0  0  0  0  0  0
  -19.1592  -18.6159  -10.4352 C   0  0  0  0  0  0  0  0  0  0  0  0
  -20.2888  -19.2764  -11.0267 O   0  0  0  0  0  0  0  0  0  0  0  0
  -23.2689  -15.0623  -14.7643 C   0  0  1  0  0  0  0  0  0  0  0  0
  -23.7473  -13.8171  -15.2428 O   0  0  0  0  0  0  0  0  0  0  0  0
  -23.6524   -9.0408  -14.8134 C   0  0  0  0  0  0  0  0  0  0  0  0
  -24.0643  -10.6238  -18.7181 C   0  0  0  0  0  0  0  0  0  0  0  0
  1  2  1  6  0  0  0
  1  6  1  0  0  0  0
  1 21  1  0  0  0  0
  3  4  1  1  0  0  0
  3  8  1  0  0  0  0
  3 28  1  0  0  0  0
  5  9  1  0  0  0  0
  5 25  1  0  0  0  0
  5 29  1  6  0  0  0
  6  7  1  6  0  0  0
  6 11  1  0  0  0  0
  8 12  1  0  0  0  0
  9 10  1  6  0  0  0
  9 14  1  0  0  0  0
 11 16  1  0  0  0  0
 12 13  1  1  0  0  0
 12 17  1  0  0  0  0
 14 15  1  6  0  0  0
 14 18  1  0  0  0  0
 15 31  1  0  0  0  0
 16 20  1  0  0  0  0
 17  2  1  6  0  0  0
 17 22  1  0  0  0  0
 18 19  1  1  0  0  0
 18 24  1  0  0  0  0
 18 30  1  0  0  0  0
 20 21  1  0  0  0  0
 20 26  1  1  0  0  0
 22 23  1  1  0  0  0
 22 28  1  0  0  0  0
 24 25  1  0  0  0  0
 26 27  1  0  0  0  0
 28 29  1  6  0  0  0
M  END
>  <CHROM.1>
-169.59998041,-150.91320348,-88.62633383,-162.13312292,-100.45547354,92.65637030
-22.06700170,-14.56997700,-14.37350167,-0.73890360,-0.52295464,-0.00689632

>  <Name>
ligand

>  <RI>
0

>  <Rbt.Current_Directory>
/home/itssahil/PROJECTS/Mol_Feturizer/New_Systems/rnas/4GPW

>  <Rbt.Executable>
rbdock ($Id: //depot/dev/client3/rdock/2013.1/src/exe/rbdock.cxx#4 $)

>  <Rbt.Library>
libRbt.so (2013.1, Build901 2013/11/27)

>  <Rbt.Parameter_File>
/export/apps/rDock/src/rDock_2013.1_src/data/scripts/dock_solv.prm

>  <Rbt.Receptor>
prm/pocket_docking_3.prm

>  <SCORE>
-20.1377

>  <SCORE.INTER>
-16.657

>  <SCORE.INTER.CONST>
1

>  <SCORE.INTER.POLAR>
0

>  <SCORE.INTER.ROT>
6

>  <SCORE.INTER.SOLV>
16.5987

>  <SCORE.INTER.VDW>
-24.2376

>  <SCORE.INTER.norm>
-0.537323

>  <SCORE.INTRA>
-3.4807

>  <SCORE.INTRA.DIHEDRAL>
-7.04323

>  <SCORE.INTRA.DIHEDRAL.0>
19.2558

>  <SCORE.INTRA.POLAR>
0

>  <SCORE.INTRA.POLAR.0>
0

>  <SCORE.INTRA.REPUL>
0

>  <SCORE.INTRA.REPUL.0>
0

>  <SCORE.INTRA.SOLV>
-0.990573

>  <SCORE.INTRA.SOLV.lig_0>
-64.5929

>  <SCORE.INTRA.VDW>
0.5362

>  <SCORE.INTRA.VDW.0>
-4.40538

>  <SCORE.INTRA.norm>
-0.112281

>  <SCORE.RESTR>
0

>  <SCORE.RESTR.CAVITY>
0

>  <SCORE.RESTR.norm>
0

>  <SCORE.SYSTEM>
0

>  <SCORE.SYSTEM.CONST>
0

>  <SCORE.SYSTEM.DIHEDRAL>
0

>  <SCORE.SYSTEM.SOLV>
0

>  <SCORE.SYSTEM.norm>
0

>  <SCORE.heavy>
31

>  <SCORE.norm>
-0.649603

>  <RMSD>
0.645

$$$$
ligand
 OpenBabel11021811493D
libRbt.so/2013.1/901 2013/11/27
 31 33  0  0  0  0  0  0  0  0999 V2000
  -19.1833  -15.5849  -12.8500 C   0  0  2  0  0  0  0  0  0  0  0  0
  -19.7892  -16.2392  -13.9552 O   0  0  0  0  0  0  0  0  0  0  0  0
  -23.6029  -16.1946  -15.8601 C   0  0  2  0  0  0  0  0  0  0  0  0
  -25.0146  -16.3115  -16.0353 N   0  0  0  0  0  0  0  0  0  0  0  0
  -25.1120  -13.2749  -14.9813 C   0  0  2  0  0  0  0  0  0  0  0  0
  -17.6460  -15.4169  -13.1978 C   0  0  2  0  0  0  0  0  0  0  0  0
  -17.5117  -14.6289  -14.4318 N   0  0  0  0  0  0  0  0  0  0  0  0
  -23.0429  -17.5923  -15.3474 C   0  0  0  0  0  0  0  0  0  0  0  0
  -25.4603  -12.3627  -16.2040 C   0  0  2  0  0  0  0  0  0  0  0  0
  -25.3741  -13.1459  -17.3709 O   0  0  0  0  0  0  0  0  0  0  0  0
  -16.9762  -16.8388  -13.3603 C   0  0  0  0  0  0  0  0  0  0  0  0
  -21.4643  -17.4652  -15.1576 C   0  0  2  0  0  0  0  0  0  0  0  0
  -20.9217  -18.7576  -14.6856 N   0  0  0  0  0  0  0  0  0  0  0  0
  -24.4498  -11.1421  -16.2522 C   0  0  1  0  0  0  0  0  0  0  0  0
  -24.7674  -10.2531  -17.4266 N   0  0  0  0  0  0  0  0  0  0  0  0
  -17.5010  -17.8811  -12.2876 C   0  0  0  0  0  0  0  0  0  0  0  0
  -21.1638  -16.3354  -14.0888 C   0  0  2  0  0  0  0  0  0  0  0  0
  -24.5933  -10.2776  -14.8813 C   0  0  1  0  0  0  0  0  0  0  0  0
  -25.8861   -9.7371  -14.6974 O   0  0  0  0  0  0  0  0  0  0  0  0
  -18.5816  -17.6097  -11.5213 C   0  0  2  0  0  0  0  0  0  0  0  0
  -19.3093  -16.3816  -11.6255 O   0  0  0  0  0  0  0  0  0  0  0  0
  -21.7447  -14.9559  -14.6058 C   0  0  2  0  0  0  0  0  0  0  0  0
  -21.4777  -13.9377  -13.6271 O   0  0  0  0  0  0  0  0  0  0  0  0
  -24.2695  -11.2106  -13.6673 C   0  0  0  0  0  0  0  0  0  0  0  0
  -25.1558  -12.4541  -13.7054 O   0  0  0  0  0  0  0  0  0  0  0  0
  -19.1145  -18.5888  -10.4761 C   0  0  0  0  0  0  0  0  0  0  0  0
  -20.3060  -19.1941  -11.0016 O   0  0  0  0  0  0  0  0  0  0  0  0
  -23.3088  -15.0768  -14.7960 C   0  0  1  0  0  0  0  0  0  0  0  0
  -23.7878  -13.8302  -15.2703 O   0  0  0  0  0  0  0  0  0  0  0  0
  -23.6488   -9.0603  -14.7856 C   0  0  0  0  0  0  0  0  0  0  0  0
  -24.1125  -10.5954  -18.7055 C   0  0  0  0  0  0  0  0  0  0  0  0
  1  2  1  6  0  0  0
  1  6  1  0  0  0  0
  1 21  1  0  0  0  0
  3  4  1  1  0  0  0
  3  8  1  0  0  0  0
  3 28  1  0  0  0  0
  5  9  1  0  0  0  0
  5 25  1  0  0  0  0
  5 29  1  6  0  0  0
  6  7  1  6  0  0  0
  6 11  1  0  0  0  0
  8 12  1  0  0  0  0
  9 10  1  6  0  0  0
  9 14  1  0  0  0  0
 11 16  1  0  0  0  0
 12 13  1  1  0  0  0
 12 17  1  0  0  0  0
 14 15  1  6  0  0  0
 14 18  1  0  0  0  0
 15 31  1  0  0  0  0
 16 20  1  0  0  0  0
 17  2  1  6  0  0  0
 17 22  1  0  0  0  0
 18 19  1  1  0  0  0
 18 24  1  0  0  0  0
 18 30  1  0  0  0  0
 20 21  1  0  0  0  0
 20 26  1  1  0  0  0
 22 23  1  1  0  0  0
 22 28  1  0  0  0  0
 24 25  1  0  0  0  0
 26 27  1  0  0  0  0
 28 29  1  6  0  0  0
M  END
>  <CHROM.1>
-168.46308746,-151.82165998,-88.48247744,-163.36077799,-104.80337888,93.09886668
-22.09290918,-14.56991907,-14.40268760,-0.73675472,-0.51705691,-0.00203309

>  <Name>
ligand

>  <RI>
0

>  <Rbt.Current_Directory>
/home/itssahil/PROJECTS/Mol_Feturizer/New_Systems/rnas/4GPW

>  <Rbt.Executable>
rbdock ($Id: //depot/dev/client3/rdock/2013.1/src/exe/rbdock.cxx#4 $)

>  <Rbt.Library>
libRbt.so (2013.1, Build901 2013/11/27)

>  <Rbt.Parameter_File>
/export/apps/rDock/src/rDock_2013.1_src/data/scripts/dock_solv.prm

>  <Rbt.Receptor>
prm/pocket_docking_2.prm

>  <SCORE>
-20.0785

>  <SCORE.INTER>
-16.3994

>  <SCORE.INTER.CONST>
1

>  <SCORE.INTER.POLAR>
0

>  <SCORE.INTER.ROT>
6

>  <SCORE.INTER.SOLV>
16.5598

>  <SCORE.INTER.VDW>
-24.0529

>  <SCORE.INTER.norm>
-0.529013

>  <SCORE.INTRA>
-3.67913

>  <SCORE.INTRA.DIHEDRAL>
-7.37344

>  <SCORE.INTRA.DIHEDRAL.0>
19.2558

>  <SCORE.INTRA.POLAR>
0

>  <SCORE.INTRA.POLAR.0>
0

>  <SCORE.INTRA.REPUL>
0

>  <SCORE.INTRA.REPUL.0>
0

>  <SCORE.INTRA.SOLV>
-1.13433

>  <SCORE.INTRA.SOLV.lig_0>
-64.5929

>  <SCORE.INTRA.VDW>
0.574752

>  <SCORE.INTRA.VDW.0>
-4.40538

>  <SCORE.INTRA.norm>
-0.118682

>  <SCORE.RESTR>
0

>  <SCORE.RESTR.CAVITY>
0

>  <SCORE.RESTR.norm>
0

>  <SCORE.SYSTEM>
0

>  <SCORE.SYSTEM.CONST>
0

>  <SCORE.SYSTEM.DIHEDRAL>
0

>  <SCORE.SYSTEM.SOLV>
0

>  <SCORE.SYSTEM.norm>
0

>  <SCORE.heavy>
31

>  <SCORE.norm>
-0.647695

>  <RMSD>
0.646

$$$$
ligand
 OpenBabel11021811493D
libRbt.so/2013.1/901 2013/11/27
 31 33  0  0  0  0  0  0  0  0999 V2000
  -19.3150  -15.5924  -12.6463 C   0  0  2  0  0  0  0  0  0  0  0  0
  -19.8577  -16.0285  -13.8840 O   0  0  0  0  0  0  0  0  0  0  0  0
  -23.5791  -16.2405  -15.9529 C   0  0  2  0  0  0  0  0  0  0  0  0
  -24.9752  -16.4281  -16.1835 N   0  0  0  0  0  0  0  0  0  0  0  0
  -25.2012  -13.2852  -15.1750 C   0  0  2  0  0  0  0  0  0  0  0  0
  -17.7886  -15.2521  -12.9045 C   0  0  2  0  0  0  0  0  0  0  0  0
  -17.6926  -14.2071  -13.9343 N   0  0  0  0  0  0  0  0  0  0  0  0
  -22.9842  -17.5871  -15.3506 C   0  0  0  0  0  0  0  0  0  0  0  0
  -25.5244  -12.3181  -16.3617 C   0  0  2  0  0  0  0  0  0  0  0  0
  -25.4563  -13.0576  -17.5580 O   0  0  0  0  0  0  0  0  0  0  0  0
  -17.0182  -16.5572  -13.3511 C   0  0  0  0  0  0  0  0  0  0  0  0
  -21.4226  -17.3813  -15.0986 C   0  0  2  0  0  0  0  0  0  0  0  0
  -20.8477  -18.6254  -14.5428 N   0  0  0  0  0  0  0  0  0  0  0  0
  -24.4834  -11.1225  -16.3622 C   0  0  1  0  0  0  0  0  0  0  0  0
  -24.7766  -10.1811  -17.5016 N   0  0  0  0  0  0  0  0  0  0  0  0
  -17.4834  -17.8404  -12.5452 C   0  0  0  0  0  0  0  0  0  0  0  0
  -21.2193  -16.1918  -14.0725 C   0  0  2  0  0  0  0  0  0  0  0  0
  -24.6071  -10.3081  -14.9590 C   0  0  1  0  0  0  0  0  0  0  0  0
  -25.8861   -9.7426  -14.7551 O   0  0  0  0  0  0  0  0  0  0  0  0
  -18.5912  -17.8140  -11.7701 C   0  0  2  0  0  0  0  0  0  0  0  0
  -19.4020  -16.6431  -11.6274 O   0  0  0  0  0  0  0  0  0  0  0  0
  -21.8343  -14.8644  -14.6791 C   0  0  2  0  0  0  0  0  0  0  0  0
  -21.6555  -13.7919  -13.7391 O   0  0  0  0  0  0  0  0  0  0  0  0
  -24.3089  -11.2951  -13.7817 C   0  0  0  0  0  0  0  0  0  0  0  0
  -25.2262  -12.5134  -13.8683 O   0  0  0  0  0  0  0  0  0  0  0  0
  -19.0686  -19.0301  -10.9776 C   0  0  0  0  0  0  0  0  0  0  0  0
  -19.2254  -18.6328   -9.6065 O   0  0  0  0  0  0  0  0  0  0  0  0
  -23.3815  -15.0635  -14.9312 C   0  0  1  0  0  0  0  0  0  0  0  0
  -23.8910  -13.8624  -15.4845 O   0  0  0  0  0  0  0  0  0  0  0  0
  -23.6323   -9.1198  -14.8159 C   0  0  0  0  0  0  0  0  0  0  0  0
  -24.1867  -10.5298  -18.8101 C   0  0  0  0  0  0  0  0  0  0  0  0
  1  2  1  6  0  0  0
  1  6  1  0  0  0  0
  1 21  1  0  0  0  0
  3  4  1  1  0  0  0
  3  8  1  0  0  0  0
  3 28  1  0  0  0  0
  5  9  1  0  0  0  0
  5 25  1  0  0  0  0
  5 29  1  6  0  0  0
  6  7  1  6  0  0  0
  6 11  1  0  0  0  0
  8 12  1  0  0  0  0
  9 10  1  6  0  0  0
  9 14  1  0  0  0  0
 11 16  1  0  0  0  0
 12 13  1  1  0  0  0
 12 17  1  0  0  0  0
 14 15  1  6  0  0  0
 14 18  1  0  0  0  0
 15 31  1  0  0  0  0
 16 20  1  0  0  0  0
 17  2  1  6  0  0  0
 17 22  1  0  0  0  0
 18 19  1  1  0  0  0
 18 24  1  0  0  0  0
 18 30  1  0  0  0  0
 20 21  1  0  0  0  0
 20 26  1  1  0  0  0
 22 23  1  1  0  0  0
 22 28  1  0  0  0  0
 24 25  1  0  0  0  0
 26 27  1  0  0  0  0
 28 29  1  6  0  0  0
M  END
>  <CHROM.1>
-168.90183519,-159.73084892,-85.33873269,-147.79895489,126.40459001,99.51774241
-22.09716745,-14.52836745,-14.41024333,-0.68454110,-0.58764371,0.04715516

>  <Name>
ligand

>  <RI>
0

>  <Rbt.Current_Directory>
/home/itssahil/PROJECTS/Mol_Feturizer/New_Systems/rnas/4GPW

>  <Rbt.Executable>
rbdock ($Id: //depot/dev/client3/rdock/2013.1/src/exe/rbdock.cxx#4 $)

>  <Rbt.Library>
libRbt.so (2013.1, Build901 2013/11/27)

>  <Rbt.Parameter_File>
/export/apps/rDock/src/rDock_2013.1_src/data/scripts/dock_solv.prm

>  <Rbt.Receptor>
prm/pocket_docking_4.prm

>  <SCORE>
-19.1367

>  <SCORE.INTER>
-16.5869

>  <SCORE.INTER.CONST>
1

>  <SCORE.INTER.POLAR>
0

>  <SCORE.INTER.ROT>
6

>  <SCORE.INTER.SOLV>
16.7616

>  <SCORE.INTER.VDW>
-24.2451

>  <SCORE.INTER.norm>
-0.53506

>  <SCORE.INTRA>
-2.54981

>  <SCORE.INTRA.DIHEDRAL>
-5.29954

>  <SCORE.INTRA.DIHEDRAL.0>
19.2558

>  <SCORE.INTRA.POLAR>
0

>  <SCORE.INTRA.POLAR.0>
0

>  <SCORE.INTRA.REPUL>
0

>  <SCORE.INTRA.REPUL.0>
0

>  <SCORE.INTRA.SOLV>
-0.653504

>  <SCORE.INTRA.SOLV.lig_0>
-64.5929

>  <SCORE.INTRA.VDW>
0.426714

>  <SCORE.INTRA.VDW.0>
-4.40538

>  <SCORE.INTRA.norm>
-0.0822519

>  <SCORE.RESTR>
0

>  <SCORE.RESTR.CAVITY>
0

>  <SCORE.RESTR.norm>
0

>  <SCORE.SYSTEM>
0

>  <SCORE.SYSTEM.CONST>
0

>  <SCORE.SYSTEM.DIHEDRAL>
0

>  <SCORE.SYSTEM.SOLV>
0

>  <SCORE.SYSTEM.norm>
0

>  <SCORE.heavy>
31

>  <SCORE.norm>
-0.617312

>  <RMSD>
0.646

$$$$
ligand
 OpenBabel11021811493D
libRbt.so/2013.1/901 2013/11/27
 31 33  0  0  0  0  0  0  0  0999 V2000
  -19.3225  -15.6479  -12.5984 C   0  0  2  0  0  0  0  0  0  0  0  0
  -19.8586  -16.0870  -13.8379 O   0  0  0  0  0  0  0  0  0  0  0  0
  -23.5667  -16.0495  -15.9411 C   0  0  2  0  0  0  0  0  0  0  0  0
  -24.9643  -16.1882  -16.1955 N   0  0  0  0  0  0  0  0  0  0  0  0
  -25.1660  -13.1715  -14.9977 C   0  0  2  0  0  0  0  0  0  0  0  0
  -17.7945  -15.3091  -12.8491 C   0  0  2  0  0  0  0  0  0  0  0  0
  -17.6923  -14.2668  -13.8811 N   0  0  0  0  0  0  0  0  0  0  0  0
  -23.0040  -17.4534  -15.4487 C   0  0  0  0  0  0  0  0  0  0  0  0
  -25.5236  -12.2749  -16.2291 C   0  0  2  0  0  0  0  0  0  0  0  0
  -25.4250  -13.0674  -17.3888 O   0  0  0  0  0  0  0  0  0  0  0  0
  -17.0223  -16.6158  -13.2883 C   0  0  0  0  0  0  0  0  0  0  0  0
  -21.4407  -17.3017  -15.1705 C   0  0  2  0  0  0  0  0  0  0  0  0
  -20.8956  -18.5993  -14.7160 N   0  0  0  0  0  0  0  0  0  0  0  0
  -24.5289  -11.0418  -16.2864 C   0  0  1  0  0  0  0  0  0  0  0  0
  -24.8556  -10.1675  -17.4694 N   0  0  0  0  0  0  0  0  0  0  0  0
  -17.4926  -17.8967  -12.4816 C   0  0  0  0  0  0  0  0  0  0  0  0
  -21.2218  -16.2057  -14.0481 C   0  0  2  0  0  0  0  0  0  0  0  0
  -24.6862  -10.1670  -14.9236 C   0  0  1  0  0  0  0  0  0  0  0  0
  -25.9862   -9.6417  -14.7469 O   0  0  0  0  0  0  0  0  0  0  0  0
  -18.6045  -17.8677  -11.7126 C   0  0  2  0  0  0  0  0  0  0  0  0
  -19.4155  -16.6961  -11.5773 O   0  0  0  0  0  0  0  0  0  0  0  0
  -21.8048  -14.8202  -14.5465 C   0  0  2  0  0  0  0  0  0  0  0  0
  -21.6120  -13.8331  -13.5197 O   0  0  0  0  0  0  0  0  0  0  0  0
  -24.3528  -11.0848  -13.7006 C   0  0  0  0  0  0  0  0  0  0  0  0
  -25.2229  -12.3400  -13.7292 O   0  0  0  0  0  0  0  0  0  0  0  0
  -19.0869  -19.0816  -10.9196 C   0  0  0  0  0  0  0  0  0  0  0  0
  -19.1921  -18.6972   -9.5399 O   0  0  0  0  0  0  0  0  0  0  0  0
  -23.3536  -14.9655  -14.8241 C   0  0  1  0  0  0  0  0  0  0  0  0
  -23.8342  -13.7123  -15.2793 O   0  0  0  0  0  0  0  0  0  0  0  0
  -23.7577   -8.9368  -14.8371 C   0  0  0  0  0  0  0  0  0  0  0  0
  -24.1917  -10.5111  -18.7433 C   0  0  0  0  0  0  0  0  0  0  0  0
  1  2  1  6  0  0  0
  1  6  1  0  0  0  0
  1 21  1  0  0  0  0
  3  4  1  1  0  0  0
  3  8  1  0  0  0  0
  3 28  1  0  0  0  0
  5  9  1  0  0  0  0
  5 25  1  0  0  0  0
  5 29  1  6  0  0  0
  6  7  1  6  0  0  0
  6 11  1  0  0  0  0
  8 12  1  0  0  0  0
  9 10  1  6  0  0  0
  9 14  1  0  0  0  0
 11 16  1  0  0  0  0
 12 13  1  1  0  0  0
 12 17  1  0  0  0  0
 14 15  1  6  0  0  0
 14 18  1  0  0  0  0
 15 31  1  0  0  0  0
 16 20  1  0  0  0  0
 17  2  1  6  0  0  0
 17 22  1  0  0  0  0
 18 19  1  1  0  0  0
 18 24  1  0  0  0  0
 18 30  1  0  0  0  0
 20 21  1  0  0  0  0
 20 26  1  1  0  0  0
 22 23  1  1  0  0  0
 22 28  1  0  0  0  0
 24 25  1  0  0  0  0
 26 27  1  0  0  0  0
 28 29  1  6  0  0  0
M  END
>  <CHROM.1>
-166.61716536,-149.93812649,-88.60065423,-153.65377366,123.80104705,95.62507259
-22.10818026,-14.48380353,-14.35040738,-0.66205030,-0.61965261,0.10766589

>  <Name>
ligand

>  <RI>
0

>  <Rbt.Current_Directory>
/home/itssahil/PROJECTS/Mol_Feturizer/New_Systems/rnas/4GPW

>  <Rbt.Executable>
rbdock ($Id: //depot/dev/client3/rdock/2013.1/src/exe/rbdock.cxx#4 $)

>  <Rbt.Library>
libRbt.so (2013.1, Build901 2013/11/27)

>  <Rbt.Parameter_File>
/export/apps/rDock/src/rDock_2013.1_src/data/scripts/dock_solv.prm

>  <Rbt.Receptor>
prm/pocket_docking_5.prm

>  <SCORE>
-19.1122

>  <SCORE.INTER>
-16.7423

>  <SCORE.INTER.CONST>
1

>  <SCORE.INTER.POLAR>
0

>  <SCORE.INTER.ROT>
6

>  <SCORE.INTER.SOLV>
17.1841

>  <SCORE.INTER.VDW>
-24.4895

>  <SCORE.INTER.norm>
-0.540073

>  <SCORE.INTRA>
-2.3699

>  <SCORE.INTRA.DIHEDRAL>
-4.97924

>  <SCORE.INTRA.DIHEDRAL.0>
19.2558

>  <SCORE.INTRA.POLAR>
0

>  <SCORE.INTRA.POLAR.0>
0

>  <SCORE.INTRA.REPUL>
0

>  <SCORE.INTRA.REPUL.0>
0

>  <SCORE.INTRA.SOLV>
-0.752127

>  <SCORE.INTRA.SOLV.lig_0>
-64.5929

>  <SCORE.INTRA.VDW>
0.495786

>  <SCORE.INTRA.VDW.0>
-4.40538

>  <SCORE.INTRA.norm>
-0.0764483

>  <SCORE.RESTR>
0

>  <SCORE.RESTR.CAVITY>
0

>  <SCORE.RESTR.norm>
0

>  <SCORE.SYSTEM>
0

>  <SCORE.SYSTEM.CONST>
0

>  <SCORE.SYSTEM.DIHEDRAL>
0

>  <SCORE.SYSTEM.SOLV>
0

>  <SCORE.SYSTEM.norm>
0

>  <SCORE.heavy>
31

>  <SCORE.norm>
-0.616522

>  <RMSD>
0.647

$$$$
ligand
 OpenBabel11021811493D
libRbt.so/2013.1/901 2013/11/27
 31 33  0  0  0  0  0  0  0  0999 V2000
  -19.2694  -15.5084  -12.7898 C   0  0  2  0  0  0  0  0  0  0  0  0
  -19.8371  -16.1553  -13.9194 O   0  0  0  0  0  0  0  0  0  0  0  0
  -23.6096  -16.3181  -15.8982 C   0  0  2  0  0  0  0  0  0  0  0  0
  -25.0137  -16.4835  -16.0945 N   0  0  0  0  0  0  0  0  0  0  0  0
  -25.1916  -13.3667  -15.1572 C   0  0  2  0  0  0  0  0  0  0  0  0
  -17.7335  -15.2823  -13.1094 C   0  0  2  0  0  0  0  0  0  0  0  0
  -17.6067  -14.4609  -14.3223 N   0  0  0  0  0  0  0  0  0  0  0  0
  -23.0234  -17.6704  -15.3003 C   0  0  0  0  0  0  0  0  0  0  0  0
  -25.5136  -12.4276  -16.3666 C   0  0  2  0  0  0  0  0  0  0  0  0
  -25.4213  -13.1896  -17.5471 O   0  0  0  0  0  0  0  0  0  0  0  0
  -17.0151  -16.6774  -13.2948 C   0  0  0  0  0  0  0  0  0  0  0  0
  -21.4530  -17.4895  -15.0868 C   0  0  2  0  0  0  0  0  0  0  0  0
  -20.8861  -18.7394  -14.5356 N   0  0  0  0  0  0  0  0  0  0  0  0
  -24.4889  -11.2181  -16.3787 C   0  0  1  0  0  0  0  0  0  0  0  0
  -24.7812  -10.3034  -17.5400 N   0  0  0  0  0  0  0  0  0  0  0  0
  -17.5212  -17.7617  -12.2554 C   0  0  0  0  0  0  0  0  0  0  0  0
  -21.2054  -16.2966  -14.0745 C   0  0  2  0  0  0  0  0  0  0  0  0
  -24.6403  -10.3781  -14.9935 C   0  0  1  0  0  0  0  0  0  0  0  0
  -25.9291   -9.8263  -14.8158 O   0  0  0  0  0  0  0  0  0  0  0  0
  -18.6214  -17.5440  -11.4998 C   0  0  2  0  0  0  0  0  0  0  0  0
  -19.3874  -16.3379  -11.5865 O   0  0  0  0  0  0  0  0  0  0  0  0
  -21.8121  -14.9632  -14.6760 C   0  0  2  0  0  0  0  0  0  0  0  0
  -21.5930  -13.8875  -13.7483 O   0  0  0  0  0  0  0  0  0  0  0  0
  -24.3428  -11.3375  -13.7935 C   0  0  0  0  0  0  0  0  0  0  0  0
  -25.2426  -12.5698  -13.8665 O   0  0  0  0  0  0  0  0  0  0  0  0
  -19.1373  -18.5647  -10.4865 C   0  0  0  0  0  0  0  0  0  0  0  0
  -20.3110  -19.1825  -11.0369 O   0  0  0  0  0  0  0  0  0  0  0  0
  -23.3680  -15.1377  -14.8900 C   0  0  1  0  0  0  0  0  0  0  0  0
  -23.8701  -13.9318  -15.4399 O   0  0  0  0  0  0  0  0  0  0  0  0
  -23.6833   -9.1739  -14.8627 C   0  0  0  0  0  0  0  0  0  0  0  0
  -24.0786  -10.6023  -18.8044 C   0  0  0  0  0  0  0  0  0  0  0  0
  1  2  1  6  0  0  0
  1  6  1  0  0  0  0
  1 21  1  0  0  0  0
  3  4  1  1  0  0  0
  3  8  1  0  0  0  0
  3 28  1  0  0  0  0
  5  9  1  0  0  0  0
  5 25  1  0  0  0  0
  5 29  1  6  0  0  0
  6  7  1  6  0  0  0
  6 11  1  0  0  0  0
  8 12  1  0  0  0  0
  9 10  1  6  0  0  0
  9 14  1  0  0  0  0
 11 16  1  0  0  0  0
 12 13  1  1  0  0  0
 12 17  1  0  0  0  0
 14 15  1  6  0  0  0
 14 18  1  0  0  0  0
 15 31  1  0  0  0  0
 16 20  1  0  0  0  0
 17  2  1  6  0  0  0
 17 22  1  0  0  0  0
 18 19  1  1  0  0  0
 18 24  1  0  0  0  0
 18 30  1  0  0  0  0
 20 21  1  0  0  0  0
 20 26  1  1  0  0  0
 22 23  1  1  0  0  0
 22 28  1  0  0  0  0
 24 25  1  0  0  0  0
 26 27  1  0  0  0  0
 28 29  1  6  0  0  0
M  END
>  <CHROM.1>
-168.68144482,-157.57916101,-90.46647761,-158.80484419,-105.57501606,96.13730643
-22.13552044,-14.58454004,-14.44670222,-0.73364121,-0.51851839,-0.03211618

>  <Name>
ligand

>  <RI>
0

>  <Rbt.Current_Directory>
/home/itssahil/PROJECTS/Mol_Feturizer/New_Systems/rnas/4GPW

>  <Rbt.Executable>
rbdock ($Id: //depot/dev/client3/rdock/2013.1/src/exe/rbdock.cxx#4 $)

>  <Rbt.Library>
libRbt.so (2013.1, Build901 2013/11/27)

>  <Rbt.Parameter_File>
/export/apps/rDock/src/rDock_2013.1_src/data/scripts/dock_solv.prm

>  <Rbt.Receptor>
prm/pocket_docking_2.prm

>  <SCORE>
-20.2539

>  <SCORE.INTER>
-16.584

>  <SCORE.INTER.CONST>
1

>  <SCORE.INTER.POLAR>
0

>  <SCORE.INTER.ROT>
6

>  <SCORE.INTER.SOLV>
16.5178

>  <SCORE.INTER.VDW>
-24.1619

>  <SCORE.INTER.norm>
-0.534968

>  <SCORE.INTRA>
-3.66993

>  <SCORE.INTRA.DIHEDRAL>
-7.14044

>  <SCORE.INTRA.DIHEDRAL.0>
19.2558

>  <SCORE.INTRA.POLAR>
0

>  <SCORE.INTRA.POLAR.0>
0

>  <SCORE.INTRA.REPUL>
0

>  <SCORE.INTRA.REPUL.0>
0

>  <SCORE.INTRA.SOLV>
-0.8496

>  <SCORE.INTRA.SOLV.lig_0>
-64.5929

>  <SCORE.INTRA.VDW>
0.325085

>  <SCORE.INTRA.VDW.0>
-4.40538

>  <SCORE.INTRA.norm>
-0.118385

>  <SCORE.RESTR>
0

>  <SCORE.RESTR.CAVITY>
0

>  <SCORE.RESTR.norm>
0

>  <SCORE.SYSTEM>
0

>  <SCORE.SYSTEM.CONST>
0

>  <SCORE.SYSTEM.DIHEDRAL>
0

>  <SCORE.SYSTEM.SOLV>
0

>  <SCORE.SYSTEM.norm>
0

>  <SCORE.heavy>
31

>  <SCORE.norm>
-0.653353

>  <RMSD>
0.648

$$$$
ligand
 OpenBabel11021811493D
libRbt.so/2013.1/901 2013/11/27
 31 33  0  0  0  0  0  0  0  0999 V2000
  -19.2680  -15.5402  -12.8270 C   0  0  2  0  0  0  0  0  0  0  0  0
  -19.8449  -16.2031  -13.9425 O   0  0  0  0  0  0  0  0  0  0  0  0
  -23.6247  -16.3258  -15.9104 C   0  0  2  0  0  0  0  0  0  0  0  0
  -25.0310  -16.4764  -16.1026 N   0  0  0  0  0  0  0  0  0  0  0  0
  -25.1786  -13.3647  -15.1734 C   0  0  2  0  0  0  0  0  0  0  0  0
  -17.7318  -15.3311  -13.1568 C   0  0  2  0  0  0  0  0  0  0  0  0
  -17.6041  -14.5326  -14.3848 N   0  0  0  0  0  0  0  0  0  0  0  0
  -23.0509  -17.6844  -15.3147 C   0  0  0  0  0  0  0  0  0  0  0  0
  -25.4882  -12.4204  -16.3819 C   0  0  2  0  0  0  0  0  0  0  0  0
  -25.3941  -13.1797  -17.5640 O   0  0  0  0  0  0  0  0  0  0  0  0
  -17.0242  -16.7344  -13.3199 C   0  0  0  0  0  0  0  0  0  0  0  0
  -21.4781  -17.5200  -15.1057 C   0  0  2  0  0  0  0  0  0  0  0  0
  -20.9226  -18.7759  -14.5566 N   0  0  0  0  0  0  0  0  0  0  0  0
  -24.4561  -11.2171  -16.3851 C   0  0  1  0  0  0  0  0  0  0  0  0
  -24.7365  -10.2975  -17.5454 N   0  0  0  0  0  0  0  0  0  0  0  0
  -17.5339  -17.7961  -12.2591 C   0  0  0  0  0  0  0  0  0  0  0  0
  -21.2151  -16.3301  -14.0937 C   0  0  2  0  0  0  0  0  0  0  0  0
  -24.6099  -10.3800  -14.9984 C   0  0  1  0  0  0  0  0  0  0  0  0
  -25.8964   -9.8208  -14.8262 O   0  0  0  0  0  0  0  0  0  0  0  0
  -18.6293  -17.5568  -11.5031 C   0  0  2  0  0  0  0  0  0  0  0  0
  -19.3869  -16.3469  -11.6085 O   0  0  0  0  0  0  0  0  0  0  0  0
  -21.8096  -14.9902  -14.6929 C   0  0  2  0  0  0  0  0  0  0  0  0
  -21.5767  -13.9172  -13.7655 O   0  0  0  0  0  0  0  0  0  0  0  0
  -24.3249  -11.3445  -13.7994 C   0  0  0  0  0  0  0  0  0  0  0  0
  -25.2317  -12.5710  -13.8808 O   0  0  0  0  0  0  0  0  0  0  0  0
  -19.1484  -18.5553  -10.4695 C   0  0  0  0  0  0  0  0  0  0  0  0
  -20.2541  -19.2628  -11.0519 O   0  0  0  0  0  0  0  0  0  0  0  0
  -23.3679  -15.1483  -14.9025 C   0  0  1  0  0  0  0  0  0  0  0  0
  -23.8590  -13.9371  -15.4504 O   0  0  0  0  0  0  0  0  0  0  0  0
  -23.6464   -9.1820  -14.8591 C   0  0  0  0  0  0  0  0  0  0  0  0
  -24.0701  -10.6282  -18.8214 C   0  0  0  0  0  0  0  0  0  0  0  0
  1  2  1  6  0  0  0
  1  6  1  0  0  0  0
  1 21  1  0  0  0  0
  3  4  1  1  0  0  0
  3  8  1  0  0  0  0
  3 28  1  0  0  0  0
  5  9  1  0  0  0  0
  5 25  1  0  0  0  0
  5 29  1  6  0  0  0
  6  7  1  6  0  0  0
  6 11  1  0  0  0  0
  8 12  1  0  0  0  0
  9 10  1  6  0  0  0
  9 14  1  0  0  0  0
 11 16  1  0  0  0  0
 12 13  1  1  0  0  0
 12 17  1  0  0  0  0
 14 15  1  6  0  0  0
 14 18  1  0  0  0  0
 15 31  1  0  0  0  0
 16 20  1  0  0  0  0
 17  2  1  6  0  0  0
 17 22  1  0  0  0  0
 18 19  1  1  0  0  0
 18 24  1  0  0  0  0
 18 30  1  0  0  0  0
 20 21  1  0  0  0  0
 20 26  1  1  0  0  0
 22 23  1  1  0  0  0
 22 28  1  0  0  0  0
 24 25  1  0  0  0  0
 26 27  1  0  0  0  0
 28 29  1  6  0  0  0
M  END
>  <CHROM.1>
-168.27994802,-157.49684262,-88.14179187,-160.03472701,-100.31806628,95.53797454
-22.12875402,-14.60352999,-14.46220241,-0.73814478,-0.52049576,-0.03101997

>  <Name>
ligand

>  <RI>
0

>  <Rbt.Current_Directory>
/home/itssahil/PROJECTS/Mol_Feturizer/New_Systems/rnas/4GPW

>  <Rbt.Executable>
rbdock ($Id: //depot/dev/client3/rdock/2013.1/src/exe/rbdock.cxx#4 $)

>  <Rbt.Library>
libRbt.so (2013.1, Build901 2013/11/27)

>  <Rbt.Parameter_File>
/export/apps/rDock/src/rDock_2013.1_src/data/scripts/dock_solv.prm

>  <Rbt.Receptor>
prm/pocket_docking_2.prm

>  <SCORE>
-20.2479

>  <SCORE.INTER>
-16.5746

>  <SCORE.INTER.CONST>
1

>  <SCORE.INTER.POLAR>
0

>  <SCORE.INTER.ROT>
6

>  <SCORE.INTER.SOLV>
16.3927

>  <SCORE.INTER.VDW>
-24.114

>  <SCORE.INTER.norm>
-0.534665

>  <SCORE.INTRA>
-3.67325

>  <SCORE.INTRA.DIHEDRAL>
-7.26257

>  <SCORE.INTRA.DIHEDRAL.0>
19.2558

>  <SCORE.INTRA.POLAR>
0

>  <SCORE.INTRA.POLAR.0>
0

>  <SCORE.INTRA.REPUL>
0

>  <SCORE.INTRA.REPUL.0>
0

>  <SCORE.INTRA.SOLV>
-0.969688

>  <SCORE.INTRA.SOLV.lig_0>
-64.5929

>  <SCORE.INTRA.VDW>
0.442883

>  <SCORE.INTRA.VDW.0>
-4.40538

>  <SCORE.INTRA.norm>
-0.118492

>  <SCORE.RESTR>
0

>  <SCORE.RESTR.CAVITY>
0

>  <SCORE.RESTR.norm>
0

>  <SCORE.SYSTEM>
0

>  <SCORE.SYSTEM.CONST>
0

>  <SCORE.SYSTEM.DIHEDRAL>
0

>  <SCORE.SYSTEM.SOLV>
0

>  <SCORE.SYSTEM.norm>
0

>  <SCORE.heavy>
31

>  <SCORE.norm>
-0.653157

>  <RMSD>
0.648

$$$$
ligand
 OpenBabel11021811493D
libRbt.so/2013.1/901 2013/11/27
 31 33  0  0  0  0  0  0  0  0999 V2000
  -19.3051  -15.6158  -12.6895 C   0  0  2  0  0  0  0  0  0  0  0  0
  -19.8730  -16.0733  -13.9080 O   0  0  0  0  0  0  0  0  0  0  0  0
  -23.6348  -16.2423  -15.9068 C   0  0  2  0  0  0  0  0  0  0  0  0
  -25.0367  -16.4157  -16.1115 N   0  0  0  0  0  0  0  0  0  0  0  0
  -25.2127  -13.2736  -15.0870 C   0  0  2  0  0  0  0  0  0  0  0  0
  -17.7814  -15.2917  -12.9820 C   0  0  2  0  0  0  0  0  0  0  0  0
  -17.6970  -14.2687  -14.0347 N   0  0  0  0  0  0  0  0  0  0  0  0
  -23.0416  -17.5966  -15.3204 C   0  0  0  0  0  0  0  0  0  0  0  0
  -25.5758  -12.3419  -16.2904 C   0  0  2  0  0  0  0  0  0  0  0  0
  -25.5506  -13.1174  -17.4654 O   0  0  0  0  0  0  0  0  0  0  0  0
  -17.0279  -16.6112  -13.4156 C   0  0  0  0  0  0  0  0  0  0  0  0
  -21.4736  -17.4067  -15.0974 C   0  0  2  0  0  0  0  0  0  0  0  0
  -20.9003  -18.6582  -14.5567 N   0  0  0  0  0  0  0  0  0  0  0  0
  -24.5338  -11.1494  -16.3634 C   0  0  1  0  0  0  0  0  0  0  0  0
  -24.8654  -10.2421  -17.5198 N   0  0  0  0  0  0  0  0  0  0  0  0
  -17.4871  -17.8743  -12.5753 C   0  0  0  0  0  0  0  0  0  0  0  0
  -21.2395  -16.2228  -14.0713 C   0  0  2  0  0  0  0  0  0  0  0  0
  -24.6073  -10.2928  -14.9820 C   0  0  1  0  0  0  0  0  0  0  0  0
  -25.8776   -9.7183  -14.7508 O   0  0  0  0  0  0  0  0  0  0  0  0
  -18.5804  -17.8242  -11.7810 C   0  0  2  0  0  0  0  0  0  0  0  0
  -19.3806  -16.6449  -11.6478 O   0  0  0  0  0  0  0  0  0  0  0  0
  -21.8531  -14.8875  -14.6616 C   0  0  2  0  0  0  0  0  0  0  0  0
  -21.6462  -13.8202  -13.7215 O   0  0  0  0  0  0  0  0  0  0  0  0
  -24.2694  -11.2445  -13.7866 C   0  0  0  0  0  0  0  0  0  0  0  0
  -25.1909  -12.4627  -13.8042 O   0  0  0  0  0  0  0  0  0  0  0  0
  -19.0515  -19.0204  -10.9552 C   0  0  0  0  0  0  0  0  0  0  0  0
  -19.1275  -18.6092   -9.5814 O   0  0  0  0  0  0  0  0  0  0  0  0
  -23.4066  -15.0709  -14.8850 C   0  0  1  0  0  0  0  0  0  0  0  0
  -23.9149  -13.8630  -15.4244 O   0  0  0  0  0  0  0  0  0  0  0  0
  -23.6264   -9.1030  -14.9091 C   0  0  0  0  0  0  0  0  0  0  0  0
  -24.1890  -10.5354  -18.7997 C   0  0  0  0  0  0  0  0  0  0  0  0
  1  2  1  6  0  0  0
  1  6  1  0  0  0  0
  1 21  1  0  0  0  0
  3  4  1  1  0  0  0
  3  8  1  0  0  0  0
  3 28  1  0  0  0  0
  5  9  1  0  0  0  0
  5 25  1  0  0  0  0
  5 29  1  6  0  0  0
  6  7  1  6  0  0  0
  6 11  1  0  0  0  0
  8 12  1  0  0  0  0
  9 10  1  6  0  0  0
  9 14  1  0  0  0  0
 11 16  1  0  0  0  0
 12 13  1  1  0  0  0
 12 17  1  0  0  0  0
 14 15  1  6  0  0  0
 14 18  1  0  0  0  0
 15 31  1  0  0  0  0
 16 20  1  0  0  0  0
 17  2  1  6  0  0  0
 17 22  1  0  0  0  0
 18 19  1  1  0  0  0
 18 24  1  0  0  0  0
 18 30  1  0  0  0  0
 20 21  1  0  0  0  0
 20 26  1  1  0  0  0
 22 23  1  1  0  0  0
 22 28  1  0  0  0  0
 24 25  1  0  0  0  0
 26 27  1  0  0  0  0
 28 29  1  6  0  0  0
M  END
>  <CHROM.1>
-168.49680080,-157.59586093,-92.63688576,-149.35298301,124.05304897,99.59891864
-22.11029042,-14.54059239,-14.40502991,-0.69328798,-0.57094623,0.03302666

>  <Name>
ligand

>  <RI>
0

>  <Rbt.Current_Directory>
/home/itssahil/PROJECTS/Mol_Feturizer/New_Systems/rnas/4GPW

>  <Rbt.Executable>
rbdock ($Id: //depot/dev/client3/rdock/2013.1/src/exe/rbdock.cxx#4 $)

>  <Rbt.Library>
libRbt.so (2013.1, Build901 2013/11/27)

>  <Rbt.Parameter_File>
/export/apps/rDock/src/rDock_2013.1_src/data/scripts/dock_solv.prm

>  <Rbt.Receptor>
prm/pocket_docking_3.prm

>  <SCORE>
-19.0252

>  <SCORE.INTER>
-16.444

>  <SCORE.INTER.CONST>
1

>  <SCORE.INTER.POLAR>
0

>  <SCORE.INTER.ROT>
6

>  <SCORE.INTER.SOLV>
17.1126

>  <SCORE.INTER.VDW>
-24.2668

>  <SCORE.INTER.norm>
-0.530451

>  <SCORE.INTRA>
-2.58122

>  <SCORE.INTRA.DIHEDRAL>
-4.978

>  <SCORE.INTRA.DIHEDRAL.0>
19.2558

>  <SCORE.INTRA.POLAR>
0

>  <SCORE.INTRA.POLAR.0>
0

>  <SCORE.INTRA.REPUL>
0

>  <SCORE.INTRA.REPUL.0>
0

>  <SCORE.INTRA.SOLV>
-0.715806

>  <SCORE.INTRA.SOLV.lig_0>
-64.5929

>  <SCORE.INTRA.VDW>
0.265681

>  <SCORE.INTRA.VDW.0>
-4.40538

>  <SCORE.INTRA.norm>
-0.0832653

>  <SCORE.RESTR>
0

>  <SCORE.RESTR.CAVITY>
0

>  <SCORE.RESTR.norm>
0

>  <SCORE.SYSTEM>
0

>  <SCORE.SYSTEM.CONST>
0

>  <SCORE.SYSTEM.DIHEDRAL>
0

>  <SCORE.SYSTEM.SOLV>
0

>  <SCORE.SYSTEM.norm>
0

>  <SCORE.heavy>
31

>  <SCORE.norm>
-0.613716

>  <RMSD>
0.650

$$$$
ligand
 OpenBabel11021811493D
libRbt.so/2013.1/901 2013/11/27
 31 33  0  0  0  0  0  0  0  0999 V2000
  -19.2461  -15.5743  -12.8303 C   0  0  2  0  0  0  0  0  0  0  0  0
  -19.8313  -16.2205  -13.9513 O   0  0  0  0  0  0  0  0  0  0  0  0
  -23.6209  -16.3077  -15.9021 C   0  0  2  0  0  0  0  0  0  0  0  0
  -25.0288  -16.4505  -16.0890 N   0  0  0  0  0  0  0  0  0  0  0  0
  -25.1630  -13.3533  -15.1378 C   0  0  2  0  0  0  0  0  0  0  0  0
  -17.7050  -15.3925  -13.1534 C   0  0  2  0  0  0  0  0  0  0  0  0
  -17.5578  -14.5902  -14.3767 N   0  0  0  0  0  0  0  0  0  0  0  0
  -23.0501  -17.6746  -15.3226 C   0  0  0  0  0  0  0  0  0  0  0  0
  -25.4877  -12.4281  -16.3571 C   0  0  2  0  0  0  0  0  0  0  0  0
  -25.3993  -13.2039  -17.5289 O   0  0  0  0  0  0  0  0  0  0  0  0
  -17.0234  -16.8080  -13.3214 C   0  0  0  0  0  0  0  0  0  0  0  0
  -21.4757  -17.5189  -15.1195 C   0  0  2  0  0  0  0  0  0  0  0  0
  -20.9230  -18.7825  -14.5855 N   0  0  0  0  0  0  0  0  0  0  0  0
  -24.4621  -11.2196  -16.3862 C   0  0  1  0  0  0  0  0  0  0  0  0
  -24.7570  -10.3183  -17.5572 N   0  0  0  0  0  0  0  0  0  0  0  0
  -17.5569  -17.8654  -12.2680 C   0  0  0  0  0  0  0  0  0  0  0  0
  -21.2028  -16.3401  -14.0971 C   0  0  2  0  0  0  0  0  0  0  0  0
  -24.6089  -10.3634  -15.0105 C   0  0  1  0  0  0  0  0  0  0  0  0
  -25.8969   -9.8085  -14.8356 O   0  0  0  0  0  0  0  0  0  0  0  0
  -18.6504  -17.6095  -11.5147 C   0  0  2  0  0  0  0  0  0  0  0  0
  -19.3848  -16.3851  -11.6165 O   0  0  0  0  0  0  0  0  0  0  0  0
  -21.7943  -14.9919  -14.6803 C   0  0  2  0  0  0  0  0  0  0  0  0
  -21.5523  -13.9291  -13.7436 O   0  0  0  0  0  0  0  0  0  0  0  0
  -24.3088  -11.3090  -13.8002 C   0  0  0  0  0  0  0  0  0  0  0  0
  -25.2097  -12.5413  -13.8563 O   0  0  0  0  0  0  0  0  0  0  0  0
  -19.1920  -18.6034  -10.4882 C   0  0  0  0  0  0  0  0  0  0  0  0
  -20.3623  -19.2226  -11.0444 O   0  0  0  0  0  0  0  0  0  0  0  0
  -23.3543  -15.1414  -14.8840 C   0  0  1  0  0  0  0  0  0  0  0  0
  -23.8428  -13.9227  -15.4176 O   0  0  0  0  0  0  0  0  0  0  0  0
  -23.6507   -9.1585  -14.8964 C   0  0  0  0  0  0  0  0  0  0  0  0
  -24.0386  -10.6166  -18.8129 C   0  0  0  0  0  0  0  0  0  0  0  0
  1  2  1  6  0  0  0
  1  6  1  0  0  0  0
  1 21  1  0  0  0  0
  3  4  1  1  0  0  0
  3  8  1  0  0  0  0
  3 28  1  0  0  0  0
  5  9  1  0  0  0  0
  5 25  1  0  0  0  0
  5 29  1  6  0  0  0
  6  7  1  6  0  0  0
  6 11  1  0  0  0  0
  8 12  1  0  0  0  0
  9 10  1  6  0  0  0
  9 14  1  0  0  0  0
 11 16  1  0  0  0  0
 12 13  1  1  0  0  0
 12 17  1  0  0  0  0
 14 15  1  6  0  0  0
 14 18  1  0  0  0  0
 15 31  1  0  0  0  0
 16 20  1  0  0  0  0
 17  2  1  6  0  0  0
 17 22  1  0  0  0  0
 18 19  1  1  0  0  0
 18 24  1  0  0  0  0
 18 30  1  0  0  0  0
 20 21  1  0  0  0  0
 20 26  1  1  0  0  0
 22 23  1  1  0  0  0
 22 28  1  0  0  0  0
 24 25  1  0  0  0  0
 26 27  1  0  0  0  0
 28 29  1  6  0  0  0
M  END
>  <CHROM.1>
-169.36280366,-155.74183580,-91.60174754,-159.85330519,-104.11042044,94.97640352
-22.12724651,-14.61216541,-14.45978304,-0.74561310,-0.51426300,-0.03626597

>  <Name>
ligand

>  <RI>
0

>  <Rbt.Current_Directory>
/home/itssahil/PROJECTS/Mol_Feturizer/New_Systems/rnas/4GPW

>  <Rbt.Executable>
rbdock ($Id: //depot/dev/client3/rdock/2013.1/src/exe/rbdock.cxx#4 $)

>  <Rbt.Library>
libRbt.so (2013.1, Build901 2013/11/27)

>  <Rbt.Parameter_File>
/export/apps/rDock/src/rDock_2013.1_src/data/scripts/dock_solv.prm

>  <Rbt.Receptor>
prm/pocket_docking_6.prm

>  <SCORE>
-20.2351

>  <SCORE.INTER>
-16.5674

>  <SCORE.INTER.CONST>
1

>  <SCORE.INTER.POLAR>
0

>  <SCORE.INTER.ROT>
6

>  <SCORE.INTER.SOLV>
16.503

>  <SCORE.INTER.VDW>
-24.1459

>  <SCORE.INTER.norm>
-0.534432

>  <SCORE.INTRA>
-3.66767

>  <SCORE.INTRA.DIHEDRAL>
-7.18012

>  <SCORE.INTRA.DIHEDRAL.0>
19.2558

>  <SCORE.INTRA.POLAR>
0

>  <SCORE.INTRA.POLAR.0>
0

>  <SCORE.INTRA.REPUL>
0

>  <SCORE.INTRA.REPUL.0>
0

>  <SCORE.INTRA.SOLV>
-0.909854

>  <SCORE.INTRA.SOLV.lig_0>
-64.5929

>  <SCORE.INTRA.VDW>
0.377321

>  <SCORE.INTRA.VDW.0>
-4.40538

>  <SCORE.INTRA.norm>
-0.118312

>  <SCORE.RESTR>
0

>  <SCORE.RESTR.CAVITY>
0

>  <SCORE.RESTR.norm>
0

>  <SCORE.SYSTEM>
0

>  <SCORE.SYSTEM.CONST>
0

>  <SCORE.SYSTEM.DIHEDRAL>
0

>  <SCORE.SYSTEM.SOLV>
0

>  <SCORE.SYSTEM.norm>
0

>  <SCORE.heavy>
31

>  <SCORE.norm>
-0.652744

>  <RMSD>
0.650

$$$$
ligand
 OpenBabel11021811493D
libRbt.so/2013.1/901 2013/11/27
 31 33  0  0  0  0  0  0  0  0999 V2000
  -19.2656  -15.5310  -12.8061 C   0  0  2  0  0  0  0  0  0  0  0  0
  -19.8394  -16.1821  -13.9302 O   0  0  0  0  0  0  0  0  0  0  0  0
  -23.6175  -16.3028  -15.9014 C   0  0  2  0  0  0  0  0  0  0  0  0
  -25.0231  -16.4575  -16.0957 N   0  0  0  0  0  0  0  0  0  0  0  0
  -25.1856  -13.3570  -15.1428 C   0  0  2  0  0  0  0  0  0  0  0  0
  -17.7280  -15.3204  -13.1283 C   0  0  2  0  0  0  0  0  0  0  0  0
  -17.5951  -14.5098  -14.3478 N   0  0  0  0  0  0  0  0  0  0  0  0
  -23.0384  -17.6643  -15.3173 C   0  0  0  0  0  0  0  0  0  0  0  0
  -25.5056  -12.4197  -16.3541 C   0  0  2  0  0  0  0  0  0  0  0  0
  -25.4074  -13.1824  -17.5336 O   0  0  0  0  0  0  0  0  0  0  0  0
  -17.0215  -16.7228  -13.3031 C   0  0  0  0  0  0  0  0  0  0  0  0
  -21.4665  -17.4953  -15.1059 C   0  0  2  0  0  0  0  0  0  0  0  0
  -20.9062  -18.7537  -14.5676 N   0  0  0  0  0  0  0  0  0  0  0  0
  -24.4837  -11.2078  -16.3637 C   0  0  1  0  0  0  0  0  0  0  0  0
  -24.7741  -10.2947  -17.5266 N   0  0  0  0  0  0  0  0  0  0  0  0
  -17.5360  -17.7946  -12.2547 C   0  0  0  0  0  0  0  0  0  0  0  0
  -21.2089  -16.3133  -14.0833 C   0  0  2  0  0  0  0  0  0  0  0  0
  -24.6418  -10.3670  -14.9797 C   0  0  1  0  0  0  0  0  0  0  0  0
  -25.9325   -9.8180  -14.8068 O   0  0  0  0  0  0  0  0  0  0  0  0
  -18.6339  -17.5616  -11.5003 C   0  0  2  0  0  0  0  0  0  0  0  0
  -19.3898  -16.3499  -11.5962 O   0  0  0  0  0  0  0  0  0  0  0  0
  -21.8086  -14.9706  -14.6711 C   0  0  2  0  0  0  0  0  0  0  0  0
  -21.5805  -13.9049  -13.7341 O   0  0  0  0  0  0  0  0  0  0  0  0
  -24.3462  -11.3247  -13.7778 C   0  0  0  0  0  0  0  0  0  0  0  0
  -25.2428  -12.5591  -13.8529 O   0  0  0  0  0  0  0  0  0  0  0  0
  -19.1577  -18.5699  -10.4786 C   0  0  0  0  0  0  0  0  0  0  0  0
  -20.3273  -19.1942  -11.0303 O   0  0  0  0  0  0  0  0  0  0  0  0
  -23.3661  -15.1333  -14.8829 C   0  0  1  0  0  0  0  0  0  0  0  0
  -23.8618  -13.9192  -15.4205 O   0  0  0  0  0  0  0  0  0  0  0  0
  -23.6881   -9.1604  -14.8466 C   0  0  0  0  0  0  0  0  0  0  0  0
  -24.1152  -10.6300  -18.8054 C   0  0  0  0  0  0  0  0  0  0  0  0
  1  2  1  6  0  0  0
  1  6  1  0  0  0  0
  1 21  1  0  0  0  0
  3  4  1  1  0  0  0
  3  8  1  0  0  0  0
  3 28  1  0  0  0  0
  5  9  1  0  0  0  0
  5 25  1  0  0  0  0
  5 29  1  6  0  0  0
  6  7  1  6  0  0  0
  6 11  1  0  0  0  0
  8 12  1  0  0  0  0
  9 10  1  6  0  0  0
  9 14  1  0  0  0  0
 11 16  1  0  0  0  0
 12 13  1  1  0  0  0
 12 17  1  0  0  0  0
 14 15  1  6  0  0  0
 14 18  1  0  0  0  0
 15 31  1  0  0  0  0
 16 20  1  0  0  0  0
 17  2  1  6  0  0  0
 17 22  1  0  0  0  0
 18 19  1  1  0  0  0
 18 24  1  0  0  0  0
 18 30  1  0  0  0  0
 20 21  1  0  0  0  0
 20 26  1  1  0  0  0
 22 23  1  1  0  0  0
 22 28  1  0  0  0  0
 24 25  1  0  0  0  0
 26 27  1  0  0  0  0
 28 29  1  6  0  0  0
M  END
>  <CHROM.1>
-168.69093148,-156.62419906,-87.71638264,-159.79572917,-104.86927620,95.31792885
-22.13897866,-14.59054877,-14.44562319,-0.73298732,-0.52200950,-0.02423958

>  <Name>
ligand

>  <RI>
0

>  <Rbt.Current_Directory>
/home/itssahil/PROJECTS/Mol_Feturizer/New_Systems/rnas/4GPW

>  <Rbt.Executable>
rbdock ($Id: //depot/dev/client3/rdock/2013.1/src/exe/rbdock.cxx#4 $)

>  <Rbt.Library>
libRbt.so (2013.1, Build901 2013/11/27)

>  <Rbt.Parameter_File>
/export/apps/rDock/src/rDock_2013.1_src/data/scripts/dock_solv.prm

>  <Rbt.Receptor>
prm/pocket_docking_3.prm

>  <SCORE>
-20.2558

>  <SCORE.INTER>
-16.5826

>  <SCORE.INTER.CONST>
1

>  <SCORE.INTER.POLAR>
0

>  <SCORE.INTER.ROT>
6

>  <SCORE.INTER.SOLV>
16.5673

>  <SCORE.INTER.VDW>
-24.1775

>  <SCORE.INTER.norm>
-0.534922

>  <SCORE.INTRA>
-3.67324

>  <SCORE.INTRA.DIHEDRAL>
-7.34719

>  <SCORE.INTRA.DIHEDRAL.0>
19.2558

>  <SCORE.INTRA.POLAR>
0

>  <SCORE.INTRA.POLAR.0>
0

>  <SCORE.INTRA.REPUL>
0

>  <SCORE.INTRA.REPUL.0>
0

>  <SCORE.INTRA.SOLV>
-0.915632

>  <SCORE.INTRA.SOLV.lig_0>
-64.5929

>  <SCORE.INTRA.VDW>
0.458176

>  <SCORE.INTRA.VDW.0>
-4.40538

>  <SCORE.INTRA.norm>
-0.118491

>  <SCORE.RESTR>
0

>  <SCORE.RESTR.CAVITY>
0

>  <SCORE.RESTR.norm>
0

>  <SCORE.SYSTEM>
0

>  <SCORE.SYSTEM.CONST>
0

>  <SCORE.SYSTEM.DIHEDRAL>
0

>  <SCORE.SYSTEM.SOLV>
0

>  <SCORE.SYSTEM.norm>
0

>  <SCORE.heavy>
31

>  <SCORE.norm>
-0.653414

>  <RMSD>
0.651

$$$$
ligand
 OpenBabel11021811493D
libRbt.so/2013.1/901 2013/11/27
 31 33  0  0  0  0  0  0  0  0999 V2000
  -19.3132  -15.6657  -12.5728 C   0  0  2  0  0  0  0  0  0  0  0  0
  -19.8693  -16.0988  -13.8056 O   0  0  0  0  0  0  0  0  0  0  0  0
  -23.6075  -16.2798  -15.8472 C   0  0  2  0  0  0  0  0  0  0  0  0
  -25.0070  -16.4536  -16.0672 N   0  0  0  0  0  0  0  0  0  0  0  0
  -25.2103  -13.3269  -15.1024 C   0  0  2  0  0  0  0  0  0  0  0  0
  -17.7923  -15.3150  -12.8490 C   0  0  2  0  0  0  0  0  0  0  0  0
  -17.7159  -14.2643  -13.8746 N   0  0  0  0  0  0  0  0  0  0  0  0
  -23.0224  -17.6302  -15.2437 C   0  0  0  0  0  0  0  0  0  0  0  0
  -25.5375  -12.4002  -16.3199 C   0  0  2  0  0  0  0  0  0  0  0  0
  -25.4525  -13.1748  -17.4927 O   0  0  0  0  0  0  0  0  0  0  0  0
  -17.0201  -16.6133  -13.3123 C   0  0  0  0  0  0  0  0  0  0  0  0
  -21.4570  -17.4398  -15.0037 C   0  0  2  0  0  0  0  0  0  0  0  0
  -20.8912  -18.6877  -14.4469 N   0  0  0  0  0  0  0  0  0  0  0  0
  -24.5113  -11.1923  -16.3504 C   0  0  1  0  0  0  0  0  0  0  0  0
  -24.8087  -10.2896  -17.5197 N   0  0  0  0  0  0  0  0  0  0  0  0
  -17.4672  -17.9033  -12.5070 C   0  0  0  0  0  0  0  0  0  0  0  0
  -21.2340  -16.2485  -13.9838 C   0  0  2  0  0  0  0  0  0  0  0  0
  -24.6543  -10.3374  -14.9734 C   0  0  1  0  0  0  0  0  0  0  0  0
  -25.9414   -9.7820  -14.7946 O   0  0  0  0  0  0  0  0  0  0  0  0
  -18.5649  -17.8874  -11.7175 C   0  0  2  0  0  0  0  0  0  0  0  0
  -19.3807  -16.7221  -11.5582 O   0  0  0  0  0  0  0  0  0  0  0  0
  -21.8393  -14.9172  -14.5913 C   0  0  2  0  0  0  0  0  0  0  0  0
  -21.6426  -13.8429  -13.6569 O   0  0  0  0  0  0  0  0  0  0  0  0
  -24.3516  -11.2845  -13.7648 C   0  0  0  0  0  0  0  0  0  0  0  0
  -25.2533  -12.5162  -13.8200 O   0  0  0  0  0  0  0  0  0  0  0  0
  -19.0248  -19.1103  -10.9250 C   0  0  0  0  0  0  0  0  0  0  0  0
  -19.1955  -18.7134   -9.5556 O   0  0  0  0  0  0  0  0  0  0  0  0
  -23.3903  -15.1010  -14.8316 C   0  0  1  0  0  0  0  0  0  0  0  0
  -23.8910  -13.8967  -15.3861 O   0  0  0  0  0  0  0  0  0  0  0  0
  -23.6951   -9.1331  -14.8605 C   0  0  0  0  0  0  0  0  0  0  0  0
  -24.1053  -10.5964  -18.7817 C   0  0  0  0  0  0  0  0  0  0  0  0
  1  2  1  6  0  0  0
  1  6  1  0  0  0  0
  1 21  1  0  0  0  0
  3  4  1  1  0  0  0
  3  8  1  0  0  0  0
  3 28  1  0  0  0  0
  5  9  1  0  0  0  0
  5 25  1  0  0  0  0
  5 29  1  6  0  0  0
  6  7  1  6  0  0  0
  6 11  1  0  0  0  0
  8 12  1  0  0  0  0
  9 10  1  6  0  0  0
  9 14  1  0  0  0  0
 11 16  1  0  0  0  0
 12 13  1  1  0  0  0
 12 17  1  0  0  0  0
 14 15  1  6  0  0  0
 14 18  1  0  0  0  0
 15 31  1  0  0  0  0
 16 20  1  0  0  0  0
 17  2  1  6  0  0  0
 17 22  1  0  0  0  0
 18 19  1  1  0  0  0
 18 24  1  0  0  0  0
 18 30  1  0  0  0  0
 20 21  1  0  0  0  0
 20 26  1  1  0  0  0
 22 23  1  1  0  0  0
 22 28  1  0  0  0  0
 24 25  1  0  0  0  0
 26 27  1  0  0  0  0
 28 29  1  6  0  0  0
M  END
>  <CHROM.1>
-167.83541483,-157.22764324,-90.92446146,-147.69065878,127.69653943,97.45464584
-22.10712831,-14.58385971,-14.35527028,-0.69853256,-0.57100026,0.02009626

>  <Name>
ligand

>  <RI>
0

>  <Rbt.Current_Directory>
/home/itssahil/PROJECTS/Mol_Feturizer/New_Systems/rnas/4GPW

>  <Rbt.Executable>
rbdock ($Id: //depot/dev/client3/rdock/2013.1/src/exe/rbdock.cxx#4 $)

>  <Rbt.Library>
libRbt.so (2013.1, Build901 2013/11/27)

>  <Rbt.Parameter_File>
/export/apps/rDock/src/rDock_2013.1_src/data/scripts/dock_solv.prm

>  <Rbt.Receptor>
prm/pocket_docking_3.prm

>  <SCORE>
-19.1771

>  <SCORE.INTER>
-16.7571

>  <SCORE.INTER.CONST>
1

>  <SCORE.INTER.POLAR>
0

>  <SCORE.INTER.ROT>
6

>  <SCORE.INTER.SOLV>
17.3267

>  <SCORE.INTER.VDW>
-24.547

>  <SCORE.INTER.norm>
-0.540551

>  <SCORE.INTRA>
-2.42004

>  <SCORE.INTRA.DIHEDRAL>
-4.89131

>  <SCORE.INTRA.DIHEDRAL.0>
19.2558

>  <SCORE.INTRA.POLAR>
0

>  <SCORE.INTRA.POLAR.0>
0

>  <SCORE.INTRA.REPUL>
0

>  <SCORE.INTRA.REPUL.0>
0

>  <SCORE.INTRA.SOLV>
-0.573951

>  <SCORE.INTRA.SOLV.lig_0>
-64.5929

>  <SCORE.INTRA.VDW>
0.312595

>  <SCORE.INTRA.VDW.0>
-4.40538

>  <SCORE.INTRA.norm>
-0.0780657

>  <SCORE.RESTR>
0

>  <SCORE.RESTR.CAVITY>
0

>  <SCORE.RESTR.norm>
0

>  <SCORE.SYSTEM>
0

>  <SCORE.SYSTEM.CONST>
0

>  <SCORE.SYSTEM.DIHEDRAL>
0

>  <SCORE.SYSTEM.SOLV>
0

>  <SCORE.SYSTEM.norm>
0

>  <SCORE.heavy>
31

>  <SCORE.norm>
-0.618616

>  <RMSD>
0.651

$$$$
ligand
 OpenBabel11021811493D
libRbt.so/2013.1/901 2013/11/27
 31 33  0  0  0  0  0  0  0  0999 V2000
  -19.2773  -15.6037  -12.5956 C   0  0  2  0  0  0  0  0  0  0  0  0
  -19.8278  -16.0205  -13.8366 O   0  0  0  0  0  0  0  0  0  0  0  0
  -23.5602  -16.2298  -15.8859 C   0  0  2  0  0  0  0  0  0  0  0  0
  -24.9574  -16.4174  -16.1094 N   0  0  0  0  0  0  0  0  0  0  0  0
  -25.1898  -13.2903  -15.1138 C   0  0  2  0  0  0  0  0  0  0  0  0
  -17.7517  -15.2627  -12.8573 C   0  0  2  0  0  0  0  0  0  0  0  0
  -17.6592  -14.2029  -13.8722 N   0  0  0  0  0  0  0  0  0  0  0  0
  -22.9616  -17.5773  -15.2894 C   0  0  0  0  0  0  0  0  0  0  0  0
  -25.5244  -12.3469  -16.3164 C   0  0  2  0  0  0  0  0  0  0  0  0
  -25.4423  -13.1042  -17.5007 O   0  0  0  0  0  0  0  0  0  0  0  0
  -16.9865  -16.5627  -13.3275 C   0  0  0  0  0  0  0  0  0  0  0  0
  -21.3988  -17.3715  -15.0454 C   0  0  2  0  0  0  0  0  0  0  0  0
  -20.8205  -18.6164  -14.4950 N   0  0  0  0  0  0  0  0  0  0  0  0
  -24.5012  -11.1361  -16.3336 C   0  0  1  0  0  0  0  0  0  0  0  0
  -24.8056  -10.2172  -17.4884 N   0  0  0  0  0  0  0  0  0  0  0  0
  -17.4498  -17.8567  -12.5379 C   0  0  0  0  0  0  0  0  0  0  0  0
  -21.1904  -16.1838  -14.0181 C   0  0  2  0  0  0  0  0  0  0  0  0
  -24.6405  -10.3016  -14.9437 C   0  0  1  0  0  0  0  0  0  0  0  0
  -25.9283   -9.7521  -14.7516 O   0  0  0  0  0  0  0  0  0  0  0  0
  -18.5532  -17.8395  -11.7563 C   0  0  2  0  0  0  0  0  0  0  0  0
  -19.3608  -16.6692  -11.5918 O   0  0  0  0  0  0  0  0  0  0  0  0
  -21.8090  -14.8556  -14.6188 C   0  0  2  0  0  0  0  0  0  0  0  0
  -21.6256  -13.7848  -13.6777 O   0  0  0  0  0  0  0  0  0  0  0  0
  -24.3305  -11.2653  -13.7503 C   0  0  0  0  0  0  0  0  0  0  0  0
  -25.2294  -12.4984  -13.8196 O   0  0  0  0  0  0  0  0  0  0  0  0
  -19.0288  -19.0662  -10.9791 C   0  0  0  0  0  0  0  0  0  0  0  0
  -19.1662  -18.6918   -9.5996 O   0  0  0  0  0  0  0  0  0  0  0  0
  -23.3575  -15.0547  -14.8630 C   0  0  1  0  0  0  0  0  0  0  0  0
  -23.8703  -13.8526  -15.4113 O   0  0  0  0  0  0  0  0  0  0  0  0
  -23.6838   -9.0967  -14.8173 C   0  0  0  0  0  0  0  0  0  0  0  0
  -24.1852  -10.5625  -18.7836 C   0  0  0  0  0  0  0  0  0  0  0  0
  1  2  1  6  0  0  0
  1  6  1  0  0  0  0
  1 21  1  0  0  0  0
  3  4  1  1  0  0  0
  3  8  1  0  0  0  0
  3 28  1  0  0  0  0
  5  9  1  0  0  0  0
  5 25  1  0  0  0  0
  5 29  1  6  0  0  0
  6  7  1  6  0  0  0
  6 11  1  0  0  0  0
  8 12  1  0  0  0  0
  9 10  1  6  0  0  0
  9 14  1  0  0  0  0
 11 16  1  0  0  0  0
 12 13  1  1  0  0  0
 12 17  1  0  0  0  0
 14 15  1  6  0  0  0
 14 18  1  0  0  0  0
 15 31  1  0  0  0  0
 16 20  1  0  0  0  0
 17  2  1  6  0  0  0
 17 22  1  0  0  0  0
 18 19  1  1  0  0  0
 18 24  1  0  0  0  0
 18 30  1  0  0  0  0
 20 21  1  0  0  0  0
 20 26  1  1  0  0  0
 22 23  1  1  0  0  0
 22 28  1  0  0  0  0
 24 25  1  0  0  0  0
 26 27  1  0  0  0  0
 28 29  1  6  0  0  0
M  END
>  <CHROM.1>
-169.18994002,-158.08887528,-86.53962341,-146.94016900,125.92437320,98.24615794
-22.08265968,-14.53462150,-14.37033545,-0.68679746,-0.57769327,0.04029338

>  <Name>
ligand

>  <RI>
0

>  <Rbt.Current_Directory>
/home/itssahil/PROJECTS/Mol_Feturizer/New_Systems/rnas/4GPW

>  <Rbt.Executable>
rbdock ($Id: //depot/dev/client3/rdock/2013.1/src/exe/rbdock.cxx#4 $)

>  <Rbt.Library>
libRbt.so (2013.1, Build901 2013/11/27)

>  <Rbt.Parameter_File>
/export/apps/rDock/src/rDock_2013.1_src/data/scripts/dock_solv.prm

>  <Rbt.Receptor>
prm/pocket_docking_3.prm

>  <SCORE>
-19.1491

>  <SCORE.INTER>
-16.7237

>  <SCORE.INTER.CONST>
1

>  <SCORE.INTER.POLAR>
0

>  <SCORE.INTER.ROT>
6

>  <SCORE.INTER.SOLV>
16.994

>  <SCORE.INTER.VDW>
-24.4138

>  <SCORE.INTER.norm>
-0.539473

>  <SCORE.INTRA>
-2.42539

>  <SCORE.INTRA.DIHEDRAL>
-5.07686

>  <SCORE.INTRA.DIHEDRAL.0>
19.2558

>  <SCORE.INTRA.POLAR>
0

>  <SCORE.INTRA.POLAR.0>
0

>  <SCORE.INTRA.REPUL>
0

>  <SCORE.INTRA.REPUL.0>
0

>  <SCORE.INTRA.SOLV>
-0.54494

>  <SCORE.INTRA.SOLV.lig_0>
-64.5929

>  <SCORE.INTRA.VDW>
0.385508

>  <SCORE.INTRA.VDW.0>
-4.40538

>  <SCORE.INTRA.norm>
-0.0782385

>  <SCORE.RESTR>
0

>  <SCORE.RESTR.CAVITY>
0

>  <SCORE.RESTR.norm>
0

>  <SCORE.SYSTEM>
0

>  <SCORE.SYSTEM.CONST>
0

>  <SCORE.SYSTEM.DIHEDRAL>
0

>  <SCORE.SYSTEM.SOLV>
0

>  <SCORE.SYSTEM.norm>
0

>  <SCORE.heavy>
31

>  <SCORE.norm>
-0.617712

>  <RMSD>
0.653

$$$$
ligand
 OpenBabel11021811493D
libRbt.so/2013.1/901 2013/11/27
 31 33  0  0  0  0  0  0  0  0999 V2000
  -19.2371  -15.6828  -12.6062 C   0  0  2  0  0  0  0  0  0  0  0  0
  -19.8164  -16.1071  -13.8314 O   0  0  0  0  0  0  0  0  0  0  0  0
  -23.5678  -15.8180  -15.8358 C   0  0  2  0  0  0  0  0  0  0  0  0
  -24.9749  -15.8939  -16.0631 N   0  0  0  0  0  0  0  0  0  0  0  0
  -25.0702  -12.9776  -14.7495 C   0  0  2  0  0  0  0  0  0  0  0  0
  -17.7119  -15.3671  -12.9003 C   0  0  2  0  0  0  0  0  0  0  0  0
  -17.6234  -14.3214  -13.9301 N   0  0  0  0  0  0  0  0  0  0  0  0
  -23.0439  -17.2671  -15.4416 C   0  0  0  0  0  0  0  0  0  0  0  0
  -25.4797  -12.1826  -16.0335 C   0  0  2  0  0  0  0  0  0  0  0  0
  -25.4008  -13.0590  -17.1327 O   0  0  0  0  0  0  0  0  0  0  0  0
  -16.9740  -16.6836  -13.3679 C   0  0  0  0  0  0  0  0  0  0  0  0
  -21.4703  -17.1854  -15.1939 C   0  0  2  0  0  0  0  0  0  0  0  0
  -20.9610  -18.5256  -14.8307 N   0  0  0  0  0  0  0  0  0  0  0  0
  -24.5095  -10.9418  -16.2137 C   0  0  1  0  0  0  0  0  0  0  0  0
  -24.8864  -10.1649  -17.4486 N   0  0  0  0  0  0  0  0  0  0  0  0
  -17.4408  -17.9609  -12.5535 C   0  0  0  0  0  0  0  0  0  0  0  0
  -21.1873  -16.1668  -14.0142 C   0  0  2  0  0  0  0  0  0  0  0  0
  -24.6427   -9.9689  -14.9164 C   0  0  1  0  0  0  0  0  0  0  0  0
  -25.9463   -9.4523  -14.7402 O   0  0  0  0  0  0  0  0  0  0  0  0
  -18.5292  -17.9181  -11.7520 C   0  0  2  0  0  0  0  0  0  0  0  0
  -19.3170  -16.7344  -11.5875 O   0  0  0  0  0  0  0  0  0  0  0  0
  -21.7323  -14.7350  -14.4150 C   0  0  2  0  0  0  0  0  0  0  0  0
  -21.4815  -13.8184  -13.3367 O   0  0  0  0  0  0  0  0  0  0  0  0
  -24.2572  -10.7861  -13.6386 C   0  0  0  0  0  0  0  0  0  0  0  0
  -25.1050  -12.0534  -13.5461 O   0  0  0  0  0  0  0  0  0  0  0  0
  -19.0074  -19.1281  -10.9506 C   0  0  0  0  0  0  0  0  0  0  0  0
  -19.1718  -18.7186   -9.5840 O   0  0  0  0  0  0  0  0  0  0  0  0
  -23.2913  -14.8108  -14.6622 C   0  0  1  0  0  0  0  0  0  0  0  0
  -23.7376  -13.5170  -15.0301 O   0  0  0  0  0  0  0  0  0  0  0  0
  -23.7344   -8.7212  -14.9511 C   0  0  0  0  0  0  0  0  0  0  0  0
  -24.2055  -10.5516  -18.7010 C   0  0  0  0  0  0  0  0  0  0  0  0
  1  2  1  6  0  0  0
  1  6  1  0  0  0  0
  1 21  1  0  0  0  0
  3  4  1  1  0  0  0
  3  8  1  0  0  0  0
  3 28  1  0  0  0  0
  5  9  1  0  0  0  0
  5 25  1  0  0  0  0
  5 29  1  6  0  0  0
  6  7  1  6  0  0  0
  6 11  1  0  0  0  0
  8 12  1  0  0  0  0
  9 10  1  6  0  0  0
  9 14  1  0  0  0  0
 11 16  1  0  0  0  0
 12 13  1  1  0  0  0
 12 17  1  0  0  0  0
 14 15  1  6  0  0  0
 14 18  1  0  0  0  0
 15 31  1  0  0  0  0
 16 20  1  0  0  0  0
 17  2  1  6  0  0  0
 17 22  1  0  0  0  0
 18 19  1  1  0  0  0
 18 24  1  0  0  0  0
 18 30  1  0  0  0  0
 20 21  1  0  0  0  0
 20 26  1  1  0  0  0
 22 23  1  1  0  0  0
 22 28  1  0  0  0  0
 24 25  1  0  0  0  0
 26 27  1  0  0  0  0
 28 29  1  6  0  0  0
M  END
>  <CHROM.1>
-164.74652350,-140.10159533,-91.41979058,-157.58611893,128.47977418,91.97560249
-22.06358086,-14.40440428,-14.30187211,-0.67449295,-0.61131076,0.11909246

>  <Name>
ligand

>  <RI>
0

>  <Rbt.Current_Directory>
/home/itssahil/PROJECTS/Mol_Feturizer/New_Systems/rnas/4GPW

>  <Rbt.Executable>
rbdock ($Id: //depot/dev/client3/rdock/2013.1/src/exe/rbdock.cxx#4 $)

>  <Rbt.Library>
libRbt.so (2013.1, Build901 2013/11/27)

>  <Rbt.Parameter_File>
/export/apps/rDock/src/rDock_2013.1_src/data/scripts/dock_solv.prm

>  <Rbt.Receptor>
prm/pocket_docking_4.prm

>  <SCORE>
-19.0402

>  <SCORE.INTER>
-17.1139

>  <SCORE.INTER.CONST>
1

>  <SCORE.INTER.POLAR>
0

>  <SCORE.INTER.ROT>
6

>  <SCORE.INTER.SOLV>
17.1298

>  <SCORE.INTER.VDW>
-24.7192

>  <SCORE.INTER.norm>
-0.552062

>  <SCORE.INTRA>
-1.92628

>  <SCORE.INTRA.DIHEDRAL>
-4.18403

>  <SCORE.INTRA.DIHEDRAL.0>
19.2558

>  <SCORE.INTRA.POLAR>
0

>  <SCORE.INTRA.POLAR.0>
0

>  <SCORE.INTRA.REPUL>
0

>  <SCORE.INTRA.REPUL.0>
0

>  <SCORE.INTRA.SOLV>
-0.685111

>  <SCORE.INTRA.SOLV.lig_0>
-64.5929

>  <SCORE.INTRA.VDW>
0.508288

>  <SCORE.INTRA.VDW.0>
-4.40538

>  <SCORE.INTRA.norm>
-0.0621382

>  <SCORE.RESTR>
0

>  <SCORE.RESTR.CAVITY>
0

>  <SCORE.RESTR.norm>
0

>  <SCORE.SYSTEM>
0

>  <SCORE.SYSTEM.CONST>
0

>  <SCORE.SYSTEM.DIHEDRAL>
0

>  <SCORE.SYSTEM.SOLV>
0

>  <SCORE.SYSTEM.norm>
0

>  <SCORE.heavy>
31

>  <SCORE.norm>
-0.6142

>  <RMSD>
0.653

$$$$
ligand
 OpenBabel11021811493D
libRbt.so/2013.1/901 2013/11/27
 31 33  0  0  0  0  0  0  0  0999 V2000
  -19.1767  -15.5670  -12.7784 C   0  0  2  0  0  0  0  0  0  0  0  0
  -19.7664  -16.1939  -13.9080 O   0  0  0  0  0  0  0  0  0  0  0  0
  -23.5625  -16.1619  -15.8480 C   0  0  2  0  0  0  0  0  0  0  0  0
  -24.9713  -16.2900  -16.0379 N   0  0  0  0  0  0  0  0  0  0  0  0
  -25.1041  -13.2633  -14.9401 C   0  0  2  0  0  0  0  0  0  0  0  0
  -17.6319  -15.4040  -13.0936 C   0  0  2  0  0  0  0  0  0  0  0  0
  -17.4682  -14.5922  -14.3085 N   0  0  0  0  0  0  0  0  0  0  0  0
  -22.9940  -17.5604  -15.3471 C   0  0  0  0  0  0  0  0  0  0  0  0
  -25.4801  -12.3874  -16.1809 C   0  0  2  0  0  0  0  0  0  0  0  0
  -25.3964  -13.1986  -17.3288 O   0  0  0  0  0  0  0  0  0  0  0  0
  -16.9698  -16.8275  -13.2725 C   0  0  0  0  0  0  0  0  0  0  0  0
  -21.4184  -17.4208  -15.1409 C   0  0  2  0  0  0  0  0  0  0  0  0
  -20.8679  -18.7137  -14.6796 N   0  0  0  0  0  0  0  0  0  0  0  0
  -24.4883  -11.1541  -16.2721 C   0  0  1  0  0  0  0  0  0  0  0  0
  -24.8327  -10.2997  -17.4646 N   0  0  0  0  0  0  0  0  0  0  0  0
  -17.5227  -17.8873  -12.2315 C   0  0  0  0  0  0  0  0  0  0  0  0
  -21.1387  -16.3014  -14.0557 C   0  0  2  0  0  0  0  0  0  0  0  0
  -24.6281  -10.2574  -14.9217 C   0  0  1  0  0  0  0  0  0  0  0  0
  -25.9264   -9.7310  -14.7356 O   0  0  0  0  0  0  0  0  0  0  0  0
  -18.6156  -17.6230  -11.4802 C   0  0  2  0  0  0  0  0  0  0  0  0
  -19.3320  -16.3873  -11.5731 O   0  0  0  0  0  0  0  0  0  0  0  0
  -21.7280  -14.9212  -14.5612 C   0  0  2  0  0  0  0  0  0  0  0  0
  -21.4798  -13.9126  -13.5678 O   0  0  0  0  0  0  0  0  0  0  0  0
  -24.2763  -11.1546  -13.6887 C   0  0  0  0  0  0  0  0  0  0  0  0
  -25.1448  -12.4113  -13.6847 O   0  0  0  0  0  0  0  0  0  0  0  0
  -19.1756  -18.6189  -10.4656 C   0  0  0  0  0  0  0  0  0  0  0  0
  -20.3538  -19.2139  -11.0312 O   0  0  0  0  0  0  0  0  0  0  0  0
  -23.2890  -15.0546  -14.7676 C   0  0  1  0  0  0  0  0  0  0  0  0
  -23.7755  -13.8068  -15.2313 O   0  0  0  0  0  0  0  0  0  0  0  0
  -23.7004   -9.0247  -14.8682 C   0  0  0  0  0  0  0  0  0  0  0  0
  -24.1668  -10.6477  -18.7362 C   0  0  0  0  0  0  0  0  0  0  0  0
  1  2  1  6  0  0  0
  1  6  1  0  0  0  0
  1 21  1  0  0  0  0
  3  4  1  1  0  0  0
  3  8  1  0  0  0  0
  3 28  1  0  0  0  0
  5  9  1  0  0  0  0
  5 25  1  0  0  0  0
  5 29  1  6  0  0  0
  6  7  1  6  0  0  0
  6 11  1  0  0  0  0
  8 12  1  0  0  0  0
  9 10  1  6  0  0  0
  9 14  1  0  0  0  0
 11 16  1  0  0  0  0
 12 13  1  1  0  0  0
 12 17  1  0  0  0  0
 14 15  1  6  0  0  0
 14 18  1  0  0  0  0
 15 31  1  0  0  0  0
 16 20  1  0  0  0  0
 17  2  1  6  0  0  0
 17 22  1  0  0  0  0
 18 19  1  1  0  0  0
 18 24  1  0  0  0  0
 18 30  1  0  0  0  0
 20 21  1  0  0  0  0
 20 26  1  1  0  0  0
 22 23  1  1  0  0  0
 22 28  1  0  0  0  0
 24 25  1  0  0  0  0
 26 27  1  0  0  0  0
 28 29  1  6  0  0  0
M  END
>  <CHROM.1>
-169.85180048,-149.62673872,-89.69411293,-162.30026559,-104.22807511,93.55686685
-22.09691730,-14.55904726,-14.38183537,-0.72956945,-0.52656813,0.00365904

>  <Name>
ligand

>  <RI>
0

>  <Rbt.Current_Directory>
/home/itssahil/PROJECTS/Mol_Feturizer/New_Systems/rnas/4GPW

>  <Rbt.Executable>
rbdock ($Id: //depot/dev/client3/rdock/2013.1/src/exe/rbdock.cxx#4 $)

>  <Rbt.Library>
libRbt.so (2013.1, Build901 2013/11/27)

>  <Rbt.Parameter_File>
/export/apps/rDock/src/rDock_2013.1_src/data/scripts/dock_solv.prm

>  <Rbt.Receptor>
prm/pocket_docking_7.prm

>  <SCORE>
-20.0757

>  <SCORE.INTER>
-16.6925

>  <SCORE.INTER.CONST>
1

>  <SCORE.INTER.POLAR>
0

>  <SCORE.INTER.ROT>
6

>  <SCORE.INTER.SOLV>
16.7287

>  <SCORE.INTER.VDW>
-24.3046

>  <SCORE.INTER.norm>
-0.538468

>  <SCORE.INTRA>
-3.38316

>  <SCORE.INTRA.DIHEDRAL>
-6.8008

>  <SCORE.INTRA.DIHEDRAL.0>
19.2558

>  <SCORE.INTRA.POLAR>
0

>  <SCORE.INTRA.POLAR.0>
0

>  <SCORE.INTRA.REPUL>
0

>  <SCORE.INTRA.REPUL.0>
0

>  <SCORE.INTRA.SOLV>
-0.966196

>  <SCORE.INTRA.SOLV.lig_0>
-64.5929

>  <SCORE.INTRA.VDW>
0.500337

>  <SCORE.INTRA.VDW.0>
-4.40538

>  <SCORE.INTRA.norm>
-0.109134

>  <SCORE.RESTR>
0

>  <SCORE.RESTR.CAVITY>
0

>  <SCORE.RESTR.norm>
0

>  <SCORE.SYSTEM>
0

>  <SCORE.SYSTEM.CONST>
0

>  <SCORE.SYSTEM.DIHEDRAL>
0

>  <SCORE.SYSTEM.SOLV>
0

>  <SCORE.SYSTEM.norm>
0

>  <SCORE.heavy>
31

>  <SCORE.norm>
-0.647602

>  <RMSD>
0.653

$$$$
ligand
 OpenBabel11021811493D
libRbt.so/2013.1/901 2013/11/27
 31 33  0  0  0  0  0  0  0  0999 V2000
  -19.2701  -15.5319  -12.7725 C   0  0  2  0  0  0  0  0  0  0  0  0
  -19.8250  -16.1733  -13.9115 O   0  0  0  0  0  0  0  0  0  0  0  0
  -23.5788  -16.2745  -15.9298 C   0  0  2  0  0  0  0  0  0  0  0  0
  -24.9808  -16.4351  -16.1445 N   0  0  0  0  0  0  0  0  0  0  0  0
  -25.1756  -13.3559  -15.1107 C   0  0  2  0  0  0  0  0  0  0  0  0
  -17.7331  -15.2941  -13.0783 C   0  0  2  0  0  0  0  0  0  0  0  0
  -17.6019  -14.4625  -14.2837 N   0  0  0  0  0  0  0  0  0  0  0  0
  -22.9958  -17.6454  -15.3724 C   0  0  0  0  0  0  0  0  0  0  0  0
  -25.5150  -12.4318  -16.3269 C   0  0  2  0  0  0  0  0  0  0  0  0
  -25.4168  -13.2027  -17.5011 O   0  0  0  0  0  0  0  0  0  0  0  0
  -17.0049  -16.6834  -13.2690 C   0  0  0  0  0  0  0  0  0  0  0  0
  -21.4278  -17.4696  -15.1382 C   0  0  2  0  0  0  0  0  0  0  0  0
  -20.8639  -18.7366  -14.6242 N   0  0  0  0  0  0  0  0  0  0  0  0
  -24.5068  -11.2086  -16.3534 C   0  0  1  0  0  0  0  0  0  0  0  0
  -24.8159  -10.3081  -17.5214 N   0  0  0  0  0  0  0  0  0  0  0  0
  -17.5125  -17.7788  -12.2419 C   0  0  0  0  0  0  0  0  0  0  0  0
  -21.1917  -16.3112  -14.0840 C   0  0  2  0  0  0  0  0  0  0  0  0
  -24.6644  -10.3587  -14.9749 C   0  0  1  0  0  0  0  0  0  0  0  0
  -25.9599   -9.8229  -14.7969 O   0  0  0  0  0  0  0  0  0  0  0  0
  -18.6199  -17.5736  -11.4933 C   0  0  2  0  0  0  0  0  0  0  0  0
  -19.3924  -16.3714  -11.5766 O   0  0  0  0  0  0  0  0  0  0  0  0
  -21.7950  -14.9591  -14.6458 C   0  0  2  0  0  0  0  0  0  0  0  0
  -21.5864  -13.9150  -13.6804 O   0  0  0  0  0  0  0  0  0  0  0  0
  -24.3493  -11.3036  -13.7678 C   0  0  0  0  0  0  0  0  0  0  0  0
  -25.2325  -12.5485  -13.8267 O   0  0  0  0  0  0  0  0  0  0  0  0
  -19.1375  -18.6052  -10.4920 C   0  0  0  0  0  0  0  0  0  0  0  0
  -20.2672  -19.2677  -11.0811 O   0  0  0  0  0  0  0  0  0  0  0  0
  -23.3486  -15.1284  -14.8801 C   0  0  1  0  0  0  0  0  0  0  0  0
  -23.8477  -13.9054  -15.3937 O   0  0  0  0  0  0  0  0  0  0  0  0
  -23.7234   -9.1406  -14.8583 C   0  0  0  0  0  0  0  0  0  0  0  0
  -24.1810  -10.6597  -18.8078 C   0  0  0  0  0  0  0  0  0  0  0  0
  1  2  1  6  0  0  0
  1  6  1  0  0  0  0
  1 21  1  0  0  0  0
  3  4  1  1  0  0  0
  3  8  1  0  0  0  0
  3 28  1  0  0  0  0
  5  9  1  0  0  0  0
  5 25  1  0  0  0  0
  5 29  1  6  0  0  0
  6  7  1  6  0  0  0
  6 11  1  0  0  0  0
  8 12  1  0  0  0  0
  9 10  1  6  0  0  0
  9 14  1  0  0  0  0
 11 16  1  0  0  0  0
 12 13  1  1  0  0  0
 12 17  1  0  0  0  0
 14 15  1  6  0  0  0
 14 18  1  0  0  0  0
 15 31  1  0  0  0  0
 16 20  1  0  0  0  0
 17  2  1  6  0  0  0
 17 22  1  0  0  0  0
 18 19  1  1  0  0  0
 18 24  1  0  0  0  0
 18 30  1  0  0  0  0
 20 21  1  0  0  0  0
 20 26  1  1  0  0  0
 22 23  1  1  0  0  0
 22 28  1  0  0  0  0
 24 25  1  0  0  0  0
 26 27  1  0  0  0  0
 28 29  1  6  0  0  0
M  END
>  <CHROM.1>
-168.10601299,-154.74657619,-86.69449325,-160.53972953,-103.03473407,95.75955770
-22.13357935,-14.58775600,-14.43877768,-0.71771312,-0.53854592,0.00179606

>  <Name>
ligand

>  <RI>
0

>  <Rbt.Current_Directory>
/home/itssahil/PROJECTS/Mol_Feturizer/New_Systems/rnas/4GPW

>  <Rbt.Executable>
rbdock ($Id: //depot/dev/client3/rdock/2013.1/src/exe/rbdock.cxx#4 $)

>  <Rbt.Library>
libRbt.so (2013.1, Build901 2013/11/27)

>  <Rbt.Parameter_File>
/export/apps/rDock/src/rDock_2013.1_src/data/scripts/dock_solv.prm

>  <Rbt.Receptor>
prm/pocket_docking_3.prm

>  <SCORE>
-20.0239

>  <SCORE.INTER>
-16.5899

>  <SCORE.INTER.CONST>
1

>  <SCORE.INTER.POLAR>
0

>  <SCORE.INTER.ROT>
6

>  <SCORE.INTER.SOLV>
16.499

>  <SCORE.INTER.VDW>
-24.1596

>  <SCORE.INTER.norm>
-0.535158

>  <SCORE.INTRA>
-3.43402

>  <SCORE.INTRA.DIHEDRAL>
-6.95042

>  <SCORE.INTRA.DIHEDRAL.0>
19.2558

>  <SCORE.INTRA.POLAR>
0

>  <SCORE.INTRA.POLAR.0>
0

>  <SCORE.INTRA.REPUL>
0

>  <SCORE.INTRA.REPUL.0>
0

>  <SCORE.INTRA.SOLV>
-0.922024

>  <SCORE.INTRA.SOLV.lig_0>
-64.5929

>  <SCORE.INTRA.VDW>
0.502205

>  <SCORE.INTRA.VDW.0>
-4.40538

>  <SCORE.INTRA.norm>
-0.110775

>  <SCORE.RESTR>
0

>  <SCORE.RESTR.CAVITY>
0

>  <SCORE.RESTR.norm>
0

>  <SCORE.SYSTEM>
0

>  <SCORE.SYSTEM.CONST>
0

>  <SCORE.SYSTEM.DIHEDRAL>
0

>  <SCORE.SYSTEM.SOLV>
0

>  <SCORE.SYSTEM.norm>
0

>  <SCORE.heavy>
31

>  <SCORE.norm>
-0.645932

>  <RMSD>
0.654

$$$$
ligand
 OpenBabel11021811493D
libRbt.so/2013.1/901 2013/11/27
 31 33  0  0  0  0  0  0  0  0999 V2000
  -19.2997  -15.6231  -12.5956 C   0  0  2  0  0  0  0  0  0  0  0  0
  -19.8593  -16.0492  -13.8293 O   0  0  0  0  0  0  0  0  0  0  0  0
  -23.6037  -16.2559  -15.8569 C   0  0  2  0  0  0  0  0  0  0  0  0
  -25.0032  -16.4368  -16.0712 N   0  0  0  0  0  0  0  0  0  0  0  0
  -25.2140  -13.3029  -15.1141 C   0  0  2  0  0  0  0  0  0  0  0  0
  -17.7702  -15.3071  -12.8659 C   0  0  2  0  0  0  0  0  0  0  0  0
  -17.6657  -14.2628  -13.8956 N   0  0  0  0  0  0  0  0  0  0  0  0
  -23.0106  -17.6009  -15.2494 C   0  0  0  0  0  0  0  0  0  0  0  0
  -25.5417  -12.3636  -16.3219 C   0  0  2  0  0  0  0  0  0  0  0  0
  -25.4597  -13.1267  -17.5025 O   0  0  0  0  0  0  0  0  0  0  0  0
  -17.0244  -16.6240  -13.3200 C   0  0  0  0  0  0  0  0  0  0  0  0
  -21.4452  -17.4026  -15.0157 C   0  0  2  0  0  0  0  0  0  0  0  0
  -20.8720  -18.6455  -14.4553 N   0  0  0  0  0  0  0  0  0  0  0  0
  -24.5135  -11.1571  -16.3419 C   0  0  1  0  0  0  0  0  0  0  0  0
  -24.8112  -10.2424  -17.5017 N   0  0  0  0  0  0  0  0  0  0  0  0
  -17.5036  -17.9004  -12.5115 C   0  0  0  0  0  0  0  0  0  0  0  0
  -21.2239  -16.2057  -14.0020 C   0  0  2  0  0  0  0  0  0  0  0  0
  -24.6529  -10.3158  -14.9562 C   0  0  1  0  0  0  0  0  0  0  0  0
  -25.9389   -9.7601  -14.7700 O   0  0  0  0  0  0  0  0  0  0  0  0
  -18.6045  -17.8570  -11.7273 C   0  0  2  0  0  0  0  0  0  0  0  0
  -19.3952  -16.6733  -11.5769 O   0  0  0  0  0  0  0  0  0  0  0  0
  -21.8372  -14.8798  -14.6134 C   0  0  2  0  0  0  0  0  0  0  0  0
  -21.6420  -13.8005  -13.6845 O   0  0  0  0  0  0  0  0  0  0  0  0
  -24.3500  -11.2752  -13.7576 C   0  0  0  0  0  0  0  0  0  0  0  0
  -25.2538  -12.5049  -13.8236 O   0  0  0  0  0  0  0  0  0  0  0  0
  -19.0949  -19.0660  -10.9320 C   0  0  0  0  0  0  0  0  0  0  0  0
  -19.1908  -18.6804   -9.5520 O   0  0  0  0  0  0  0  0  0  0  0  0
  -23.3882  -15.0715  -14.8474 C   0  0  1  0  0  0  0  0  0  0  0  0
  -23.8962  -13.8720  -15.4055 O   0  0  0  0  0  0  0  0  0  0  0  0
  -23.6916   -9.1142  -14.8329 C   0  0  0  0  0  0  0  0  0  0  0  0
  -24.1257  -10.5499  -18.7734 C   0  0  0  0  0  0  0  0  0  0  0  0
  1  2  1  6  0  0  0
  1  6  1  0  0  0  0
  1 21  1  0  0  0  0
  3  4  1  1  0  0  0
  3  8  1  0  0  0  0
  3 28  1  0  0  0  0
  5  9  1  0  0  0  0
  5 25  1  0  0  0  0
  5 29  1  6  0  0  0
  6  7  1  6  0  0  0
  6 11  1  0  0  0  0
  8 12  1  0  0  0  0
  9 10  1  6  0  0  0
  9 14  1  0  0  0  0
 11 16  1  0  0  0  0
 12 13  1  1  0  0  0
 12 17  1  0  0  0  0
 14 15  1  6  0  0  0
 14 18  1  0  0  0  0
 15 31  1  0  0  0  0
 16 20  1  0  0  0  0
 17  2  1  6  0  0  0
 17 22  1  0  0  0  0
 18 19  1  1  0  0  0
 18 24  1  0  0  0  0
 18 30  1  0  0  0  0
 20 21  1  0  0  0  0
 20 26  1  1  0  0  0
 22 23  1  1  0  0  0
 22 28  1  0  0  0  0
 24 25  1  0  0  0  0
 26 27  1  0  0  0  0
 28 29  1  6  0  0  0
M  END
>  <CHROM.1>
-169.68646296,-158.28696133,-90.03954754,-146.93940211,124.48222219,97.80698370
-22.10840683,-14.55471266,-14.36127186,-0.69809915,-0.57068885,0.02252863

>  <Name>
ligand

>  <RI>
0

>  <Rbt.Current_Directory>
/home/itssahil/PROJECTS/Mol_Feturizer/New_Systems/rnas/4GPW

>  <Rbt.Executable>
rbdock ($Id: //depot/dev/client3/rdock/2013.1/src/exe/rbdock.cxx#4 $)

>  <Rbt.Library>
libRbt.so (2013.1, Build901 2013/11/27)

>  <Rbt.Parameter_File>
/export/apps/rDock/src/rDock_2013.1_src/data/scripts/dock_solv.prm

>  <Rbt.Receptor>
prm/pocket_docking_3.prm

>  <SCORE>
-19.1948

>  <SCORE.INTER>
-16.6406

>  <SCORE.INTER.CONST>
1

>  <SCORE.INTER.POLAR>
0

>  <SCORE.INTER.ROT>
6

>  <SCORE.INTER.SOLV>
17.2759

>  <SCORE.INTER.VDW>
-24.4523

>  <SCORE.INTER.norm>
-0.536793

>  <SCORE.INTRA>
-2.55418

>  <SCORE.INTRA.DIHEDRAL>
-5.14522

>  <SCORE.INTRA.DIHEDRAL.0>
19.2558

>  <SCORE.INTRA.POLAR>
0

>  <SCORE.INTRA.POLAR.0>
0

>  <SCORE.INTRA.REPUL>
0

>  <SCORE.INTRA.REPUL.0>
0

>  <SCORE.INTRA.SOLV>
-0.564389

>  <SCORE.INTRA.SOLV.lig_0>
-64.5929

>  <SCORE.INTRA.VDW>
0.300624

>  <SCORE.INTRA.VDW.0>
-4.40538

>  <SCORE.INTRA.norm>
-0.0823929

>  <SCORE.RESTR>
0

>  <SCORE.RESTR.CAVITY>
0

>  <SCORE.RESTR.norm>
0

>  <SCORE.SYSTEM>
0

>  <SCORE.SYSTEM.CONST>
0

>  <SCORE.SYSTEM.DIHEDRAL>
0

>  <SCORE.SYSTEM.SOLV>
0

>  <SCORE.SYSTEM.norm>
0

>  <SCORE.heavy>
31

>  <SCORE.norm>
-0.619186

>  <RMSD>
0.654

$$$$
ligand
 OpenBabel11021811493D
libRbt.so/2013.1/901 2013/11/27
 31 33  0  0  0  0  0  0  0  0999 V2000
  -19.2452  -15.5084  -12.8393 C   0  0  2  0  0  0  0  0  0  0  0  0
  -19.8413  -16.1670  -13.9472 O   0  0  0  0  0  0  0  0  0  0  0  0
  -23.6529  -16.3488  -15.8481 C   0  0  2  0  0  0  0  0  0  0  0  0
  -25.0620  -16.5058  -16.0126 N   0  0  0  0  0  0  0  0  0  0  0  0
  -25.1978  -13.3689  -15.1710 C   0  0  2  0  0  0  0  0  0  0  0  0
  -17.7092  -15.3223  -13.1832 C   0  0  2  0  0  0  0  0  0  0  0  0
  -17.5809  -14.5302  -14.4152 N   0  0  0  0  0  0  0  0  0  0  0  0
  -23.0677  -17.6893  -15.2232 C   0  0  0  0  0  0  0  0  0  0  0  0
  -25.5076  -12.4235  -16.3787 C   0  0  2  0  0  0  0  0  0  0  0  0
  -25.4220  -13.1838  -17.5608 O   0  0  0  0  0  0  0  0  0  0  0  0
  -17.0231  -16.7362  -13.3472 C   0  0  0  0  0  0  0  0  0  0  0  0
  -21.4919  -17.5179  -15.0450 C   0  0  2  0  0  0  0  0  0  0  0  0
  -20.9260  -18.7572  -14.4693 N   0  0  0  0  0  0  0  0  0  0  0  0
  -24.4695  -11.2254  -16.3865 C   0  0  1  0  0  0  0  0  0  0  0  0
  -24.7498  -10.3049  -17.5460 N   0  0  0  0  0  0  0  0  0  0  0  0
  -17.5384  -17.7867  -12.2780 C   0  0  0  0  0  0  0  0  0  0  0  0
  -21.2136  -16.2993  -14.0720 C   0  0  2  0  0  0  0  0  0  0  0  0
  -24.6136  -10.3870  -14.9996 C   0  0  1  0  0  0  0  0  0  0  0  0
  -25.8965   -9.8213  -14.8224 O   0  0  0  0  0  0  0  0  0  0  0  0
  -18.6237  -17.5291  -11.5135 C   0  0  2  0  0  0  0  0  0  0  0  0
  -19.3650  -16.3090  -11.6168 O   0  0  0  0  0  0  0  0  0  0  0  0
  -21.8195  -14.9776  -14.6996 C   0  0  2  0  0  0  0  0  0  0  0  0
  -21.5725  -13.8781  -13.8073 O   0  0  0  0  0  0  0  0  0  0  0  0
  -24.3286  -11.3525  -13.8013 C   0  0  0  0  0  0  0  0  0  0  0  0
  -25.2419  -12.5745  -13.8785 O   0  0  0  0  0  0  0  0  0  0  0  0
  -19.1479  -18.5164  -10.4716 C   0  0  0  0  0  0  0  0  0  0  0  0
  -20.2966  -19.1773  -11.0247 O   0  0  0  0  0  0  0  0  0  0  0  0
  -23.3808  -15.1427  -14.8788 C   0  0  1  0  0  0  0  0  0  0  0  0
  -23.8823  -13.9480  -15.4531 O   0  0  0  0  0  0  0  0  0  0  0  0
  -23.6435   -9.1938  -14.8645 C   0  0  0  0  0  0  0  0  0  0  0  0
  -24.0588  -10.6163  -18.8138 C   0  0  0  0  0  0  0  0  0  0  0  0
  1  2  1  6  0  0  0
  1  6  1  0  0  0  0
  1 21  1  0  0  0  0
  3  4  1  1  0  0  0
  3  8  1  0  0  0  0
  3 28  1  0  0  0  0
  5  9  1  0  0  0  0
  5 25  1  0  0  0  0
  5 29  1  6  0  0  0
  6  7  1  6  0  0  0
  6 11  1  0  0  0  0
  8 12  1  0  0  0  0
  9 10  1  6  0  0  0
  9 14  1  0  0  0  0
 11 16  1  0  0  0  0
 12 13  1  1  0  0  0
 12 17  1  0  0  0  0
 14 15  1  6  0  0  0
 14 18  1  0  0  0  0
 15 31  1  0  0  0  0
 16 20  1  0  0  0  0
 17  2  1  6  0  0  0
 17 22  1  0  0  0  0
 18 19  1  1  0  0  0
 18 24  1  0  0  0  0
 18 30  1  0  0  0  0
 20 21  1  0  0  0  0
 20 26  1  1  0  0  0
 22 23  1  1  0  0  0
 22 28  1  0  0  0  0
 24 25  1  0  0  0  0
 26 27  1  0  0  0  0
 28 29  1  6  0  0  0
M  END
>  <CHROM.1>
-169.64316803,-159.29691808,-89.89583507,-158.01683723,-102.26877588,95.52709194
-22.13449692,-14.59420927,-14.45348207,-0.74861330,-0.49609892,-0.05955399

>  <Name>
ligand

>  <RI>
0

>  <Rbt.Current_Directory>
/home/itssahil/PROJECTS/Mol_Feturizer/New_Systems/rnas/4GPW

>  <Rbt.Executable>
rbdock ($Id: //depot/dev/client3/rdock/2013.1/src/exe/rbdock.cxx#4 $)

>  <Rbt.Library>
libRbt.so (2013.1, Build901 2013/11/27)

>  <Rbt.Parameter_File>
/export/apps/rDock/src/rDock_2013.1_src/data/scripts/dock_solv.prm

>  <Rbt.Receptor>
prm/pocket_docking_4.prm

>  <SCORE>
-20.1441

>  <SCORE.INTER>
-16.3671

>  <SCORE.INTER.CONST>
1

>  <SCORE.INTER.POLAR>
0

>  <SCORE.INTER.ROT>
6

>  <SCORE.INTER.SOLV>
16.5413

>  <SCORE.INTER.VDW>
-24.0251

>  <SCORE.INTER.norm>
-0.52797

>  <SCORE.INTRA>
-3.77707

>  <SCORE.INTRA.DIHEDRAL>
-7.39983

>  <SCORE.INTRA.DIHEDRAL.0>
19.2558

>  <SCORE.INTRA.POLAR>
0

>  <SCORE.INTRA.POLAR.0>
0

>  <SCORE.INTRA.REPUL>
0

>  <SCORE.INTRA.REPUL.0>
0

>  <SCORE.INTRA.SOLV>
-0.832859

>  <SCORE.INTRA.SOLV.lig_0>
-64.5929

>  <SCORE.INTRA.VDW>
0.33927

>  <SCORE.INTRA.VDW.0>
-4.40538

>  <SCORE.INTRA.norm>
-0.121841

>  <SCORE.RESTR>
0

>  <SCORE.RESTR.CAVITY>
0

>  <SCORE.RESTR.norm>
0

>  <SCORE.SYSTEM>
0

>  <SCORE.SYSTEM.CONST>
0

>  <SCORE.SYSTEM.DIHEDRAL>
0

>  <SCORE.SYSTEM.SOLV>
0

>  <SCORE.SYSTEM.norm>
0

>  <SCORE.heavy>
31

>  <SCORE.norm>
-0.649811

>  <RMSD>
0.654

$$$$
ligand
 OpenBabel11021811493D
libRbt.so/2013.1/901 2013/11/27
 31 33  0  0  0  0  0  0  0  0999 V2000
  -19.2476  -15.5183  -12.8283 C   0  0  2  0  0  0  0  0  0  0  0  0
  -19.8288  -16.1753  -13.9450 O   0  0  0  0  0  0  0  0  0  0  0  0
  -23.6203  -16.2945  -15.8905 C   0  0  2  0  0  0  0  0  0  0  0  0
  -25.0272  -16.4490  -16.0754 N   0  0  0  0  0  0  0  0  0  0  0  0
  -25.1841  -13.3506  -15.1213 C   0  0  2  0  0  0  0  0  0  0  0  0
  -17.7115  -15.3125  -13.1604 C   0  0  2  0  0  0  0  0  0  0  0  0
  -17.5840  -14.5098  -14.3856 N   0  0  0  0  0  0  0  0  0  0  0  0
  -23.0373  -17.6564  -15.3115 C   0  0  0  0  0  0  0  0  0  0  0  0
  -25.5154  -12.4198  -16.3346 C   0  0  2  0  0  0  0  0  0  0  0  0
  -25.4245  -13.1881  -17.5111 O   0  0  0  0  0  0  0  0  0  0  0  0
  -17.0085  -16.7173  -13.3302 C   0  0  0  0  0  0  0  0  0  0  0  0
  -21.4640  -17.4877  -15.1106 C   0  0  2  0  0  0  0  0  0  0  0  0
  -20.9001  -18.7465  -14.5771 N   0  0  0  0  0  0  0  0  0  0  0  0
  -24.4962  -11.2058  -16.3578 C   0  0  1  0  0  0  0  0  0  0  0  0
  -24.7974  -10.2990  -17.5230 N   0  0  0  0  0  0  0  0  0  0  0  0
  -17.5191  -17.7815  -12.2723 C   0  0  0  0  0  0  0  0  0  0  0  0
  -21.1994  -16.3064  -14.0889 C   0  0  2  0  0  0  0  0  0  0  0  0
  -24.6456  -10.3586  -14.9768 C   0  0  1  0  0  0  0  0  0  0  0  0
  -25.9362   -9.8116  -14.7968 O   0  0  0  0  0  0  0  0  0  0  0  0
  -18.6123  -17.5418  -11.5132 C   0  0  2  0  0  0  0  0  0  0  0  0
  -19.3665  -16.3293  -11.6125 O   0  0  0  0  0  0  0  0  0  0  0  0
  -21.8030  -14.9633  -14.6716 C   0  0  2  0  0  0  0  0  0  0  0  0
  -21.5685  -13.8982  -13.7354 O   0  0  0  0  0  0  0  0  0  0  0  0
  -24.3388  -11.3099  -13.7726 C   0  0  0  0  0  0  0  0  0  0  0  0
  -25.2333  -12.5466  -13.8349 O   0  0  0  0  0  0  0  0  0  0  0  0
  -19.1322  -18.5426  -10.4823 C   0  0  0  0  0  0  0  0  0  0  0  0
  -20.3103  -19.1628  -11.0205 O   0  0  0  0  0  0  0  0  0  0  0  0
  -23.3619  -15.1257  -14.8730 C   0  0  1  0  0  0  0  0  0  0  0  0
  -23.8613  -13.9113  -15.4063 O   0  0  0  0  0  0  0  0  0  0  0  0
  -23.6936   -9.1494  -14.8568 C   0  0  0  0  0  0  0  0  0  0  0  0
  -24.0898  -10.5947  -18.7854 C   0  0  0  0  0  0  0  0  0  0  0  0
  1  2  1  6  0  0  0
  1  6  1  0  0  0  0
  1 21  1  0  0  0  0
  3  4  1  1  0  0  0
  3  8  1  0  0  0  0
  3 28  1  0  0  0  0
  5  9  1  0  0  0  0
  5 25  1  0  0  0  0
  5 29  1  6  0  0  0
  6  7  1  6  0  0  0
  6 11  1  0  0  0  0
  8 12  1  0  0  0  0
  9 10  1  6  0  0  0
  9 14  1  0  0  0  0
 11 16  1  0  0  0  0
 12 13  1  1  0  0  0
 12 17  1  0  0  0  0
 14 15  1  6  0  0  0
 14 18  1  0  0  0  0
 15 31  1  0  0  0  0
 16 20  1  0  0  0  0
 17  2  1  6  0  0  0
 17 22  1  0  0  0  0
 18 19  1  1  0  0  0
 18 24  1  0  0  0  0
 18 30  1  0  0  0  0
 20 21  1  0  0  0  0
 20 26  1  1  0  0  0
 22 23  1  1  0  0  0
 22 28  1  0  0  0  0
 24 25  1  0  0  0  0
 26 27  1  0  0  0  0
 28 29  1  6  0  0  0
M  END
>  <CHROM.1>
-168.76861902,-156.22141123,-90.98263162,-160.16969112,-105.18863280,95.19048938
-22.13317295,-14.58047489,-14.44592951,-0.73422198,-0.51358344,-0.02860068

>  <Name>
ligand

>  <RI>
0

>  <Rbt.Current_Directory>
/home/itssahil/PROJECTS/Mol_Feturizer/New_Systems/rnas/4GPW

>  <Rbt.Executable>
rbdock ($Id: //depot/dev/client3/rdock/2013.1/src/exe/rbdock.cxx#4 $)

>  <Rbt.Library>
libRbt.so (2013.1, Build901 2013/11/27)

>  <Rbt.Parameter_File>
/export/apps/rDock/src/rDock_2013.1_src/data/scripts/dock_solv.prm

>  <Rbt.Receptor>
prm/pocket_docking_4.prm

>  <SCORE>
-20.2533

>  <SCORE.INTER>
-16.5374

>  <SCORE.INTER.CONST>
1

>  <SCORE.INTER.POLAR>
0

>  <SCORE.INTER.ROT>
6

>  <SCORE.INTER.SOLV>
16.5678

>  <SCORE.INTER.VDW>
-24.1476

>  <SCORE.INTER.norm>
-0.533466

>  <SCORE.INTRA>
-3.71583

>  <SCORE.INTRA.DIHEDRAL>
-7.27662

>  <SCORE.INTRA.DIHEDRAL.0>
19.2558

>  <SCORE.INTRA.POLAR>
0

>  <SCORE.INTRA.POLAR.0>
0

>  <SCORE.INTRA.REPUL>
0

>  <SCORE.INTRA.REPUL.0>
0

>  <SCORE.INTRA.SOLV>
-0.950675

>  <SCORE.INTRA.SOLV.lig_0>
-64.5929

>  <SCORE.INTRA.VDW>
0.397822

>  <SCORE.INTRA.VDW.0>
-4.40538

>  <SCORE.INTRA.norm>
-0.119865

>  <SCORE.RESTR>
0

>  <SCORE.RESTR.CAVITY>
0

>  <SCORE.RESTR.norm>
0

>  <SCORE.SYSTEM>
0

>  <SCORE.SYSTEM.CONST>
0

>  <SCORE.SYSTEM.DIHEDRAL>
0

>  <SCORE.SYSTEM.SOLV>
0

>  <SCORE.SYSTEM.norm>
0

>  <SCORE.heavy>
31

>  <SCORE.norm>
-0.653331

>  <RMSD>
0.654

$$$$
ligand
 OpenBabel11021811493D
libRbt.so/2013.1/901 2013/11/27
 31 33  0  0  0  0  0  0  0  0999 V2000
  -19.1723  -15.5843  -12.7914 C   0  0  2  0  0  0  0  0  0  0  0  0
  -19.7597  -16.2245  -13.9146 O   0  0  0  0  0  0  0  0  0  0  0  0
  -23.5513  -16.2212  -15.8635 C   0  0  2  0  0  0  0  0  0  0  0  0
  -24.9598  -16.3517  -16.0545 N   0  0  0  0  0  0  0  0  0  0  0  0
  -25.0921  -13.3061  -14.9996 C   0  0  2  0  0  0  0  0  0  0  0  0
  -17.6284  -15.4173  -13.1090 C   0  0  2  0  0  0  0  0  0  0  0  0
  -17.4690  -14.6162  -14.3315 N   0  0  0  0  0  0  0  0  0  0  0  0
  -22.9845  -17.6120  -15.3398 C   0  0  0  0  0  0  0  0  0  0  0  0
  -25.4398  -12.3969  -16.2247 C   0  0  2  0  0  0  0  0  0  0  0  0
  -25.3469  -13.1814  -17.3903 O   0  0  0  0  0  0  0  0  0  0  0  0
  -16.9599  -16.8394  -13.2749 C   0  0  0  0  0  0  0  0  0  0  0  0
  -21.4093  -17.4697  -15.1322 C   0  0  2  0  0  0  0  0  0  0  0  0
  -20.8604  -18.7555  -14.6498 N   0  0  0  0  0  0  0  0  0  0  0  0
  -24.4339  -11.1725  -16.2713 C   0  0  1  0  0  0  0  0  0  0  0  0
  -24.7510  -10.2863  -17.4480 N   0  0  0  0  0  0  0  0  0  0  0  0
  -17.5073  -17.8918  -12.2236 C   0  0  0  0  0  0  0  0  0  0  0  0
  -21.1317  -16.3338  -14.0637 C   0  0  2  0  0  0  0  0  0  0  0  0
  -24.5851  -10.3067  -14.9021 C   0  0  1  0  0  0  0  0  0  0  0  0
  -25.8805   -9.7709  -14.7231 O   0  0  0  0  0  0  0  0  0  0  0  0
  -18.6010  -17.6255  -11.4742 C   0  0  2  0  0  0  0  0  0  0  0  0
  -19.3231  -16.3940  -11.5782 O   0  0  0  0  0  0  0  0  0  0  0  0
  -21.7193  -14.9614  -14.5918 C   0  0  2  0  0  0  0  0  0  0  0  0
  -21.4730  -13.9377  -13.6134 O   0  0  0  0  0  0  0  0  0  0  0  0
  -24.2617  -11.2368  -13.6857 C   0  0  0  0  0  0  0  0  0  0  0  0
  -25.1432  -12.4837  -13.7249 O   0  0  0  0  0  0  0  0  0  0  0  0
  -19.1559  -18.6143  -10.4499 C   0  0  0  0  0  0  0  0  0  0  0  0
  -20.3176  -19.2379  -11.0189 O   0  0  0  0  0  0  0  0  0  0  0  0
  -23.2799  -15.0974  -14.7997 C   0  0  1  0  0  0  0  0  0  0  0  0
  -23.7649  -13.8568  -15.2836 O   0  0  0  0  0  0  0  0  0  0  0  0
  -23.6455   -9.0857  -14.8050 C   0  0  0  0  0  0  0  0  0  0  0  0
  -24.1470  -10.6695  -18.7403 C   0  0  0  0  0  0  0  0  0  0  0  0
  1  2  1  6  0  0  0
  1  6  1  0  0  0  0
  1 21  1  0  0  0  0
  3  4  1  1  0  0  0
  3  8  1  0  0  0  0
  3 28  1  0  0  0  0
  5  9  1  0  0  0  0
  5 25  1  0  0  0  0
  5 29  1  6  0  0  0
  6  7  1  6  0  0  0
  6 11  1  0  0  0  0
  8 12  1  0  0  0  0
  9 10  1  6  0  0  0
  9 14  1  0  0  0  0
 11 16  1  0  0  0  0
 12 13  1  1  0  0  0
 12 17  1  0  0  0  0
 14 15  1  6  0  0  0
 14 18  1  0  0  0  0
 15 31  1  0  0  0  0
 16 20  1  0  0  0  0
 17  2  1  6  0  0  0
 17 22  1  0  0  0  0
 18 19  1  1  0  0  0
 18 24  1  0  0  0  0
 18 30  1  0  0  0  0
 20 21  1  0  0  0  0
 20 26  1  1  0  0  0
 22 23  1  1  0  0  0
 22 28  1  0  0  0  0
 24 25  1  0  0  0  0
 26 27  1  0  0  0  0
 28 29  1  6  0  0  0
M  END
>  <CHROM.1>
-169.52589151,-152.20087506,-85.36840387,-162.08979891,-103.19087794,93.80311845
-22.07658330,-14.58965735,-14.39083194,-0.72966507,-0.53023790,0.00311818

>  <Name>
ligand

>  <RI>
0

>  <Rbt.Current_Directory>
/home/itssahil/PROJECTS/Mol_Feturizer/New_Systems/rnas/4GPW

>  <Rbt.Executable>
rbdock ($Id: //depot/dev/client3/rdock/2013.1/src/exe/rbdock.cxx#4 $)

>  <Rbt.Library>
libRbt.so (2013.1, Build901 2013/11/27)

>  <Rbt.Parameter_File>
/export/apps/rDock/src/rDock_2013.1_src/data/scripts/dock_solv.prm

>  <Rbt.Receptor>
prm/pocket_docking_3.prm

>  <SCORE>
-20.1487

>  <SCORE.INTER>
-16.6157

>  <SCORE.INTER.CONST>
1

>  <SCORE.INTER.POLAR>
0

>  <SCORE.INTER.ROT>
6

>  <SCORE.INTER.SOLV>
16.5756

>  <SCORE.INTER.VDW>
-24.2023

>  <SCORE.INTER.norm>
-0.535989

>  <SCORE.INTRA>
-3.53305

>  <SCORE.INTRA.DIHEDRAL>
-7.27154

>  <SCORE.INTRA.DIHEDRAL.0>
19.2558

>  <SCORE.INTRA.POLAR>
0

>  <SCORE.INTRA.POLAR.0>
0

>  <SCORE.INTRA.REPUL>
0

>  <SCORE.INTRA.REPUL.0>
0

>  <SCORE.INTRA.SOLV>
-1.01639

>  <SCORE.INTRA.SOLV.lig_0>
-64.5929

>  <SCORE.INTRA.VDW>
0.610919

>  <SCORE.INTRA.VDW.0>
-4.40538

>  <SCORE.INTRA.norm>
-0.113969

>  <SCORE.RESTR>
0

>  <SCORE.RESTR.CAVITY>
0

>  <SCORE.RESTR.norm>
0

>  <SCORE.SYSTEM>
0

>  <SCORE.SYSTEM.CONST>
0

>  <SCORE.SYSTEM.DIHEDRAL>
0

>  <SCORE.SYSTEM.SOLV>
0

>  <SCORE.SYSTEM.norm>
0

>  <SCORE.heavy>
31

>  <SCORE.norm>
-0.649958

>  <RMSD>
0.656

$$$$
ligand
 OpenBabel11021811493D
libRbt.so/2013.1/901 2013/11/27
 31 33  0  0  0  0  0  0  0  0999 V2000
  -19.2705  -15.6412  -12.5791 C   0  0  2  0  0  0  0  0  0  0  0  0
  -19.8271  -16.0696  -13.8133 O   0  0  0  0  0  0  0  0  0  0  0  0
  -23.5681  -16.2757  -15.8473 C   0  0  2  0  0  0  0  0  0  0  0  0
  -24.9669  -16.4583  -16.0643 N   0  0  0  0  0  0  0  0  0  0  0  0
  -25.1832  -13.3262  -15.0949 C   0  0  2  0  0  0  0  0  0  0  0  0
  -17.7470  -15.2994  -12.8523 C   0  0  2  0  0  0  0  0  0  0  0  0
  -17.6625  -14.2480  -13.8766 N   0  0  0  0  0  0  0  0  0  0  0  0
  -22.9736  -17.6218  -15.2433 C   0  0  0  0  0  0  0  0  0  0  0  0
  -25.5245  -12.4059  -16.3134 C   0  0  2  0  0  0  0  0  0  0  0  0
  -25.4485  -13.1856  -17.4835 O   0  0  0  0  0  0  0  0  0  0  0  0
  -16.9818  -16.6018  -13.3158 C   0  0  0  0  0  0  0  0  0  0  0  0
  -21.4090  -17.4217  -15.0066 C   0  0  2  0  0  0  0  0  0  0  0  0
  -20.8345  -18.6654  -14.4494 N   0  0  0  0  0  0  0  0  0  0  0  0
  -24.5018  -11.1955  -16.3591 C   0  0  1  0  0  0  0  0  0  0  0  0
  -24.8127  -10.2989  -17.5296 N   0  0  0  0  0  0  0  0  0  0  0  0
  -17.4381  -17.8899  -12.5126 C   0  0  0  0  0  0  0  0  0  0  0  0
  -21.1911  -16.2277  -13.9886 C   0  0  2  0  0  0  0  0  0  0  0  0
  -24.6339  -10.3347  -14.9847 C   0  0  1  0  0  0  0  0  0  0  0  0
  -25.9208   -9.7819  -14.7962 O   0  0  0  0  0  0  0  0  0  0  0  0
  -18.5371  -17.8683  -11.7249 C   0  0  2  0  0  0  0  0  0  0  0  0
  -19.3461  -16.6982  -11.5658 O   0  0  0  0  0  0  0  0  0  0  0  0
  -21.8057  -14.9009  -14.5965 C   0  0  2  0  0  0  0  0  0  0  0  0
  -21.6137  -13.8243  -13.6638 O   0  0  0  0  0  0  0  0  0  0  0  0
  -24.3172  -11.2754  -13.7748 C   0  0  0  0  0  0  0  0  0  0  0  0
  -25.2162  -12.5098  -13.8158 O   0  0  0  0  0  0  0  0  0  0  0  0
  -19.0057  -19.0893  -10.9347 C   0  0  0  0  0  0  0  0  0  0  0  0
  -19.2392  -18.6777   -9.5788 O   0  0  0  0  0  0  0  0  0  0  0  0
  -23.3560  -15.0943  -14.8336 C   0  0  1  0  0  0  0  0  0  0  0  0
  -23.8652  -13.8938  -15.3886 O   0  0  0  0  0  0  0  0  0  0  0  0
  -23.6769   -9.1274  -14.8864 C   0  0  0  0  0  0  0  0  0  0  0  0
  -24.1080  -10.5994  -18.7924 C   0  0  0  0  0  0  0  0  0  0  0  0
  1  2  1  6  0  0  0
  1  6  1  0  0  0  0
  1 21  1  0  0  0  0
  3  4  1  1  0  0  0
  3  8  1  0  0  0  0
  3 28  1  0  0  0  0
  5  9  1  0  0  0  0
  5 25  1  0  0  0  0
  5 29  1  6  0  0  0
  6  7  1  6  0  0  0
  6 11  1  0  0  0  0
  8 12  1  0  0  0  0
  9 10  1  6  0  0  0
  9 14  1  0  0  0  0
 11 16  1  0  0  0  0
 12 13  1  1  0  0  0
 12 17  1  0  0  0  0
 14 15  1  6  0  0  0
 14 18  1  0  0  0  0
 15 31  1  0  0  0  0
 16 20  1  0  0  0  0
 17  2  1  6  0  0  0
 17 22  1  0  0  0  0
 18 19  1  1  0  0  0
 18 24  1  0  0  0  0
 18 30  1  0  0  0  0
 20 21  1  0  0  0  0
 20 26  1  1  0  0  0
 22 23  1  1  0  0  0
 22 28  1  0  0  0  0
 24 25  1  0  0  0  0
 26 27  1  0  0  0  0
 28 29  1  6  0  0  0
M  END
>  <CHROM.1>
-168.70545096,-157.21749206,-91.64938298,-147.20911314,130.47084757,97.96121820
-22.07975814,-14.57354899,-14.36020333,-0.69741621,-0.56750956,0.01790718

>  <Name>
ligand

>  <RI>
0

>  <Rbt.Current_Directory>
/home/itssahil/PROJECTS/Mol_Feturizer/New_Systems/rnas/4GPW

>  <Rbt.Executable>
rbdock ($Id: //depot/dev/client3/rdock/2013.1/src/exe/rbdock.cxx#4 $)

>  <Rbt.Library>
libRbt.so (2013.1, Build901 2013/11/27)

>  <Rbt.Parameter_File>
/export/apps/rDock/src/rDock_2013.1_src/data/scripts/dock_solv.prm

>  <Rbt.Receptor>
prm/pocket_docking_3.prm

>  <SCORE>
-19.1995

>  <SCORE.INTER>
-16.8661

>  <SCORE.INTER.CONST>
1

>  <SCORE.INTER.POLAR>
0

>  <SCORE.INTER.ROT>
6

>  <SCORE.INTER.SOLV>
17.1765

>  <SCORE.INTER.VDW>
-24.5696

>  <SCORE.INTER.norm>
-0.544068

>  <SCORE.INTRA>
-2.33342

>  <SCORE.INTRA.DIHEDRAL>
-4.72015

>  <SCORE.INTRA.DIHEDRAL.0>
19.2558

>  <SCORE.INTRA.POLAR>
0

>  <SCORE.INTRA.POLAR.0>
0

>  <SCORE.INTRA.REPUL>
0

>  <SCORE.INTRA.REPUL.0>
0

>  <SCORE.INTRA.SOLV>
-0.537783

>  <SCORE.INTRA.SOLV.lig_0>
-64.5929

>  <SCORE.INTRA.VDW>
0.295541

>  <SCORE.INTRA.VDW.0>
-4.40538

>  <SCORE.INTRA.norm>
-0.0752717

>  <SCORE.RESTR>
0

>  <SCORE.RESTR.CAVITY>
0

>  <SCORE.RESTR.norm>
0

>  <SCORE.SYSTEM>
0

>  <SCORE.SYSTEM.CONST>
0

>  <SCORE.SYSTEM.DIHEDRAL>
0

>  <SCORE.SYSTEM.SOLV>
0

>  <SCORE.SYSTEM.norm>
0

>  <SCORE.heavy>
31

>  <SCORE.norm>
-0.61934

>  <RMSD>
0.656

$$$$
ligand
 OpenBabel11021811493D
libRbt.so/2013.1/901 2013/11/27
 31 33  0  0  0  0  0  0  0  0999 V2000
  -19.1611  -15.5427  -12.7593 C   0  0  2  0  0  0  0  0  0  0  0  0
  -19.7444  -16.1683  -13.8929 O   0  0  0  0  0  0  0  0  0  0  0  0
  -23.5355  -16.1796  -15.8427 C   0  0  2  0  0  0  0  0  0  0  0  0
  -24.9430  -16.3184  -16.0348 N   0  0  0  0  0  0  0  0  0  0  0  0
  -25.0979  -13.2821  -14.9685 C   0  0  2  0  0  0  0  0  0  0  0  0
  -17.6153  -15.3754  -13.0674 C   0  0  2  0  0  0  0  0  0  0  0  0
  -17.4483  -14.5602  -14.2796 N   0  0  0  0  0  0  0  0  0  0  0  0
  -22.9596  -17.5694  -15.3263 C   0  0  0  0  0  0  0  0  0  0  0  0
  -25.4611  -12.3930  -16.2037 C   0  0  2  0  0  0  0  0  0  0  0  0
  -25.3623  -13.1911  -17.3596 O   0  0  0  0  0  0  0  0  0  0  0  0
  -16.9490  -16.7968  -13.2469 C   0  0  0  0  0  0  0  0  0  0  0  0
  -21.3855  -17.4178  -15.1176 C   0  0  2  0  0  0  0  0  0  0  0  0
  -20.8281  -18.7025  -14.6420 N   0  0  0  0  0  0  0  0  0  0  0  0
  -24.4708  -11.1569  -16.2694 C   0  0  1  0  0  0  0  0  0  0  0  0
  -24.8030  -10.2897  -17.4561 N   0  0  0  0  0  0  0  0  0  0  0  0
  -17.5038  -17.8604  -12.2108 C   0  0  0  0  0  0  0  0  0  0  0  0
  -21.1155  -16.2859  -14.0430 C   0  0  2  0  0  0  0  0  0  0  0  0
  -24.6282  -10.2757  -14.9107 C   0  0  1  0  0  0  0  0  0  0  0  0
  -25.9297   -9.7539  -14.7340 O   0  0  0  0  0  0  0  0  0  0  0  0
  -18.6006  -17.6006  -11.4637 C   0  0  2  0  0  0  0  0  0  0  0  0
  -19.3196  -16.3663  -11.5566 O   0  0  0  0  0  0  0  0  0  0  0  0
  -21.7121  -14.9145  -14.5638 C   0  0  2  0  0  0  0  0  0  0  0  0
  -21.4728  -13.8945  -13.5799 O   0  0  0  0  0  0  0  0  0  0  0  0
  -24.2891  -11.1861  -13.6838 C   0  0  0  0  0  0  0  0  0  0  0  0
  -25.1550  -12.4444  -13.7042 O   0  0  0  0  0  0  0  0  0  0  0  0
  -19.1626  -18.6003  -10.4539 C   0  0  0  0  0  0  0  0  0  0  0  0
  -20.3238  -19.2133  -11.0352 O   0  0  0  0  0  0  0  0  0  0  0  0
  -23.2717  -15.0598  -14.7728 C   0  0  1  0  0  0  0  0  0  0  0  0
  -23.7648  -13.8198  -15.2501 O   0  0  0  0  0  0  0  0  0  0  0  0
  -23.7037   -9.0419  -14.8325 C   0  0  0  0  0  0  0  0  0  0  0  0
  -24.1087  -10.6115  -18.7195 C   0  0  0  0  0  0  0  0  0  0  0  0
  1  2  1  6  0  0  0
  1  6  1  0  0  0  0
  1 21  1  0  0  0  0
  3  4  1  1  0  0  0
  3  8  1  0  0  0  0
  3 28  1  0  0  0  0
  5  9  1  0  0  0  0
  5 25  1  0  0  0  0
  5 29  1  6  0  0  0
  6  7  1  6  0  0  0
  6 11  1  0  0  0  0
  8 12  1  0  0  0  0
  9 10  1  6  0  0  0
  9 14  1  0  0  0  0
 11 16  1  0  0  0  0
 12 13  1  1  0  0  0
 12 17  1  0  0  0  0
 14 15  1  6  0  0  0
 14 18  1  0  0  0  0
 15 31  1  0  0  0  0
 16 20  1  0  0  0  0
 17  2  1  6  0  0  0
 17 22  1  0  0  0  0
 18 19  1  1  0  0  0
 18 24  1  0  0  0  0
 18 30  1  0  0  0  0
 20 21  1  0  0  0  0
 20 26  1  1  0  0  0
 22 23  1  1  0  0  0
 22 28  1  0  0  0  0
 24 25  1  0  0  0  0
 26 27  1  0  0  0  0
 28 29  1  6  0  0  0
M  END
>  <CHROM.1>
-170.24819330,-150.95173292,-90.43794520,-161.41545878,-103.26301124,93.51440862
-22.07907867,-14.55533976,-14.37508834,-0.72898485,-0.52453854,-0.00140002

>  <Name>
ligand

>  <RI>
0

>  <Rbt.Current_Directory>
/home/itssahil/PROJECTS/Mol_Feturizer/New_Systems/rnas/4GPW

>  <Rbt.Executable>
rbdock ($Id: //depot/dev/client3/rdock/2013.1/src/exe/rbdock.cxx#4 $)

>  <Rbt.Library>
libRbt.so (2013.1, Build901 2013/11/27)

>  <Rbt.Parameter_File>
/export/apps/rDock/src/rDock_2013.1_src/data/scripts/dock_solv.prm

>  <Rbt.Receptor>
prm/pocket_docking_3.prm

>  <SCORE>
-20.1204

>  <SCORE.INTER>
-16.671

>  <SCORE.INTER.CONST>
1

>  <SCORE.INTER.POLAR>
0

>  <SCORE.INTER.ROT>
6

>  <SCORE.INTER.SOLV>
16.669

>  <SCORE.INTER.VDW>
-24.2703

>  <SCORE.INTER.norm>
-0.537774

>  <SCORE.INTRA>
-3.44941

>  <SCORE.INTRA.DIHEDRAL>
-6.9002

>  <SCORE.INTRA.DIHEDRAL.0>
19.2558

>  <SCORE.INTRA.POLAR>
0

>  <SCORE.INTRA.POLAR.0>
0

>  <SCORE.INTRA.REPUL>
0

>  <SCORE.INTRA.REPUL.0>
0

>  <SCORE.INTRA.SOLV>
-0.923986

>  <SCORE.INTRA.SOLV.lig_0>
-64.5929

>  <SCORE.INTRA.VDW>
0.462679

>  <SCORE.INTRA.VDW.0>
-4.40538

>  <SCORE.INTRA.norm>
-0.111271

>  <SCORE.RESTR>
0

>  <SCORE.RESTR.CAVITY>
0

>  <SCORE.RESTR.norm>
0

>  <SCORE.SYSTEM>
0

>  <SCORE.SYSTEM.CONST>
0

>  <SCORE.SYSTEM.DIHEDRAL>
0

>  <SCORE.SYSTEM.SOLV>
0

>  <SCORE.SYSTEM.norm>
0

>  <SCORE.heavy>
31

>  <SCORE.norm>
-0.649046

>  <RMSD>
0.657

$$$$
ligand
 OpenBabel11021811493D
libRbt.so/2013.1/901 2013/11/27
 31 33  0  0  0  0  0  0  0  0999 V2000
  -19.2174  -15.5644  -12.8690 C   0  0  2  0  0  0  0  0  0  0  0  0
  -19.8172  -16.2371  -13.9664 O   0  0  0  0  0  0  0  0  0  0  0  0
  -23.6268  -16.2858  -15.8794 C   0  0  2  0  0  0  0  0  0  0  0  0
  -25.0373  -16.4180  -16.0531 N   0  0  0  0  0  0  0  0  0  0  0  0
  -25.1532  -13.3418  -15.1036 C   0  0  2  0  0  0  0  0  0  0  0  0
  -17.6835  -15.3786  -13.2225 C   0  0  2  0  0  0  0  0  0  0  0  0
  -17.5632  -14.6002  -14.4641 N   0  0  0  0  0  0  0  0  0  0  0  0
  -23.0592  -17.6603  -15.3152 C   0  0  0  0  0  0  0  0  0  0  0  0
  -25.4826  -12.4288  -16.3308 C   0  0  2  0  0  0  0  0  0  0  0  0
  -25.3855  -13.2130  -17.4963 O   0  0  0  0  0  0  0  0  0  0  0  0
  -16.9947  -16.7925  -13.3738 C   0  0  0  0  0  0  0  0  0  0  0  0
  -21.4818  -17.5165  -15.1270 C   0  0  2  0  0  0  0  0  0  0  0  0
  -20.9322  -18.7874  -14.6074 N   0  0  0  0  0  0  0  0  0  0  0  0
  -24.4666  -11.2124  -16.3672 C   0  0  1  0  0  0  0  0  0  0  0  0
  -24.7662  -10.3227  -17.5458 N   0  0  0  0  0  0  0  0  0  0  0  0
  -17.5022  -17.8321  -12.2902 C   0  0  0  0  0  0  0  0  0  0  0  0
  -21.1908  -16.3467  -14.0992 C   0  0  2  0  0  0  0  0  0  0  0  0
  -24.6233  -10.3467  -14.9985 C   0  0  1  0  0  0  0  0  0  0  0  0
  -25.9160   -9.8008  -14.8307 O   0  0  0  0  0  0  0  0  0  0  0  0
  -18.5844  -17.5684  -11.5234 C   0  0  2  0  0  0  0  0  0  0  0  0
  -19.3292  -16.3513  -11.6369 O   0  0  0  0  0  0  0  0  0  0  0  0
  -21.7793  -14.9906  -14.6670 C   0  0  2  0  0  0  0  0  0  0  0  0
  -21.5208  -13.9359  -13.7254 O   0  0  0  0  0  0  0  0  0  0  0  0
  -24.3183  -11.2804  -13.7802 C   0  0  0  0  0  0  0  0  0  0  0  0
  -25.2092  -12.5203  -13.8286 O   0  0  0  0  0  0  0  0  0  0  0  0
  -19.1011  -18.5451  -10.4678 C   0  0  0  0  0  0  0  0  0  0  0  0
  -20.2569  -19.2076  -11.0039 O   0  0  0  0  0  0  0  0  0  0  0  0
  -23.3421  -15.1283  -14.8559 C   0  0  1  0  0  0  0  0  0  0  0  0
  -23.8279  -13.9028  -15.3761 O   0  0  0  0  0  0  0  0  0  0  0  0
  -23.6750   -9.1333  -14.8919 C   0  0  0  0  0  0  0  0  0  0  0  0
  -24.0211  -10.6067  -18.7892 C   0  0  0  0  0  0  0  0  0  0  0  0
  1  2  1  6  0  0  0
  1  6  1  0  0  0  0
  1 21  1  0  0  0  0
  3  4  1  1  0  0  0
  3  8  1  0  0  0  0
  3 28  1  0  0  0  0
  5  9  1  0  0  0  0
  5 25  1  0  0  0  0
  5 29  1  6  0  0  0
  6  7  1  6  0  0  0
  6 11  1  0  0  0  0
  8 12  1  0  0  0  0
  9 10  1  6  0  0  0
  9 14  1  0  0  0  0
 11 16  1  0  0  0  0
 12 13  1  1  0  0  0
 12 17  1  0  0  0  0
 14 15  1  6  0  0  0
 14 18  1  0  0  0  0
 15 31  1  0  0  0  0
 16 20  1  0  0  0  0
 17  2  1  6  0  0  0
 17 22  1  0  0  0  0
 18 19  1  1  0  0  0
 18 24  1  0  0  0  0
 18 30  1  0  0  0  0
 20 21  1  0  0  0  0
 20 26  1  1  0  0  0
 22 23  1  1  0  0  0
 22 28  1  0  0  0  0
 24 25  1  0  0  0  0
 26 27  1  0  0  0  0
 28 29  1  6  0  0  0
M  END
>  <CHROM.1>
-168.09235372,-154.23576885,-92.87906529,-161.95770588,-102.69872705,93.48977895
-22.11147480,-14.59952481,-14.45606988,-0.74261622,-0.50631228,-0.03533939

>  <Name>
ligand

>  <RI>
0

>  <Rbt.Current_Directory>
/home/itssahil/PROJECTS/Mol_Feturizer/New_Systems/rnas/4GPW

>  <Rbt.Executable>
rbdock ($Id: //depot/dev/client3/rdock/2013.1/src/exe/rbdock.cxx#4 $)

>  <Rbt.Library>
libRbt.so (2013.1, Build901 2013/11/27)

>  <Rbt.Parameter_File>
/export/apps/rDock/src/rDock_2013.1_src/data/scripts/dock_solv.prm

>  <Rbt.Receptor>
prm/pocket_docking_3.prm

>  <SCORE>
-20.2386

>  <SCORE.INTER>
-16.4914

>  <SCORE.INTER.CONST>
1

>  <SCORE.INTER.POLAR>
0

>  <SCORE.INTER.ROT>
6

>  <SCORE.INTER.SOLV>
16.4844

>  <SCORE.INTER.VDW>
-24.0891

>  <SCORE.INTER.norm>
-0.531981

>  <SCORE.INTRA>
-3.74717

>  <SCORE.INTRA.DIHEDRAL>
-7.28461

>  <SCORE.INTRA.DIHEDRAL.0>
19.2558

>  <SCORE.INTRA.POLAR>
0

>  <SCORE.INTRA.POLAR.0>
0

>  <SCORE.INTRA.REPUL>
0

>  <SCORE.INTRA.REPUL.0>
0

>  <SCORE.INTRA.SOLV>
-1.07277

>  <SCORE.INTRA.SOLV.lig_0>
-64.5929

>  <SCORE.INTRA.VDW>
0.431522

>  <SCORE.INTRA.VDW.0>
-4.40538

>  <SCORE.INTRA.norm>
-0.120876

>  <SCORE.RESTR>
0

>  <SCORE.RESTR.CAVITY>
0

>  <SCORE.RESTR.norm>
0

>  <SCORE.SYSTEM>
0

>  <SCORE.SYSTEM.CONST>
0

>  <SCORE.SYSTEM.DIHEDRAL>
0

>  <SCORE.SYSTEM.SOLV>
0

>  <SCORE.SYSTEM.norm>
0

>  <SCORE.heavy>
31

>  <SCORE.norm>
-0.652858

>  <RMSD>
0.658

$$$$
ligand
 OpenBabel11021811493D
libRbt.so/2013.1/901 2013/11/27
 31 33  0  0  0  0  0  0  0  0999 V2000
  -19.1782  -15.5182  -12.7648 C   0  0  2  0  0  0  0  0  0  0  0  0
  -19.7617  -16.1364  -13.9024 O   0  0  0  0  0  0  0  0  0  0  0  0
  -23.5443  -16.0052  -15.8643 C   0  0  2  0  0  0  0  0  0  0  0  0
  -24.9522  -16.1200  -16.0691 N   0  0  0  0  0  0  0  0  0  0  0  0
  -25.0877  -13.1499  -14.8489 C   0  0  2  0  0  0  0  0  0  0  0  0
  -17.6292  -15.3658  -13.0645 C   0  0  2  0  0  0  0  0  0  0  0  0
  -17.4477  -14.5506  -14.2746 N   0  0  0  0  0  0  0  0  0  0  0  0
  -22.9835  -17.4266  -15.4225 C   0  0  0  0  0  0  0  0  0  0  0  0
  -25.4854  -12.2941  -16.0969 C   0  0  2  0  0  0  0  0  0  0  0  0
  -25.4002  -13.1178  -17.2357 O   0  0  0  0  0  0  0  0  0  0  0  0
  -16.9762  -16.7935  -13.2425 C   0  0  0  0  0  0  0  0  0  0  0  0
  -21.4089  -17.3016  -15.1998 C   0  0  2  0  0  0  0  0  0  0  0  0
  -20.8656  -18.6156  -14.7930 N   0  0  0  0  0  0  0  0  0  0  0  0
  -24.5108  -11.0489  -16.2110 C   0  0  1  0  0  0  0  0  0  0  0  0
  -24.8763  -10.2135  -17.4106 N   0  0  0  0  0  0  0  0  0  0  0  0
  -17.5469  -17.8530  -12.2110 C   0  0  0  0  0  0  0  0  0  0  0  0
  -21.1332  -16.2326  -14.0639 C   0  0  2  0  0  0  0  0  0  0  0  0
  -24.6516  -10.1380  -14.8703 C   0  0  1  0  0  0  0  0  0  0  0  0
  -25.9552   -9.6266  -14.6797 O   0  0  0  0  0  0  0  0  0  0  0  0
  -18.6450  -17.5833  -11.4692 C   0  0  2  0  0  0  0  0  0  0  0  0
  -19.3512  -16.3419  -11.5642 O   0  0  0  0  0  0  0  0  0  0  0  0
  -21.7148  -14.8293  -14.5113 C   0  0  2  0  0  0  0  0  0  0  0  0
  -21.4703  -13.8668  -13.4722 O   0  0  0  0  0  0  0  0  0  0  0  0
  -24.2778  -11.0156  -13.6296 C   0  0  0  0  0  0  0  0  0  0  0  0
  -25.1294  -12.2835  -13.6035 O   0  0  0  0  0  0  0  0  0  0  0  0
  -19.2222  -18.5788  -10.4638 C   0  0  0  0  0  0  0  0  0  0  0  0
  -20.3757  -19.1928  -11.0592 O   0  0  0  0  0  0  0  0  0  0  0  0
  -23.2748  -14.9481  -14.7338 C   0  0  1  0  0  0  0  0  0  0  0  0
  -23.7543  -13.6793  -15.1446 O   0  0  0  0  0  0  0  0  0  0  0  0
  -23.7399   -8.8926  -14.8392 C   0  0  0  0  0  0  0  0  0  0  0  0
  -24.2866  -10.6241  -18.7012 C   0  0  0  0  0  0  0  0  0  0  0  0
  1  2  1  6  0  0  0
  1  6  1  0  0  0  0
  1 21  1  0  0  0  0
  3  4  1  1  0  0  0
  3  8  1  0  0  0  0
  3 28  1  0  0  0  0
  5  9  1  0  0  0  0
  5 25  1  0  0  0  0
  5 29  1  6  0  0  0
  6  7  1  6  0  0  0
  6 11  1  0  0  0  0
  8 12  1  0  0  0  0
  9 10  1  6  0  0  0
  9 14  1  0  0  0  0
 11 16  1  0  0  0  0
 12 13  1  1  0  0  0
 12 17  1  0  0  0  0
 14 15  1  6  0  0  0
 14 18  1  0  0  0  0
 15 31  1  0  0  0  0
 16 20  1  0  0  0  0
 17  2  1  6  0  0  0
 17 22  1  0  0  0  0
 18 19  1  1  0  0  0
 18 24  1  0  0  0  0
 18 30  1  0  0  0  0
 20 21  1  0  0  0  0
 20 26  1  1  0  0  0
 22 23  1  1  0  0  0
 22 28  1  0  0  0  0
 24 25  1  0  0  0  0
 26 27  1  0  0  0  0
 28 29  1  6  0  0  0
M  END
>  <CHROM.1>
-169.83021346,-145.83519338,-85.72056112,-164.66772670,-102.48876174,92.95892933
-22.10545215,-14.47436280,-14.35576387,-0.71316317,-0.54933989,0.04634344

>  <Name>
ligand

>  <RI>
0

>  <Rbt.Current_Directory>
/home/itssahil/PROJECTS/Mol_Feturizer/New_Systems/rnas/4GPW

>  <Rbt.Executable>
rbdock ($Id: //depot/dev/client3/rdock/2013.1/src/exe/rbdock.cxx#4 $)

>  <Rbt.Library>
libRbt.so (2013.1, Build901 2013/11/27)

>  <Rbt.Parameter_File>
/export/apps/rDock/src/rDock_2013.1_src/data/scripts/dock_solv.prm

>  <Rbt.Receptor>
prm/pocket_docking_4.prm

>  <SCORE>
-20.0688

>  <SCORE.INTER>
-16.8978

>  <SCORE.INTER.CONST>
1

>  <SCORE.INTER.POLAR>
0

>  <SCORE.INTER.ROT>
6

>  <SCORE.INTER.SOLV>
16.7028

>  <SCORE.INTER.VDW>
-24.4328

>  <SCORE.INTER.norm>
-0.54509

>  <SCORE.INTRA>
-3.17103

>  <SCORE.INTRA.DIHEDRAL>
-6.59686

>  <SCORE.INTRA.DIHEDRAL.0>
19.2558

>  <SCORE.INTRA.POLAR>
0

>  <SCORE.INTRA.POLAR.0>
0

>  <SCORE.INTRA.REPUL>
0

>  <SCORE.INTRA.REPUL.0>
0

>  <SCORE.INTRA.SOLV>
-1.08213

>  <SCORE.INTRA.SOLV.lig_0>
-64.5929

>  <SCORE.INTRA.VDW>
0.668465

>  <SCORE.INTRA.VDW.0>
-4.40538

>  <SCORE.INTRA.norm>
-0.102291

>  <SCORE.RESTR>
0

>  <SCORE.RESTR.CAVITY>
0

>  <SCORE.RESTR.norm>
0

>  <SCORE.SYSTEM>
0

>  <SCORE.SYSTEM.CONST>
0

>  <SCORE.SYSTEM.DIHEDRAL>
0

>  <SCORE.SYSTEM.SOLV>
0

>  <SCORE.SYSTEM.norm>
0

>  <SCORE.heavy>
31

>  <SCORE.norm>
-0.647382

>  <RMSD>
0.658

$$$$
ligand
 OpenBabel11021811493D
libRbt.so/2013.1/901 2013/11/27
 31 33  0  0  0  0  0  0  0  0999 V2000
  -19.2851  -15.5761  -12.6602 C   0  0  2  0  0  0  0  0  0  0  0  0
  -19.8526  -16.0116  -13.8870 O   0  0  0  0  0  0  0  0  0  0  0  0
  -23.6103  -16.2682  -15.8840 C   0  0  2  0  0  0  0  0  0  0  0  0
  -25.0105  -16.4590  -16.0852 N   0  0  0  0  0  0  0  0  0  0  0  0
  -25.2230  -13.3027  -15.1663 C   0  0  2  0  0  0  0  0  0  0  0  0
  -17.7578  -15.2604  -12.9432 C   0  0  2  0  0  0  0  0  0  0  0  0
  -17.6615  -14.2234  -13.9810 N   0  0  0  0  0  0  0  0  0  0  0  0
  -23.0066  -17.6005  -15.2591 C   0  0  0  0  0  0  0  0  0  0  0  0
  -25.5488  -12.3489  -16.3630 C   0  0  2  0  0  0  0  0  0  0  0  0
  -25.4776  -13.1005  -17.5516 O   0  0  0  0  0  0  0  0  0  0  0  0
  -17.0137  -16.5798  -13.3928 C   0  0  0  0  0  0  0  0  0  0  0  0
  -21.4406  -17.3913  -15.0399 C   0  0  2  0  0  0  0  0  0  0  0  0
  -20.8576  -18.6223  -14.4636 N   0  0  0  0  0  0  0  0  0  0  0  0
  -24.5117  -11.1499  -16.3753 C   0  0  1  0  0  0  0  0  0  0  0  0
  -24.8075  -10.2212  -17.5245 N   0  0  0  0  0  0  0  0  0  0  0  0
  -17.4860  -17.8508  -12.5719 C   0  0  0  0  0  0  0  0  0  0  0  0
  -21.2176  -16.1771  -14.0473 C   0  0  2  0  0  0  0  0  0  0  0  0
  -24.6388  -10.3216  -14.9806 C   0  0  1  0  0  0  0  0  0  0  0  0
  -25.9198   -9.7583  -14.7831 O   0  0  0  0  0  0  0  0  0  0  0  0
  -18.5816  -17.8029  -11.7806 C   0  0  2  0  0  0  0  0  0  0  0  0
  -19.3726  -16.6191  -11.6334 O   0  0  0  0  0  0  0  0  0  0  0  0
  -21.8414  -14.8641  -14.6756 C   0  0  2  0  0  0  0  0  0  0  0  0
  -21.6446  -13.7690  -13.7658 O   0  0  0  0  0  0  0  0  0  0  0  0
  -24.3379  -11.2955  -13.7931 C   0  0  0  0  0  0  0  0  0  0  0  0
  -25.2512  -12.5177  -13.8676 O   0  0  0  0  0  0  0  0  0  0  0  0
  -19.0653  -19.0068  -10.9733 C   0  0  0  0  0  0  0  0  0  0  0  0
  -19.2207  -18.5918   -9.6074 O   0  0  0  0  0  0  0  0  0  0  0  0
  -23.3931  -15.0666  -14.8954 C   0  0  1  0  0  0  0  0  0  0  0  0
  -23.9107  -13.8786  -15.4692 O   0  0  0  0  0  0  0  0  0  0  0  0
  -23.6680   -9.1286  -14.8493 C   0  0  0  0  0  0  0  0  0  0  0  0
  -24.1543  -10.5390  -18.8106 C   0  0  0  0  0  0  0  0  0  0  0  0
  1  2  1  6  0  0  0
  1  6  1  0  0  0  0
  1 21  1  0  0  0  0
  3  4  1  1  0  0  0
  3  8  1  0  0  0  0
  3 28  1  0  0  0  0
  5  9  1  0  0  0  0
  5 25  1  0  0  0  0
  5 29  1  6  0  0  0
  6  7  1  6  0  0  0
  6 11  1  0  0  0  0
  8 12  1  0  0  0  0
  9 10  1  6  0  0  0
  9 14  1  0  0  0  0
 11 16  1  0  0  0  0
 12 13  1  1  0  0  0
 12 17  1  0  0  0  0
 14 15  1  6  0  0  0
 14 18  1  0  0  0  0
 15 31  1  0  0  0  0
 16 20  1  0  0  0  0
 17  2  1  6  0  0  0
 17 22  1  0  0  0  0
 18 19  1  1  0  0  0
 18 24  1  0  0  0  0
 18 30  1  0  0  0  0
 20 21  1  0  0  0  0
 20 26  1  1  0  0  0
 22 23  1  1  0  0  0
 22 28  1  0  0  0  0
 24 25  1  0  0  0  0
 26 27  1  0  0  0  0
 28 29  1  6  0  0  0
M  END
>  <CHROM.1>
-170.01028827,-160.26254322,-88.67534840,-146.28355284,127.51193231,98.53358945
-22.10494213,-14.53428487,-14.40592829,-0.69914307,-0.56078662,0.01340240

>  <Name>
ligand

>  <RI>
0

>  <Rbt.Current_Directory>
/home/itssahil/PROJECTS/Mol_Feturizer/New_Systems/rnas/4GPW

>  <Rbt.Executable>
rbdock ($Id: //depot/dev/client3/rdock/2013.1/src/exe/rbdock.cxx#4 $)

>  <Rbt.Library>
libRbt.so (2013.1, Build901 2013/11/27)

>  <Rbt.Parameter_File>
/export/apps/rDock/src/rDock_2013.1_src/data/scripts/dock_solv.prm

>  <Rbt.Receptor>
prm/pocket_docking_4.prm

>  <SCORE>
-19.2153

>  <SCORE.INTER>
-16.623

>  <SCORE.INTER.CONST>
1

>  <SCORE.INTER.POLAR>
0

>  <SCORE.INTER.ROT>
6

>  <SCORE.INTER.SOLV>
16.9914

>  <SCORE.INTER.VDW>
-24.3458

>  <SCORE.INTER.norm>
-0.536225

>  <SCORE.INTRA>
-2.5923

>  <SCORE.INTRA.DIHEDRAL>
-5.25552

>  <SCORE.INTRA.DIHEDRAL.0>
19.2558

>  <SCORE.INTRA.POLAR>
0

>  <SCORE.INTRA.POLAR.0>
0

>  <SCORE.INTRA.REPUL>
0

>  <SCORE.INTRA.REPUL.0>
0

>  <SCORE.INTRA.SOLV>
-0.573538

>  <SCORE.INTRA.SOLV.lig_0>
-64.5929

>  <SCORE.INTRA.VDW>
0.32223

>  <SCORE.INTRA.VDW.0>
-4.40538

>  <SCORE.INTRA.norm>
-0.0836226

>  <SCORE.RESTR>
0

>  <SCORE.RESTR.CAVITY>
0

>  <SCORE.RESTR.norm>
0

>  <SCORE.SYSTEM>
0

>  <SCORE.SYSTEM.CONST>
0

>  <SCORE.SYSTEM.DIHEDRAL>
0

>  <SCORE.SYSTEM.SOLV>
0

>  <SCORE.SYSTEM.norm>
0

>  <SCORE.heavy>
31

>  <SCORE.norm>
-0.619848

>  <RMSD>
0.658

$$$$
ligand
 OpenBabel11021811493D
libRbt.so/2013.1/901 2013/11/27
 31 33  0  0  0  0  0  0  0  0999 V2000
  -19.2384  -15.5595  -12.8691 C   0  0  2  0  0  0  0  0  0  0  0  0
  -19.8309  -16.2291  -13.9723 O   0  0  0  0  0  0  0  0  0  0  0  0
  -23.6321  -16.3009  -15.9013 C   0  0  2  0  0  0  0  0  0  0  0  0
  -25.0413  -16.4398  -16.0804 N   0  0  0  0  0  0  0  0  0  0  0  0
  -25.1663  -13.3502  -15.1256 C   0  0  2  0  0  0  0  0  0  0  0  0
  -17.7029  -15.3696  -13.2134 C   0  0  2  0  0  0  0  0  0  0  0  0
  -17.5771  -14.5863  -14.4514 N   0  0  0  0  0  0  0  0  0  0  0  0
  -23.0611  -17.6710  -15.3296 C   0  0  0  0  0  0  0  0  0  0  0  0
  -25.4943  -12.4248  -16.3438 C   0  0  2  0  0  0  0  0  0  0  0  0
  -25.4060  -13.1995  -17.5163 O   0  0  0  0  0  0  0  0  0  0  0  0
  -17.0108  -16.7817  -13.3661 C   0  0  0  0  0  0  0  0  0  0  0  0
  -21.4851  -17.5197  -15.1352 C   0  0  2  0  0  0  0  0  0  0  0  0
  -20.9323  -18.7864  -14.6087 N   0  0  0  0  0  0  0  0  0  0  0  0
  -24.4708  -11.2144  -16.3734 C   0  0  1  0  0  0  0  0  0  0  0  0
  -24.7688  -10.3128  -17.5434 N   0  0  0  0  0  0  0  0  0  0  0  0
  -17.5224  -17.8262  -12.2892 C   0  0  0  0  0  0  0  0  0  0  0  0
  -21.2035  -16.3451  -14.1105 C   0  0  2  0  0  0  0  0  0  0  0  0
  -24.6174  -10.3594  -14.9969 C   0  0  1  0  0  0  0  0  0  0  0  0
  -25.9061   -9.8069  -14.8199 O   0  0  0  0  0  0  0  0  0  0  0  0
  -18.6093  -17.5674  -11.5275 C   0  0  2  0  0  0  0  0  0  0  0  0
  -19.3557  -16.3512  -11.6406 O   0  0  0  0  0  0  0  0  0  0  0  0
  -21.7953  -14.9935  -14.6858 C   0  0  2  0  0  0  0  0  0  0  0  0
  -21.5453  -13.9344  -13.7469 O   0  0  0  0  0  0  0  0  0  0  0  0
  -24.3140  -11.3053  -13.7877 C   0  0  0  0  0  0  0  0  0  0  0  0
  -25.2128  -12.5392  -13.8435 O   0  0  0  0  0  0  0  0  0  0  0  0
  -19.1301  -18.5489  -10.4784 C   0  0  0  0  0  0  0  0  0  0  0  0
  -20.2955  -19.1945  -11.0143 O   0  0  0  0  0  0  0  0  0  0  0  0
  -23.3567  -15.1386  -14.8808 C   0  0  1  0  0  0  0  0  0  0  0  0
  -23.8454  -13.9170  -15.4075 O   0  0  0  0  0  0  0  0  0  0  0  0
  -23.6612   -9.1529  -14.8833 C   0  0  0  0  0  0  0  0  0  0  0  0
  -24.0993  -10.6466  -18.8170 C   0  0  0  0  0  0  0  0  0  0  0  0
  1  2  1  6  0  0  0
  1  6  1  0  0  0  0
  1 21  1  0  0  0  0
  3  4  1  1  0  0  0
  3  8  1  0  0  0  0
  3 28  1  0  0  0  0
  5  9  1  0  0  0  0
  5 25  1  0  0  0  0
  5 29  1  6  0  0  0
  6  7  1  6  0  0  0
  6 11  1  0  0  0  0
  8 12  1  0  0  0  0
  9 10  1  6  0  0  0
  9 14  1  0  0  0  0
 11 16  1  0  0  0  0
 12 13  1  1  0  0  0
 12 17  1  0  0  0  0
 14 15  1  6  0  0  0
 14 18  1  0  0  0  0
 15 31  1  0  0  0  0
 16 20  1  0  0  0  0
 17  2  1  6  0  0  0
 17 22  1  0  0  0  0
 18 19  1  1  0  0  0
 18 24  1  0  0  0  0
 18 30  1  0  0  0  0
 20 21  1  0  0  0  0
 20 26  1  1  0  0  0
 22 23  1  1  0  0  0
 22 28  1  0  0  0  0
 24 25  1  0  0  0  0
 26 27  1  0  0  0  0
 28 29  1  6  0  0  0
M  END
>  <CHROM.1>
-168.34194531,-155.39800508,-88.87179034,-161.42610113,-103.69054570,94.51902879
-22.12543902,-14.60328738,-14.46500085,-0.73782574,-0.51448136,-0.02798371

>  <Name>
ligand

>  <RI>
0

>  <Rbt.Current_Directory>
/home/itssahil/PROJECTS/Mol_Feturizer/New_Systems/rnas/4GPW

>  <Rbt.Executable>
rbdock ($Id: //depot/dev/client3/rdock/2013.1/src/exe/rbdock.cxx#4 $)

>  <Rbt.Library>
libRbt.so (2013.1, Build901 2013/11/27)

>  <Rbt.Parameter_File>
/export/apps/rDock/src/rDock_2013.1_src/data/scripts/dock_solv.prm

>  <Rbt.Receptor>
prm/pocket_docking_2.prm

>  <SCORE>
-20.2897

>  <SCORE.INTER>
-16.5438

>  <SCORE.INTER.CONST>
1

>  <SCORE.INTER.POLAR>
0

>  <SCORE.INTER.ROT>
6

>  <SCORE.INTER.SOLV>
16.4771

>  <SCORE.INTER.VDW>
-24.1215

>  <SCORE.INTER.norm>
-0.53367

>  <SCORE.INTRA>
-3.74589

>  <SCORE.INTRA.DIHEDRAL>
-7.41667

>  <SCORE.INTRA.DIHEDRAL.0>
19.2558

>  <SCORE.INTRA.POLAR>
0

>  <SCORE.INTRA.POLAR.0>
0

>  <SCORE.INTRA.REPUL>
0

>  <SCORE.INTRA.REPUL.0>
0

>  <SCORE.INTRA.SOLV>
-1.04665

>  <SCORE.INTRA.SOLV.lig_0>
-64.5929

>  <SCORE.INTRA.VDW>
0.485764

>  <SCORE.INTRA.VDW.0>
-4.40538

>  <SCORE.INTRA.norm>
-0.120835

>  <SCORE.RESTR>
0

>  <SCORE.RESTR.CAVITY>
0

>  <SCORE.RESTR.norm>
0

>  <SCORE.SYSTEM>
0

>  <SCORE.SYSTEM.CONST>
0

>  <SCORE.SYSTEM.DIHEDRAL>
0

>  <SCORE.SYSTEM.SOLV>
0

>  <SCORE.SYSTEM.norm>
0

>  <SCORE.heavy>
31

>  <SCORE.norm>
-0.654505

>  <RMSD>
0.659

$$$$
ligand
 OpenBabel11021811493D
libRbt.so/2013.1/901 2013/11/27
 31 33  0  0  0  0  0  0  0  0999 V2000
  -19.2332  -15.5606  -12.8656 C   0  0  2  0  0  0  0  0  0  0  0  0
  -19.8267  -16.2218  -13.9733 O   0  0  0  0  0  0  0  0  0  0  0  0
  -23.6306  -16.2998  -15.8965 C   0  0  2  0  0  0  0  0  0  0  0  0
  -25.0399  -16.4406  -16.0735 N   0  0  0  0  0  0  0  0  0  0  0  0
  -25.1670  -13.3499  -15.1188 C   0  0  2  0  0  0  0  0  0  0  0  0
  -17.6971  -15.3717  -13.2081 C   0  0  2  0  0  0  0  0  0  0  0  0
  -17.5693  -14.5807  -14.4409 N   0  0  0  0  0  0  0  0  0  0  0  0
  -23.0569  -17.6688  -15.3250 C   0  0  0  0  0  0  0  0  0  0  0  0
  -25.4991  -12.4260  -16.3371 C   0  0  2  0  0  0  0  0  0  0  0  0
  -25.4134  -13.2019  -17.5090 O   0  0  0  0  0  0  0  0  0  0  0  0
  -17.0079  -16.7843  -13.3697 C   0  0  0  0  0  0  0  0  0  0  0  0
  -21.4809  -17.5153  -15.1331 C   0  0  2  0  0  0  0  0  0  0  0  0
  -20.9256  -18.7810  -14.6066 N   0  0  0  0  0  0  0  0  0  0  0  0
  -24.4767  -11.2148  -16.3708 C   0  0  1  0  0  0  0  0  0  0  0  0
  -24.7787  -10.3147  -17.5409 N   0  0  0  0  0  0  0  0  0  0  0  0
  -17.5222  -17.8346  -12.2998 C   0  0  0  0  0  0  0  0  0  0  0  0
  -21.1993  -16.3397  -14.1094 C   0  0  2  0  0  0  0  0  0  0  0  0
  -24.6202  -10.3585  -14.9948 C   0  0  1  0  0  0  0  0  0  0  0  0
  -25.9089   -9.8069  -14.8149 O   0  0  0  0  0  0  0  0  0  0  0  0
  -18.6088  -17.5785  -11.5367 C   0  0  2  0  0  0  0  0  0  0  0  0
  -19.3525  -16.3600  -11.6422 O   0  0  0  0  0  0  0  0  0  0  0  0
  -21.7938  -14.9893  -14.6845 C   0  0  2  0  0  0  0  0  0  0  0  0
  -21.5438  -13.9293  -13.7465 O   0  0  0  0  0  0  0  0  0  0  0  0
  -24.3127  -11.3029  -13.7854 C   0  0  0  0  0  0  0  0  0  0  0  0
  -25.2107  -12.5375  -13.8374 O   0  0  0  0  0  0  0  0  0  0  0  0
  -19.1319  -18.5656  -10.4943 C   0  0  0  0  0  0  0  0  0  0  0  0
  -20.2636  -19.2473  -11.0570 O   0  0  0  0  0  0  0  0  0  0  0  0
  -23.3553  -15.1365  -14.8771 C   0  0  1  0  0  0  0  0  0  0  0  0
  -23.8464  -13.9159  -15.4037 O   0  0  0  0  0  0  0  0  0  0  0  0
  -23.6647   -9.1510  -14.8850 C   0  0  0  0  0  0  0  0  0  0  0  0
  -24.1377  -10.6681  -18.8239 C   0  0  0  0  0  0  0  0  0  0  0  0
  1  2  1  6  0  0  0
  1  6  1  0  0  0  0
  1 21  1  0  0  0  0
  3  4  1  1  0  0  0
  3  8  1  0  0  0  0
  3 28  1  0  0  0  0
  5  9  1  0  0  0  0
  5 25  1  0  0  0  0
  5 29  1  6  0  0  0
  6  7  1  6  0  0  0
  6 11  1  0  0  0  0
  8 12  1  0  0  0  0
  9 10  1  6  0  0  0
  9 14  1  0  0  0  0
 11 16  1  0  0  0  0
 12 13  1  1  0  0  0
 12 17  1  0  0  0  0
 14 15  1  6  0  0  0
 14 18  1  0  0  0  0
 15 31  1  0  0  0  0
 16 20  1  0  0  0  0
 17  2  1  6  0  0  0
 17 22  1  0  0  0  0
 18 19  1  1  0  0  0
 18 24  1  0  0  0  0
 18 30  1  0  0  0  0
 20 21  1  0  0  0  0
 20 26  1  1  0  0  0
 22 23  1  1  0  0  0
 22 28  1  0  0  0  0
 24 25  1  0  0  0  0
 26 27  1  0  0  0  0
 28 29  1  6  0  0  0
M  END
>  <CHROM.1>
-168.66398158,-155.39554797,-87.46243263,-160.88591751,-101.21564293,94.60111679
-22.12500064,-14.60612655,-14.46525130,-0.73739295,-0.51332335,-0.02652563

>  <Name>
ligand

>  <RI>
0

>  <Rbt.Current_Directory>
/home/itssahil/PROJECTS/Mol_Feturizer/New_Systems/rnas/4GPW

>  <Rbt.Executable>
rbdock ($Id: //depot/dev/client3/rdock/2013.1/src/exe/rbdock.cxx#4 $)

>  <Rbt.Library>
libRbt.so (2013.1, Build901 2013/11/27)

>  <Rbt.Parameter_File>
/export/apps/rDock/src/rDock_2013.1_src/data/scripts/dock_solv.prm

>  <Rbt.Receptor>
prm/pocket_docking_2.prm

>  <SCORE>
-20.3073

>  <SCORE.INTER>
-16.6684

>  <SCORE.INTER.CONST>
1

>  <SCORE.INTER.POLAR>
0

>  <SCORE.INTER.ROT>
6

>  <SCORE.INTER.SOLV>
16.4246

>  <SCORE.INTER.VDW>
-24.1871

>  <SCORE.INTER.norm>
-0.53769

>  <SCORE.INTRA>
-3.63888

>  <SCORE.INTRA.DIHEDRAL>
-7.29608

>  <SCORE.INTRA.DIHEDRAL.0>
19.2558

>  <SCORE.INTRA.POLAR>
0

>  <SCORE.INTRA.POLAR.0>
0

>  <SCORE.INTRA.REPUL>
0

>  <SCORE.INTRA.REPUL.0>
0

>  <SCORE.INTRA.SOLV>
-0.991576

>  <SCORE.INTRA.SOLV.lig_0>
-64.5929

>  <SCORE.INTRA.VDW>
0.50495

>  <SCORE.INTRA.VDW.0>
-4.40538

>  <SCORE.INTRA.norm>
-0.117383

>  <SCORE.RESTR>
0

>  <SCORE.RESTR.CAVITY>
0

>  <SCORE.RESTR.norm>
0

>  <SCORE.SYSTEM>
0

>  <SCORE.SYSTEM.CONST>
0

>  <SCORE.SYSTEM.DIHEDRAL>
0

>  <SCORE.SYSTEM.SOLV>
0

>  <SCORE.SYSTEM.norm>
0

>  <SCORE.heavy>
31

>  <SCORE.norm>
-0.655073

>  <RMSD>
0.659

$$$$
ligand
 OpenBabel11021811493D
libRbt.so/2013.1/901 2013/11/27
 31 33  0  0  0  0  0  0  0  0999 V2000
  -19.1733  -15.5874  -12.7956 C   0  0  2  0  0  0  0  0  0  0  0  0
  -19.7593  -16.2214  -13.9231 O   0  0  0  0  0  0  0  0  0  0  0  0
  -23.5487  -16.1850  -15.8760 C   0  0  2  0  0  0  0  0  0  0  0  0
  -24.9569  -16.3122  -16.0708 N   0  0  0  0  0  0  0  0  0  0  0  0
  -25.0913  -13.2859  -14.9669 C   0  0  2  0  0  0  0  0  0  0  0  0
  -17.6276  -15.4255  -13.1072 C   0  0  2  0  0  0  0  0  0  0  0  0
  -17.4608  -14.6208  -14.3264 N   0  0  0  0  0  0  0  0  0  0  0  0
  -22.9825  -17.5844  -15.3751 C   0  0  0  0  0  0  0  0  0  0  0  0
  -25.4506  -12.3829  -16.1931 C   0  0  2  0  0  0  0  0  0  0  0  0
  -25.3602  -13.1710  -17.3565 O   0  0  0  0  0  0  0  0  0  0  0  0
  -16.9642  -16.8496  -13.2756 C   0  0  0  0  0  0  0  0  0  0  0  0
  -21.4076  -17.4458  -15.1635 C   0  0  2  0  0  0  0  0  0  0  0  0
  -20.8592  -18.7396  -14.7022 N   0  0  0  0  0  0  0  0  0  0  0  0
  -24.4514  -11.1534  -16.2497 C   0  0  1  0  0  0  0  0  0  0  0  0
  -24.7799  -10.2731  -17.4277 N   0  0  0  0  0  0  0  0  0  0  0  0
  -17.5195  -17.9035  -12.2299 C   0  0  0  0  0  0  0  0  0  0  0  0
  -21.1310  -16.3281  -14.0756 C   0  0  2  0  0  0  0  0  0  0  0  0
  -24.5995  -10.2836  -14.8827 C   0  0  1  0  0  0  0  0  0  0  0  0
  -25.8967   -9.7540  -14.6982 O   0  0  0  0  0  0  0  0  0  0  0  0
  -18.6148  -17.6354  -11.4835 C   0  0  2  0  0  0  0  0  0  0  0  0
  -19.3316  -16.4006  -11.5858 O   0  0  0  0  0  0  0  0  0  0  0  0
  -21.7181  -14.9469  -14.5811 C   0  0  2  0  0  0  0  0  0  0  0  0
  -21.4728  -13.9399  -13.5853 O   0  0  0  0  0  0  0  0  0  0  0  0
  -24.2644  -11.2077  -13.6649 C   0  0  0  0  0  0  0  0  0  0  0  0
  -25.1395  -12.4594  -13.6948 O   0  0  0  0  0  0  0  0  0  0  0  0
  -19.1772  -18.6255  -10.4646 C   0  0  0  0  0  0  0  0  0  0  0  0
  -20.3446  -19.2358  -11.0363 O   0  0  0  0  0  0  0  0  0  0  0  0
  -23.2784  -15.0793  -14.7930 C   0  0  1  0  0  0  0  0  0  0  0  0
  -23.7628  -13.8307  -15.2564 O   0  0  0  0  0  0  0  0  0  0  0  0
  -23.6658   -9.0574  -14.7952 C   0  0  0  0  0  0  0  0  0  0  0  0
  -24.1796  -10.6565  -18.7217 C   0  0  0  0  0  0  0  0  0  0  0  0
  1  2  1  6  0  0  0
  1  6  1  0  0  0  0
  1 21  1  0  0  0  0
  3  4  1  1  0  0  0
  3  8  1  0  0  0  0
  3 28  1  0  0  0  0
  5  9  1  0  0  0  0
  5 25  1  0  0  0  0
  5 29  1  6  0  0  0
  6  7  1  6  0  0  0
  6 11  1  0  0  0  0
  8 12  1  0  0  0  0
  9 10  1  6  0  0  0
  9 14  1  0  0  0  0
 11 16  1  0  0  0  0
 12 13  1  1  0  0  0
 12 17  1  0  0  0  0
 14 15  1  6  0  0  0
 14 18  1  0  0  0  0
 15 31  1  0  0  0  0
 16 20  1  0  0  0  0
 17  2  1  6  0  0  0
 17 22  1  0  0  0  0
 18 19  1  1  0  0  0
 18 24  1  0  0  0  0
 18 30  1  0  0  0  0
 20 21  1  0  0  0  0
 20 26  1  1  0  0  0
 22 23  1  1  0  0  0
 22 28  1  0  0  0  0
 24 25  1  0  0  0  0
 26 27  1  0  0  0  0
 28 29  1  6  0  0  0
M  END
>  <CHROM.1>
-169.71209057,-150.86555168,-85.45424747,-162.78899576,-103.57636125,93.67700988
-22.08367092,-14.57823846,-14.38678746,-0.72516266,-0.53554624,0.01706168

>  <Name>
ligand

>  <RI>
0

>  <Rbt.Current_Directory>
/home/itssahil/PROJECTS/Mol_Feturizer/New_Systems/rnas/4GPW

>  <Rbt.Executable>
rbdock ($Id: //depot/dev/client3/rdock/2013.1/src/exe/rbdock.cxx#4 $)

>  <Rbt.Library>
libRbt.so (2013.1, Build901 2013/11/27)

>  <Rbt.Parameter_File>
/export/apps/rDock/src/rDock_2013.1_src/data/scripts/dock_solv.prm

>  <Rbt.Receptor>
prm/pocket_docking_3.prm

>  <SCORE>
-20.1001

>  <SCORE.INTER>
-16.6127

>  <SCORE.INTER.CONST>
1

>  <SCORE.INTER.POLAR>
0

>  <SCORE.INTER.ROT>
6

>  <SCORE.INTER.SOLV>
16.5985

>  <SCORE.INTER.VDW>
-24.208

>  <SCORE.INTER.norm>
-0.535895

>  <SCORE.INTRA>
-3.48736

>  <SCORE.INTRA.DIHEDRAL>
-7.17893

>  <SCORE.INTRA.DIHEDRAL.0>
19.2558

>  <SCORE.INTRA.POLAR>
0

>  <SCORE.INTRA.POLAR.0>
0

>  <SCORE.INTRA.REPUL>
0

>  <SCORE.INTRA.REPUL.0>
0

>  <SCORE.INTRA.SOLV>
-1.04872

>  <SCORE.INTRA.SOLV.lig_0>
-64.5929

>  <SCORE.INTRA.VDW>
0.626464

>  <SCORE.INTRA.VDW.0>
-4.40538

>  <SCORE.INTRA.norm>
-0.112496

>  <SCORE.RESTR>
0

>  <SCORE.RESTR.CAVITY>
0

>  <SCORE.RESTR.norm>
0

>  <SCORE.SYSTEM>
0

>  <SCORE.SYSTEM.CONST>
0

>  <SCORE.SYSTEM.DIHEDRAL>
0

>  <SCORE.SYSTEM.SOLV>
0

>  <SCORE.SYSTEM.norm>
0

>  <SCORE.heavy>
31

>  <SCORE.norm>
-0.648391

>  <RMSD>
0.659

$$$$
ligand
 OpenBabel11021811493D
libRbt.so/2013.1/901 2013/11/27
 31 33  0  0  0  0  0  0  0  0999 V2000
  -19.1566  -15.6003  -12.7824 C   0  0  2  0  0  0  0  0  0  0  0  0
  -19.7466  -16.2291  -13.9108 O   0  0  0  0  0  0  0  0  0  0  0  0
  -23.5368  -16.1591  -15.8612 C   0  0  2  0  0  0  0  0  0  0  0  0
  -24.9458  -16.2774  -16.0560 N   0  0  0  0  0  0  0  0  0  0  0  0
  -25.0786  -13.2772  -14.9686 C   0  0  2  0  0  0  0  0  0  0  0  0
  -17.6102  -15.4466  -13.0943 C   0  0  2  0  0  0  0  0  0  0  0  0
  -17.4392  -14.6409  -14.3122 N   0  0  0  0  0  0  0  0  0  0  0  0
  -22.9779  -17.5650  -15.3701 C   0  0  0  0  0  0  0  0  0  0  0  0
  -25.4249  -12.3922  -16.2116 C   0  0  2  0  0  0  0  0  0  0  0  0
  -25.3014  -13.1917  -17.3641 O   0  0  0  0  0  0  0  0  0  0  0  0
  -16.9549  -16.8742  -13.2652 C   0  0  0  0  0  0  0  0  0  0  0  0
  -21.4021  -17.4362  -15.1584 C   0  0  2  0  0  0  0  0  0  0  0  0
  -20.8605  -18.7360  -14.7061 N   0  0  0  0  0  0  0  0  0  0  0  0
  -24.4404  -11.1507  -16.2621 C   0  0  1  0  0  0  0  0  0  0  0  0
  -24.7564  -10.2875  -17.4560 N   0  0  0  0  0  0  0  0  0  0  0  0
  -17.5158  -17.9266  -12.2211 C   0  0  0  0  0  0  0  0  0  0  0  0
  -21.1190  -16.3274  -14.0632 C   0  0  2  0  0  0  0  0  0  0  0  0
  -24.6265  -10.2681  -14.9080 C   0  0  1  0  0  0  0  0  0  0  0  0
  -25.9337   -9.7531  -14.7551 O   0  0  0  0  0  0  0  0  0  0  0  0
  -18.6094  -17.6535  -11.4739 C   0  0  2  0  0  0  0  0  0  0  0  0
  -19.3192  -16.4145  -11.5739 O   0  0  0  0  0  0  0  0  0  0  0  0
  -21.6988  -14.9397  -14.5591 C   0  0  2  0  0  0  0  0  0  0  0  0
  -21.4476  -13.9407  -13.5567 O   0  0  0  0  0  0  0  0  0  0  0  0
  -24.3041  -11.1745  -13.6737 C   0  0  0  0  0  0  0  0  0  0  0  0
  -25.1625  -12.4375  -13.7070 O   0  0  0  0  0  0  0  0  0  0  0  0
  -19.1770  -18.6421  -10.4564 C   0  0  0  0  0  0  0  0  0  0  0  0
  -20.3371  -19.2588  -11.0361 O   0  0  0  0  0  0  0  0  0  0  0  0
  -23.2600  -15.0623  -14.7710 C   0  0  1  0  0  0  0  0  0  0  0  0
  -23.7378  -13.8079  -15.2257 O   0  0  0  0  0  0  0  0  0  0  0  0
  -23.7103   -9.0291  -14.8158 C   0  0  0  0  0  0  0  0  0  0  0  0
  -24.0516  -10.6189  -18.7111 C   0  0  0  0  0  0  0  0  0  0  0  0
  1  2  1  6  0  0  0
  1  6  1  0  0  0  0
  1 21  1  0  0  0  0
  3  4  1  1  0  0  0
  3  8  1  0  0  0  0
  3 28  1  0  0  0  0
  5  9  1  0  0  0  0
  5 25  1  0  0  0  0
  5 29  1  6  0  0  0
  6  7  1  6  0  0  0
  6 11  1  0  0  0  0
  8 12  1  0  0  0  0
  9 10  1  6  0  0  0
  9 14  1  0  0  0  0
 11 16  1  0  0  0  0
 12 13  1  1  0  0  0
 12 17  1  0  0  0  0
 14 15  1  6  0  0  0
 14 18  1  0  0  0  0
 15 31  1  0  0  0  0
 16 20  1  0  0  0  0
 17  2  1  6  0  0  0
 17 22  1  0  0  0  0
 18 19  1  1  0  0  0
 18 24  1  0  0  0  0
 18 30  1  0  0  0  0
 20 21  1  0  0  0  0
 20 26  1  1  0  0  0
 22 23  1  1  0  0  0
 22 28  1  0  0  0  0
 24 25  1  0  0  0  0
 26 27  1  0  0  0  0
 28 29  1  6  0  0  0
M  END
>  <CHROM.1>
-169.69062083,-148.96585859,-89.65071432,-163.09199766,-102.76899090,91.56522110
-22.07292188,-14.57625614,-14.38455820,-0.73240160,-0.52944112,0.00664628

>  <Name>
ligand

>  <RI>
0

>  <Rbt.Current_Directory>
/home/itssahil/PROJECTS/Mol_Feturizer/New_Systems/rnas/4GPW

>  <Rbt.Executable>
rbdock ($Id: //depot/dev/client3/rdock/2013.1/src/exe/rbdock.cxx#4 $)

>  <Rbt.Library>
libRbt.so (2013.1, Build901 2013/11/27)

>  <Rbt.Parameter_File>
/export/apps/rDock/src/rDock_2013.1_src/data/scripts/dock_solv.prm

>  <Rbt.Receptor>
prm/pocket_docking_3.prm

>  <SCORE>
-20.1176

>  <SCORE.INTER>
-16.5971

>  <SCORE.INTER.CONST>
1

>  <SCORE.INTER.POLAR>
0

>  <SCORE.INTER.ROT>
6

>  <SCORE.INTER.SOLV>
16.581

>  <SCORE.INTER.VDW>
-24.1917

>  <SCORE.INTER.norm>
-0.535391

>  <SCORE.INTRA>
-3.52047

>  <SCORE.INTRA.DIHEDRAL>
-7.09467

>  <SCORE.INTRA.DIHEDRAL.0>
19.2558

>  <SCORE.INTRA.POLAR>
0

>  <SCORE.INTRA.POLAR.0>
0

>  <SCORE.INTRA.REPUL>
0

>  <SCORE.INTRA.REPUL.0>
0

>  <SCORE.INTRA.SOLV>
-1.03014

>  <SCORE.INTRA.SOLV.lig_0>
-64.5929

>  <SCORE.INTRA.VDW>
0.541933

>  <SCORE.INTRA.VDW.0>
-4.40538

>  <SCORE.INTRA.norm>
-0.113564

>  <SCORE.RESTR>
0

>  <SCORE.RESTR.CAVITY>
0

>  <SCORE.RESTR.norm>
0

>  <SCORE.SYSTEM>
0

>  <SCORE.SYSTEM.CONST>
0

>  <SCORE.SYSTEM.DIHEDRAL>
0

>  <SCORE.SYSTEM.SOLV>
0

>  <SCORE.SYSTEM.norm>
0

>  <SCORE.heavy>
31

>  <SCORE.norm>
-0.648955

>  <RMSD>
0.662

$$$$
ligand
 OpenBabel11021811493D
libRbt.so/2013.1/901 2013/11/27
 31 33  0  0  0  0  0  0  0  0999 V2000
  -19.2822  -15.5715  -12.7993 C   0  0  2  0  0  0  0  0  0  0  0  0
  -19.8458  -16.2169  -13.9317 O   0  0  0  0  0  0  0  0  0  0  0  0
  -23.6134  -16.3661  -15.9210 C   0  0  2  0  0  0  0  0  0  0  0  0
  -25.0168  -16.5317  -16.1222 N   0  0  0  0  0  0  0  0  0  0  0  0
  -25.1908  -13.4103  -15.1338 C   0  0  2  0  0  0  0  0  0  0  0  0
  -17.7432  -15.3530  -13.1095 C   0  0  2  0  0  0  0  0  0  0  0  0
  -17.6049  -14.5336  -14.3224 N   0  0  0  0  0  0  0  0  0  0  0  0
  -23.0265  -17.7233  -15.3349 C   0  0  0  0  0  0  0  0  0  0  0  0
  -25.5240  -12.4622  -16.3330 C   0  0  2  0  0  0  0  0  0  0  0  0
  -25.4566  -13.2187  -17.5188 O   0  0  0  0  0  0  0  0  0  0  0  0
  -17.0303  -16.7517  -13.2889 C   0  0  0  0  0  0  0  0  0  0  0  0
  -21.4570  -17.5422  -15.1158 C   0  0  2  0  0  0  0  0  0  0  0  0
  -20.8895  -18.7965  -14.5754 N   0  0  0  0  0  0  0  0  0  0  0  0
  -24.4895  -11.2611  -16.3551 C   0  0  1  0  0  0  0  0  0  0  0  0
  -24.7925  -10.3379  -17.5068 N   0  0  0  0  0  0  0  0  0  0  0  0
  -17.5481  -17.8324  -12.2515 C   0  0  0  0  0  0  0  0  0  0  0  0
  -21.2136  -16.3587  -14.0914 C   0  0  2  0  0  0  0  0  0  0  0  0
  -24.6120  -10.4273  -14.9634 C   0  0  1  0  0  0  0  0  0  0  0  0
  -25.8933   -9.8658  -14.7624 O   0  0  0  0  0  0  0  0  0  0  0  0
  -18.6520  -17.6087  -11.5030 C   0  0  2  0  0  0  0  0  0  0  0  0
  -19.4117  -16.3991  -11.5958 O   0  0  0  0  0  0  0  0  0  0  0  0
  -21.8209  -15.0205  -14.6815 C   0  0  2  0  0  0  0  0  0  0  0  0
  -21.6056  -13.9534  -13.7429 O   0  0  0  0  0  0  0  0  0  0  0  0
  -24.3036  -11.3955  -13.7732 C   0  0  0  0  0  0  0  0  0  0  0  0
  -25.2147  -12.6198  -13.8383 O   0  0  0  0  0  0  0  0  0  0  0  0
  -19.1792  -18.6258  -10.4919 C   0  0  0  0  0  0  0  0  0  0  0  0
  -20.3538  -19.2368  -11.0479 O   0  0  0  0  0  0  0  0  0  0  0  0
  -23.3760  -15.1952  -14.9009 C   0  0  1  0  0  0  0  0  0  0  0  0
  -23.8787  -13.9848  -15.4403 O   0  0  0  0  0  0  0  0  0  0  0  0
  -23.6431   -9.2317  -14.8415 C   0  0  0  0  0  0  0  0  0  0  0  0
  -24.1515  -10.6649  -18.7968 C   0  0  0  0  0  0  0  0  0  0  0  0
  1  2  1  6  0  0  0
  1  6  1  0  0  0  0
  1 21  1  0  0  0  0
  3  4  1  1  0  0  0
  3  8  1  0  0  0  0
  3 28  1  0  0  0  0
  5  9  1  0  0  0  0
  5 25  1  0  0  0  0
  5 29  1  6  0  0  0
  6  7  1  6  0  0  0
  6 11  1  0  0  0  0
  8 12  1  0  0  0  0
  9 10  1  6  0  0  0
  9 14  1  0  0  0  0
 11 16  1  0  0  0  0
 12 13  1  1  0  0  0
 12 17  1  0  0  0  0
 14 15  1  6  0  0  0
 14 18  1  0  0  0  0
 15 31  1  0  0  0  0
 16 20  1  0  0  0  0
 17  2  1  6  0  0  0
 17 22  1  0  0  0  0
 18 19  1  1  0  0  0
 18 24  1  0  0  0  0
 18 30  1  0  0  0  0
 20 21  1  0  0  0  0
 20 26  1  1  0  0  0
 22 23  1  1  0  0  0
 22 28  1  0  0  0  0
 24 25  1  0  0  0  0
 26 27  1  0  0  0  0
 28 29  1  6  0  0  0
M  END
>  <CHROM.1>
-169.06568686,-157.82201032,-88.28677985,-159.27490773,-105.68411965,97.47140216
-22.14324687,-14.63968678,-14.44381415,-0.72990196,-0.52763959,-0.01745438

>  <Name>
ligand

>  <RI>
0

>  <Rbt.Current_Directory>
/home/itssahil/PROJECTS/Mol_Feturizer/New_Systems/rnas/4GPW

>  <Rbt.Executable>
rbdock ($Id: //depot/dev/client3/rdock/2013.1/src/exe/rbdock.cxx#4 $)

>  <Rbt.Library>
libRbt.so (2013.1, Build901 2013/11/27)

>  <Rbt.Parameter_File>
/export/apps/rDock/src/rDock_2013.1_src/data/scripts/dock_solv.prm

>  <Rbt.Receptor>
prm/pocket_docking_7.prm

>  <SCORE>
-20.1005

>  <SCORE.INTER>
-16.4541

>  <SCORE.INTER.CONST>
1

>  <SCORE.INTER.POLAR>
0

>  <SCORE.INTER.ROT>
6

>  <SCORE.INTER.SOLV>
16.5869

>  <SCORE.INTER.VDW>
-24.0984

>  <SCORE.INTER.norm>
-0.530779

>  <SCORE.INTRA>
-3.64633

>  <SCORE.INTRA.DIHEDRAL>
-7.13825

>  <SCORE.INTRA.DIHEDRAL.0>
19.2558

>  <SCORE.INTRA.POLAR>
0

>  <SCORE.INTRA.POLAR.0>
0

>  <SCORE.INTRA.REPUL>
0

>  <SCORE.INTRA.REPUL.0>
0

>  <SCORE.INTRA.SOLV>
-0.904469

>  <SCORE.INTRA.SOLV.lig_0>
-64.5929

>  <SCORE.INTRA.VDW>
0.375033

>  <SCORE.INTRA.VDW.0>
-4.40538

>  <SCORE.INTRA.norm>
-0.117623

>  <SCORE.RESTR>
0

>  <SCORE.RESTR.CAVITY>
0

>  <SCORE.RESTR.norm>
0

>  <SCORE.SYSTEM>
0

>  <SCORE.SYSTEM.CONST>
0

>  <SCORE.SYSTEM.DIHEDRAL>
0

>  <SCORE.SYSTEM.SOLV>
0

>  <SCORE.SYSTEM.norm>
0

>  <SCORE.heavy>
31

>  <SCORE.norm>
-0.648402

>  <RMSD>
0.662

$$$$
ligand
 OpenBabel11021811493D
libRbt.so/2013.1/901 2013/11/27
 31 33  0  0  0  0  0  0  0  0999 V2000
  -19.1592  -15.5641  -12.7311 C   0  0  2  0  0  0  0  0  0  0  0  0
  -19.7721  -16.1579  -13.8661 O   0  0  0  0  0  0  0  0  0  0  0  0
  -23.5600  -15.7731  -15.7842 C   0  0  2  0  0  0  0  0  0  0  0  0
  -24.9722  -15.8272  -15.9843 N   0  0  0  0  0  0  0  0  0  0  0  0
  -25.0300  -12.9701  -14.6540 C   0  0  2  0  0  0  0  0  0  0  0  0
  -17.6175  -15.4096  -13.0655 C   0  0  2  0  0  0  0  0  0  0  0  0
  -17.4632  -14.5709  -14.2632 N   0  0  0  0  0  0  0  0  0  0  0  0
  -23.0450  -17.2381  -15.4400 C   0  0  0  0  0  0  0  0  0  0  0  0
  -25.4501  -12.2246  -15.9640 C   0  0  2  0  0  0  0  0  0  0  0  0
  -25.3512  -13.1342  -17.0343 O   0  0  0  0  0  0  0  0  0  0  0  0
  -16.9733  -16.8352  -13.2879 C   0  0  0  0  0  0  0  0  0  0  0  0
  -21.4658  -17.1805  -15.2227 C   0  0  2  0  0  0  0  0  0  0  0  0
  -20.9648  -18.5356  -14.9063 N   0  0  0  0  0  0  0  0  0  0  0  0
  -24.5027  -10.9722  -16.1814 C   0  0  1  0  0  0  0  0  0  0  0  0
  -24.8900  -10.2426  -17.4417 N   0  0  0  0  0  0  0  0  0  0  0  0
  -17.5219  -17.9136  -12.2640 C   0  0  0  0  0  0  0  0  0  0  0  0
  -21.1471  -16.1975  -14.0221 C   0  0  2  0  0  0  0  0  0  0  0  0
  -24.6584   -9.9608  -14.9165 C   0  0  1  0  0  0  0  0  0  0  0  0
  -25.9720   -9.4634  -14.7605 O   0  0  0  0  0  0  0  0  0  0  0  0
  -18.6008  -17.6561  -11.4904 C   0  0  2  0  0  0  0  0  0  0  0  0
  -19.3053  -16.4112  -11.5432 O   0  0  0  0  0  0  0  0  0  0  0  0
  -21.6835  -14.7494  -14.3729 C   0  0  2  0  0  0  0  0  0  0  0  0
  -21.4002  -13.8652  -13.2757 O   0  0  0  0  0  0  0  0  0  0  0  0
  -24.2619  -10.7291  -13.6120 C   0  0  0  0  0  0  0  0  0  0  0  0
  -25.0861  -12.0085  -13.4811 O   0  0  0  0  0  0  0  0  0  0  0  0
  -19.1562  -18.6700  -10.4912 C   0  0  0  0  0  0  0  0  0  0  0  0
  -20.3505  -19.2372  -11.0517 O   0  0  0  0  0  0  0  0  0  0  0  0
  -23.2479  -14.8013  -14.5898 C   0  0  1  0  0  0  0  0  0  0  0  0
  -23.6866  -13.4931  -14.9135 O   0  0  0  0  0  0  0  0  0  0  0  0
  -23.7735   -8.6980  -14.9889 C   0  0  0  0  0  0  0  0  0  0  0  0
  -24.2083  -10.6663  -18.6817 C   0  0  0  0  0  0  0  0  0  0  0  0
  1  2  1  6  0  0  0
  1  6  1  0  0  0  0
  1 21  1  0  0  0  0
  3  4  1  1  0  0  0
  3  8  1  0  0  0  0
  3 28  1  0  0  0  0
  5  9  1  0  0  0  0
  5 25  1  0  0  0  0
  5 29  1  6  0  0  0
  6  7  1  6  0  0  0
  6 11  1  0  0  0  0
  8 12  1  0  0  0  0
  9 10  1  6  0  0  0
  9 14  1  0  0  0  0
 11 16  1  0  0  0  0
 12 13  1  1  0  0  0
 12 17  1  0  0  0  0
 14 15  1  6  0  0  0
 14 18  1  0  0  0  0
 15 31  1  0  0  0  0
 16 20  1  0  0  0  0
 17  2  1  6  0  0  0
 17 22  1  0  0  0  0
 18 19  1  1  0  0  0
 18 24  1  0  0  0  0
 18 30  1  0  0  0  0
 20 21  1  0  0  0  0
 20 26  1  1  0  0  0
 22 23  1  1  0  0  0
 22 28  1  0  0  0  0
 24 25  1  0  0  0  0
 26 27  1  0  0  0  0
 28 29  1  6  0  0  0
M  END
>  <CHROM.1>
-167.07692516,-135.22926521,-90.78803765,-168.43452354,-104.34868108,88.58576657
-22.09295303,-14.40468325,-14.31801420,-0.72609807,-0.54628505,0.05067672

>  <Name>
ligand

>  <RI>
0

>  <Rbt.Current_Directory>
/home/itssahil/PROJECTS/Mol_Feturizer/New_Systems/rnas/4GPW

>  <Rbt.Executable>
rbdock ($Id: //depot/dev/client3/rdock/2013.1/src/exe/rbdock.cxx#4 $)

>  <Rbt.Library>
libRbt.so (2013.1, Build901 2013/11/27)

>  <Rbt.Parameter_File>
/export/apps/rDock/src/rDock_2013.1_src/data/scripts/dock_solv.prm

>  <Rbt.Receptor>
prm/pocket_docking_2.prm

>  <SCORE>
-19.9917

>  <SCORE.INTER>
-17.2645

>  <SCORE.INTER.CONST>
1

>  <SCORE.INTER.POLAR>
0

>  <SCORE.INTER.ROT>
6

>  <SCORE.INTER.SOLV>
16.5644

>  <SCORE.INTER.VDW>
-24.6311

>  <SCORE.INTER.norm>
-0.55692

>  <SCORE.INTRA>
-2.72714

>  <SCORE.INTRA.DIHEDRAL>
-5.75763

>  <SCORE.INTRA.DIHEDRAL.0>
19.2558

>  <SCORE.INTRA.POLAR>
0

>  <SCORE.INTRA.POLAR.0>
0

>  <SCORE.INTRA.REPUL>
0

>  <SCORE.INTRA.REPUL.0>
0

>  <SCORE.INTRA.SOLV>
-1.04547

>  <SCORE.INTRA.SOLV.lig_0>
-64.5929

>  <SCORE.INTRA.VDW>
0.674409

>  <SCORE.INTRA.VDW.0>
-4.40538

>  <SCORE.INTRA.norm>
-0.0879724

>  <SCORE.RESTR>
0

>  <SCORE.RESTR.CAVITY>
0

>  <SCORE.RESTR.norm>
0

>  <SCORE.SYSTEM>
0

>  <SCORE.SYSTEM.CONST>
0

>  <SCORE.SYSTEM.DIHEDRAL>
0

>  <SCORE.SYSTEM.SOLV>
0

>  <SCORE.SYSTEM.norm>
0

>  <SCORE.heavy>
31

>  <SCORE.norm>
-0.644892

>  <RMSD>
0.663

$$$$
ligand
 OpenBabel11021811493D
libRbt.so/2013.1/901 2013/11/27
 31 33  0  0  0  0  0  0  0  0999 V2000
  -19.2254  -15.5232  -12.8447 C   0  0  2  0  0  0  0  0  0  0  0  0
  -19.8123  -16.1788  -13.9593 O   0  0  0  0  0  0  0  0  0  0  0  0
  -23.6116  -16.2933  -15.8898 C   0  0  2  0  0  0  0  0  0  0  0  0
  -25.0194  -16.4453  -16.0690 N   0  0  0  0  0  0  0  0  0  0  0  0
  -25.1706  -13.3504  -15.1259 C   0  0  2  0  0  0  0  0  0  0  0  0
  -17.6872  -15.3335  -13.1766 C   0  0  2  0  0  0  0  0  0  0  0  0
  -17.5512  -14.5367  -14.4048 N   0  0  0  0  0  0  0  0  0  0  0  0
  -23.0289  -17.6555  -15.3113 C   0  0  0  0  0  0  0  0  0  0  0  0
  -25.5034  -12.4258  -16.3435 C   0  0  2  0  0  0  0  0  0  0  0  0
  -25.4098  -13.1989  -17.5166 O   0  0  0  0  0  0  0  0  0  0  0  0
  -16.9977  -16.7457  -13.3406 C   0  0  0  0  0  0  0  0  0  0  0  0
  -21.4544  -17.4895  -15.1168 C   0  0  2  0  0  0  0  0  0  0  0  0
  -20.8909  -18.7487  -14.5839 N   0  0  0  0  0  0  0  0  0  0  0  0
  -24.4873  -11.2093  -16.3713 C   0  0  1  0  0  0  0  0  0  0  0  0
  -24.7900  -10.3083  -17.5406 N   0  0  0  0  0  0  0  0  0  0  0  0
  -17.5192  -17.8008  -12.2790 C   0  0  0  0  0  0  0  0  0  0  0  0
  -21.1837  -16.3075  -14.0976 C   0  0  2  0  0  0  0  0  0  0  0  0
  -24.6398  -10.3565  -14.9940 C   0  0  1  0  0  0  0  0  0  0  0  0
  -25.9318   -9.8119  -14.8173 O   0  0  0  0  0  0  0  0  0  0  0  0
  -18.6105  -17.5477  -11.5216 C   0  0  2  0  0  0  0  0  0  0  0  0
  -19.3529  -16.3284  -11.6259 O   0  0  0  0  0  0  0  0  0  0  0  0
  -21.7870  -14.9640  -14.6797 C   0  0  2  0  0  0  0  0  0  0  0  0
  -21.5468  -13.8982  -13.7457 O   0  0  0  0  0  0  0  0  0  0  0  0
  -24.3314  -11.3017  -13.7855 C   0  0  0  0  0  0  0  0  0  0  0  0
  -25.2227  -12.5409  -13.8430 O   0  0  0  0  0  0  0  0  0  0  0  0
  -19.1407  -18.5396  -10.4871 C   0  0  0  0  0  0  0  0  0  0  0  0
  -20.3168  -19.1602  -11.0292 O   0  0  0  0  0  0  0  0  0  0  0  0
  -23.3470  -15.1237  -14.8747 C   0  0  1  0  0  0  0  0  0  0  0  0
  -23.8461  -13.9090  -15.4076 O   0  0  0  0  0  0  0  0  0  0  0  0
  -23.6909   -9.1443  -14.8787 C   0  0  0  0  0  0  0  0  0  0  0  0
  -24.1103  -10.6311  -18.8116 C   0  0  0  0  0  0  0  0  0  0  0  0
  1  2  1  6  0  0  0
  1  6  1  0  0  0  0
  1 21  1  0  0  0  0
  3  4  1  1  0  0  0
  3  8  1  0  0  0  0
  3 28  1  0  0  0  0
  5  9  1  0  0  0  0
  5 25  1  0  0  0  0
  5 29  1  6  0  0  0
  6  7  1  6  0  0  0
  6 11  1  0  0  0  0
  8 12  1  0  0  0  0
  9 10  1  6  0  0  0
  9 14  1  0  0  0  0
 11 16  1  0  0  0  0
 12 13  1  1  0  0  0
 12 17  1  0  0  0  0
 14 15  1  6  0  0  0
 14 18  1  0  0  0  0
 15 31  1  0  0  0  0
 16 20  1  0  0  0  0
 17  2  1  6  0  0  0
 17 22  1  0  0  0  0
 18 19  1  1  0  0  0
 18 24  1  0  0  0  0
 18 30  1  0  0  0  0
 20 21  1  0  0  0  0
 20 26  1  1  0  0  0
 22 23  1  1  0  0  0
 22 28  1  0  0  0  0
 24 25  1  0  0  0  0
 26 27  1  0  0  0  0
 28 29  1  6  0  0  0
M  END
>  <CHROM.1>
-169.34885613,-155.83836784,-89.29001071,-160.07642379,-104.61886889,94.71397758
-22.12356380,-14.58506726,-14.45604842,-0.73485321,-0.51194485,-0.03027596

>  <Name>
ligand

>  <RI>
0

>  <Rbt.Current_Directory>
/home/itssahil/PROJECTS/Mol_Feturizer/New_Systems/rnas/4GPW

>  <Rbt.Executable>
rbdock ($Id: //depot/dev/client3/rdock/2013.1/src/exe/rbdock.cxx#4 $)

>  <Rbt.Library>
libRbt.so (2013.1, Build901 2013/11/27)

>  <Rbt.Parameter_File>
/export/apps/rDock/src/rDock_2013.1_src/data/scripts/dock_solv.prm

>  <Rbt.Receptor>
prm/pocket_docking_2.prm

>  <SCORE>
-20.2655

>  <SCORE.INTER>
-16.5462

>  <SCORE.INTER.CONST>
1

>  <SCORE.INTER.POLAR>
0

>  <SCORE.INTER.ROT>
6

>  <SCORE.INTER.SOLV>
16.4996

>  <SCORE.INTER.VDW>
-24.1307

>  <SCORE.INTER.norm>
-0.533749

>  <SCORE.INTRA>
-3.71924

>  <SCORE.INTRA.DIHEDRAL>
-7.37146

>  <SCORE.INTRA.DIHEDRAL.0>
19.2558

>  <SCORE.INTRA.POLAR>
0

>  <SCORE.INTRA.POLAR.0>
0

>  <SCORE.INTRA.REPUL>
0

>  <SCORE.INTRA.REPUL.0>
0

>  <SCORE.INTRA.SOLV>
-0.931192

>  <SCORE.INTRA.SOLV.lig_0>
-64.5929

>  <SCORE.INTRA.VDW>
0.432087

>  <SCORE.INTRA.VDW.0>
-4.40538

>  <SCORE.INTRA.norm>
-0.119975

>  <SCORE.RESTR>
0

>  <SCORE.RESTR.CAVITY>
0

>  <SCORE.RESTR.norm>
0

>  <SCORE.SYSTEM>
0

>  <SCORE.SYSTEM.CONST>
0

>  <SCORE.SYSTEM.DIHEDRAL>
0

>  <SCORE.SYSTEM.SOLV>
0

>  <SCORE.SYSTEM.norm>
0

>  <SCORE.heavy>
31

>  <SCORE.norm>
-0.653724

>  <RMSD>
0.663

$$$$
ligand
 OpenBabel11021811493D
libRbt.so/2013.1/901 2013/11/27
 31 33  0  0  0  0  0  0  0  0999 V2000
  -19.2331  -15.5518  -12.8800 C   0  0  2  0  0  0  0  0  0  0  0  0
  -19.8267  -16.2307  -13.9769 O   0  0  0  0  0  0  0  0  0  0  0  0
  -23.6268  -16.2926  -15.9083 C   0  0  2  0  0  0  0  0  0  0  0  0
  -25.0364  -16.4273  -16.0882 N   0  0  0  0  0  0  0  0  0  0  0  0
  -25.1620  -13.3491  -15.1562 C   0  0  2  0  0  0  0  0  0  0  0  0
  -17.6971  -15.3684  -13.2257 C   0  0  2  0  0  0  0  0  0  0  0  0
  -17.5694  -14.5973  -14.4711 N   0  0  0  0  0  0  0  0  0  0  0  0
  -23.0603  -17.6640  -15.3351 C   0  0  0  0  0  0  0  0  0  0  0  0
  -25.4655  -12.4064  -16.3676 C   0  0  2  0  0  0  0  0  0  0  0  0
  -25.3482  -13.1632  -17.5492 O   0  0  0  0  0  0  0  0  0  0  0  0
  -17.0079  -16.7834  -13.3647 C   0  0  0  0  0  0  0  0  0  0  0  0
  -21.4841  -17.5173  -15.1399 C   0  0  2  0  0  0  0  0  0  0  0  0
  -20.9355  -18.7852  -14.6119 N   0  0  0  0  0  0  0  0  0  0  0  0
  -24.4456  -11.1927  -16.3559 C   0  0  1  0  0  0  0  0  0  0  0  0
  -24.7201  -10.2745  -17.5187 N   0  0  0  0  0  0  0  0  0  0  0  0
  -17.5220  -17.8164  -12.2780 C   0  0  0  0  0  0  0  0  0  0  0  0
  -21.1995  -16.3427  -14.1159 C   0  0  2  0  0  0  0  0  0  0  0  0
  -24.6260  -10.3589  -14.9704 C   0  0  1  0  0  0  0  0  0  0  0  0
  -25.9202   -9.8130  -14.8144 O   0  0  0  0  0  0  0  0  0  0  0  0
  -18.6086  -17.5480  -11.5190 C   0  0  2  0  0  0  0  0  0  0  0  0
  -19.3523  -16.3314  -11.6440 O   0  0  0  0  0  0  0  0  0  0  0  0
  -21.7869  -14.9898  -14.6927 C   0  0  2  0  0  0  0  0  0  0  0  0
  -21.5343  -13.9306  -13.7545 O   0  0  0  0  0  0  0  0  0  0  0  0
  -24.3469  -11.3220  -13.7689 C   0  0  0  0  0  0  0  0  0  0  0  0
  -25.2401  -12.5575  -13.8635 O   0  0  0  0  0  0  0  0  0  0  0  0
  -19.1316  -18.5183  -10.4607 C   0  0  0  0  0  0  0  0  0  0  0  0
  -20.2941  -19.1718  -10.9934 O   0  0  0  0  0  0  0  0  0  0  0  0
  -23.3486  -15.1303  -14.8886 C   0  0  1  0  0  0  0  0  0  0  0  0
  -23.8333  -13.9077  -15.4166 O   0  0  0  0  0  0  0  0  0  0  0  0
  -23.6766   -9.1514  -14.8171 C   0  0  0  0  0  0  0  0  0  0  0  0
  -24.0563  -10.6132  -18.7940 C   0  0  0  0  0  0  0  0  0  0  0  0
  1  2  1  6  0  0  0
  1  6  1  0  0  0  0
  1 21  1  0  0  0  0
  3  4  1  1  0  0  0
  3  8  1  0  0  0  0
  3 28  1  0  0  0  0
  5  9  1  0  0  0  0
  5 25  1  0  0  0  0
  5 29  1  6  0  0  0
  6  7  1  6  0  0  0
  6 11  1  0  0  0  0
  8 12  1  0  0  0  0
  9 10  1  6  0  0  0
  9 14  1  0  0  0  0
 11 16  1  0  0  0  0
 12 13  1  1  0  0  0
 12 17  1  0  0  0  0
 14 15  1  6  0  0  0
 14 18  1  0  0  0  0
 15 31  1  0  0  0  0
 16 20  1  0  0  0  0
 17  2  1  6  0  0  0
 17 22  1  0  0  0  0
 18 19  1  1  0  0  0
 18 24  1  0  0  0  0
 18 30  1  0  0  0  0
 20 21  1  0  0  0  0
 20 26  1  1  0  0  0
 22 23  1  1  0  0  0
 22 28  1  0  0  0  0
 24 25  1  0  0  0  0
 26 27  1  0  0  0  0
 28 29  1  6  0  0  0
M  END
>  <CHROM.1>
-168.19706873,-155.93822996,-86.89474437,-161.99436507,-103.39399564,93.30290563
-22.11920425,-14.59464532,-14.46435443,-0.73709690,-0.51649379,-0.02484410

>  <Name>
ligand

>  <RI>
0

>  <Rbt.Current_Directory>
/home/itssahil/PROJECTS/Mol_Feturizer/New_Systems/rnas/4GPW

>  <Rbt.Executable>
rbdock ($Id: //depot/dev/client3/rdock/2013.1/src/exe/rbdock.cxx#4 $)

>  <Rbt.Library>
libRbt.so (2013.1, Build901 2013/11/27)

>  <Rbt.Parameter_File>
/export/apps/rDock/src/rDock_2013.1_src/data/scripts/dock_solv.prm

>  <Rbt.Receptor>
prm/pocket_docking_2.prm

>  <SCORE>
-20.2943

>  <SCORE.INTER>
-16.3673

>  <SCORE.INTER.CONST>
1

>  <SCORE.INTER.POLAR>
0

>  <SCORE.INTER.ROT>
6

>  <SCORE.INTER.SOLV>
16.437

>  <SCORE.INTER.VDW>
-23.9905

>  <SCORE.INTER.norm>
-0.527977

>  <SCORE.INTRA>
-3.92699

>  <SCORE.INTRA.DIHEDRAL>
-7.86

>  <SCORE.INTRA.DIHEDRAL.0>
19.2558

>  <SCORE.INTRA.POLAR>
0

>  <SCORE.INTRA.POLAR.0>
0

>  <SCORE.INTRA.REPUL>
0

>  <SCORE.INTRA.REPUL.0>
0

>  <SCORE.INTRA.SOLV>
-1.12054

>  <SCORE.INTRA.SOLV.lig_0>
-64.5929

>  <SCORE.INTRA.VDW>
0.563284

>  <SCORE.INTRA.VDW.0>
-4.40538

>  <SCORE.INTRA.norm>
-0.126677

>  <SCORE.RESTR>
0

>  <SCORE.RESTR.CAVITY>
0

>  <SCORE.RESTR.norm>
0

>  <SCORE.SYSTEM>
0

>  <SCORE.SYSTEM.CONST>
0

>  <SCORE.SYSTEM.DIHEDRAL>
0

>  <SCORE.SYSTEM.SOLV>
0

>  <SCORE.SYSTEM.norm>
0

>  <SCORE.heavy>
31

>  <SCORE.norm>
-0.654654

>  <RMSD>
0.665

$$$$
ligand
 OpenBabel11021811493D
libRbt.so/2013.1/901 2013/11/27
 31 33  0  0  0  0  0  0  0  0999 V2000
  -19.1740  -15.5477  -12.8584 C   0  0  2  0  0  0  0  0  0  0  0  0
  -19.7748  -16.1926  -13.9719 O   0  0  0  0  0  0  0  0  0  0  0  0
  -23.5950  -16.2881  -15.8617 C   0  0  2  0  0  0  0  0  0  0  0  0
  -25.0051  -16.4356  -16.0264 N   0  0  0  0  0  0  0  0  0  0  0  0
  -25.1382  -13.3454  -15.0689 C   0  0  2  0  0  0  0  0  0  0  0  0
  -17.6333  -15.3857  -13.1935 C   0  0  2  0  0  0  0  0  0  0  0  0
  -17.4855  -14.5914  -14.4219 N   0  0  0  0  0  0  0  0  0  0  0  0
  -23.0098  -17.6546  -15.2957 C   0  0  0  0  0  0  0  0  0  0  0  0
  -25.4878  -12.4266  -16.2862 C   0  0  2  0  0  0  0  0  0  0  0  0
  -25.4105  -13.2053  -17.4568 O   0  0  0  0  0  0  0  0  0  0  0  0
  -16.9696  -16.8100  -13.3590 C   0  0  0  0  0  0  0  0  0  0  0  0
  -21.4329  -17.4936  -15.1175 C   0  0  2  0  0  0  0  0  0  0  0  0
  -20.8671  -18.7568  -14.5964 N   0  0  0  0  0  0  0  0  0  0  0  0
  -24.4721  -11.2103  -16.3340 C   0  0  1  0  0  0  0  0  0  0  0  0
  -24.7910  -10.3150  -17.5033 N   0  0  0  0  0  0  0  0  0  0  0  0
  -17.5078  -17.8557  -12.2963 C   0  0  0  0  0  0  0  0  0  0  0  0
  -21.1480  -16.3170  -14.0960 C   0  0  2  0  0  0  0  0  0  0  0  0
  -24.6055  -10.3509  -14.9589 C   0  0  1  0  0  0  0  0  0  0  0  0
  -25.8950   -9.8054  -14.7668 O   0  0  0  0  0  0  0  0  0  0  0  0
  -18.5928  -17.5831  -11.5366 C   0  0  2  0  0  0  0  0  0  0  0  0
  -19.3135  -16.3506  -11.6395 O   0  0  0  0  0  0  0  0  0  0  0  0
  -21.7539  -14.9692  -14.6654 C   0  0  2  0  0  0  0  0  0  0  0  0
  -21.5008  -13.9084  -13.7293 O   0  0  0  0  0  0  0  0  0  0  0  0
  -24.2805  -11.2903  -13.7502 C   0  0  0  0  0  0  0  0  0  0  0  0
  -25.1725  -12.5297  -13.7894 O   0  0  0  0  0  0  0  0  0  0  0  0
  -19.1387  -18.5653  -10.5012 C   0  0  0  0  0  0  0  0  0  0  0  0
  -20.3250  -19.1671  -11.0422 O   0  0  0  0  0  0  0  0  0  0  0  0
  -23.3163  -15.1239  -14.8443 C   0  0  1  0  0  0  0  0  0  0  0  0
  -23.8179  -13.9055  -15.3662 O   0  0  0  0  0  0  0  0  0  0  0  0
  -23.6551   -9.1383  -14.8625 C   0  0  0  0  0  0  0  0  0  0  0  0
  -24.0580  -10.5857  -18.7567 C   0  0  0  0  0  0  0  0  0  0  0  0
  1  2  1  6  0  0  0
  1  6  1  0  0  0  0
  1 21  1  0  0  0  0
  3  4  1  1  0  0  0
  3  8  1  0  0  0  0
  3 28  1  0  0  0  0
  5  9  1  0  0  0  0
  5 25  1  0  0  0  0
  5 29  1  6  0  0  0
  6  7  1  6  0  0  0
  6 11  1  0  0  0  0
  8 12  1  0  0  0  0
  9 10  1  6  0  0  0
  9 14  1  0  0  0  0
 11 16  1  0  0  0  0
 12 13  1  1  0  0  0
 12 17  1  0  0  0  0
 14 15  1  6  0  0  0
 14 18  1  0  0  0  0
 15 31  1  0  0  0  0
 16 20  1  0  0  0  0
 17  2  1  6  0  0  0
 17 22  1  0  0  0  0
 18 19  1  1  0  0  0
 18 24  1  0  0  0  0
 18 30  1  0  0  0  0
 20 21  1  0  0  0  0
 20 26  1  1  0  0  0
 22 23  1  1  0  0  0
 22 28  1  0  0  0  0
 24 25  1  0  0  0  0
 26 27  1  0  0  0  0
 28 29  1  6  0  0  0
M  END
>  <CHROM.1>
-170.48937457,-155.21530836,-93.42084860,-159.85506770,-104.47927405,94.64048474
-22.09484576,-14.59432357,-14.43904828,-0.74286866,-0.49889128,-0.03567336

>  <Name>
ligand

>  <RI>
0

>  <Rbt.Current_Directory>
/home/itssahil/PROJECTS/Mol_Feturizer/New_Systems/rnas/4GPW

>  <Rbt.Executable>
rbdock ($Id: //depot/dev/client3/rdock/2013.1/src/exe/rbdock.cxx#4 $)

>  <Rbt.Library>
libRbt.so (2013.1, Build901 2013/11/27)

>  <Rbt.Parameter_File>
/export/apps/rDock/src/rDock_2013.1_src/data/scripts/dock_solv.prm

>  <Rbt.Receptor>
prm/pocket_docking_4.prm

>  <SCORE>
-20.1451

>  <SCORE.INTER>
-16.43

>  <SCORE.INTER.CONST>
1

>  <SCORE.INTER.POLAR>
0

>  <SCORE.INTER.ROT>
6

>  <SCORE.INTER.SOLV>
16.4754

>  <SCORE.INTER.VDW>
-24.0452

>  <SCORE.INTER.norm>
-0.530001

>  <SCORE.INTRA>
-3.7151

>  <SCORE.INTRA.DIHEDRAL>
-7.21006

>  <SCORE.INTRA.DIHEDRAL.0>
19.2558

>  <SCORE.INTRA.POLAR>
0

>  <SCORE.INTRA.POLAR.0>
0

>  <SCORE.INTRA.REPUL>
0

>  <SCORE.INTRA.REPUL.0>
0

>  <SCORE.INTRA.SOLV>
-0.910767

>  <SCORE.INTRA.SOLV.lig_0>
-64.5929

>  <SCORE.INTRA.VDW>
0.345316

>  <SCORE.INTRA.VDW.0>
-4.40538

>  <SCORE.INTRA.norm>
-0.119842

>  <SCORE.RESTR>
0

>  <SCORE.RESTR.CAVITY>
0

>  <SCORE.RESTR.norm>
0

>  <SCORE.SYSTEM>
0

>  <SCORE.SYSTEM.CONST>
0

>  <SCORE.SYSTEM.DIHEDRAL>
0

>  <SCORE.SYSTEM.SOLV>
0

>  <SCORE.SYSTEM.norm>
0

>  <SCORE.heavy>
31

>  <SCORE.norm>
-0.649843

>  <RMSD>
0.665

$$$$
ligand
 OpenBabel11021811493D
libRbt.so/2013.1/901 2013/11/27
 31 33  0  0  0  0  0  0  0  0999 V2000
  -19.2901  -15.6373  -12.5816 C   0  0  2  0  0  0  0  0  0  0  0  0
  -19.8383  -16.0606  -13.8213 O   0  0  0  0  0  0  0  0  0  0  0  0
  -23.5674  -16.2694  -15.8767 C   0  0  2  0  0  0  0  0  0  0  0  0
  -24.9644  -16.4563  -16.1023 N   0  0  0  0  0  0  0  0  0  0  0  0
  -25.1986  -13.3311  -15.1148 C   0  0  2  0  0  0  0  0  0  0  0  0
  -17.7633  -15.3004  -12.8417 C   0  0  2  0  0  0  0  0  0  0  0  0
  -17.6666  -14.2469  -13.8626 N   0  0  0  0  0  0  0  0  0  0  0  0
  -22.9707  -17.6167  -15.2778 C   0  0  0  0  0  0  0  0  0  0  0  0
  -25.5311  -12.3938  -16.3227 C   0  0  2  0  0  0  0  0  0  0  0  0
  -25.4428  -13.1561  -17.5034 O   0  0  0  0  0  0  0  0  0  0  0  0
  -16.9991  -16.6045  -13.3022 C   0  0  0  0  0  0  0  0  0  0  0  0
  -21.4082  -17.4117  -15.0314 C   0  0  2  0  0  0  0  0  0  0  0  0
  -20.8316  -18.6565  -14.4788 N   0  0  0  0  0  0  0  0  0  0  0  0
  -24.5108  -11.1806  -16.3414 C   0  0  1  0  0  0  0  0  0  0  0  0
  -24.8132  -10.2676  -17.5013 N   0  0  0  0  0  0  0  0  0  0  0  0
  -17.4666  -17.8929  -12.5060 C   0  0  0  0  0  0  0  0  0  0  0  0
  -21.2007  -16.2232  -14.0049 C   0  0  2  0  0  0  0  0  0  0  0  0
  -24.6572  -10.3404  -14.9557 C   0  0  1  0  0  0  0  0  0  0  0  0
  -25.9470   -9.7932  -14.7708 O   0  0  0  0  0  0  0  0  0  0  0  0
  -18.5718  -17.8692  -11.7271 C   0  0  2  0  0  0  0  0  0  0  0  0
  -19.3778  -16.6965  -11.5715 O   0  0  0  0  0  0  0  0  0  0  0  0
  -21.8175  -14.8951  -14.6080 C   0  0  2  0  0  0  0  0  0  0  0  0
  -21.6349  -13.8235  -13.6676 O   0  0  0  0  0  0  0  0  0  0  0  0
  -24.3493  -11.2982  -13.7570 C   0  0  0  0  0  0  0  0  0  0  0  0
  -25.2450  -12.5337  -13.8242 O   0  0  0  0  0  0  0  0  0  0  0  0
  -19.0513  -19.0903  -10.9436 C   0  0  0  0  0  0  0  0  0  0  0  0
  -19.1081  -18.7321   -9.5542 O   0  0  0  0  0  0  0  0  0  0  0  0
  -23.3657  -15.0934  -14.8546 C   0  0  1  0  0  0  0  0  0  0  0  0
  -23.8768  -13.8915  -15.4049 O   0  0  0  0  0  0  0  0  0  0  0  0
  -23.7039   -9.1327  -14.8311 C   0  0  0  0  0  0  0  0  0  0  0  0
  -24.1414  -10.5836  -18.7783 C   0  0  0  0  0  0  0  0  0  0  0  0
  1  2  1  6  0  0  0
  1  6  1  0  0  0  0
  1 21  1  0  0  0  0
  3  4  1  1  0  0  0
  3  8  1  0  0  0  0
  3 28  1  0  0  0  0
  5  9  1  0  0  0  0
  5 25  1  0  0  0  0
  5 29  1  6  0  0  0
  6  7  1  6  0  0  0
  6 11  1  0  0  0  0
  8 12  1  0  0  0  0
  9 10  1  6  0  0  0
  9 14  1  0  0  0  0
 11 16  1  0  0  0  0
 12 13  1  1  0  0  0
 12 17  1  0  0  0  0
 14 15  1  6  0  0  0
 14 18  1  0  0  0  0
 15 31  1  0  0  0  0
 16 20  1  0  0  0  0
 17  2  1  6  0  0  0
 17 22  1  0  0  0  0
 18 19  1  1  0  0  0
 18 24  1  0  0  0  0
 18 30  1  0  0  0  0
 20 21  1  0  0  0  0
 20 26  1  1  0  0  0
 22 23  1  1  0  0  0
 22 28  1  0  0  0  0
 24 25  1  0  0  0  0
 26 27  1  0  0  0  0
 28 29  1  6  0  0  0
M  END
>  <CHROM.1>
-169.21447690,-157.75876736,-89.06878265,-147.22351053,122.24067293,97.96021140
-22.08993981,-14.57289706,-14.36166715,-0.68668720,-0.57958864,0.03727959

>  <Name>
ligand

>  <RI>
0

>  <Rbt.Current_Directory>
/home/itssahil/PROJECTS/Mol_Feturizer/New_Systems/rnas/4GPW

>  <Rbt.Executable>
rbdock ($Id: //depot/dev/client3/rdock/2013.1/src/exe/rbdock.cxx#4 $)

>  <Rbt.Library>
libRbt.so (2013.1, Build901 2013/11/27)

>  <Rbt.Parameter_File>
/export/apps/rDock/src/rDock_2013.1_src/data/scripts/dock_solv.prm

>  <Rbt.Receptor>
prm/pocket_docking_3.prm

>  <SCORE>
-19.1629

>  <SCORE.INTER>
-16.6572

>  <SCORE.INTER.CONST>
1

>  <SCORE.INTER.POLAR>
0

>  <SCORE.INTER.ROT>
6

>  <SCORE.INTER.SOLV>
17.1846

>  <SCORE.INTER.VDW>
-24.433

>  <SCORE.INTER.norm>
-0.537329

>  <SCORE.INTRA>
-2.50568

>  <SCORE.INTRA.DIHEDRAL>
-5.08422

>  <SCORE.INTRA.DIHEDRAL.0>
19.2558

>  <SCORE.INTRA.POLAR>
0

>  <SCORE.INTRA.POLAR.0>
0

>  <SCORE.INTRA.REPUL>
0

>  <SCORE.INTRA.REPUL.0>
0

>  <SCORE.INTRA.SOLV>
-0.567981

>  <SCORE.INTRA.SOLV.lig_0>
-64.5929

>  <SCORE.INTRA.VDW>
0.320423

>  <SCORE.INTRA.VDW.0>
-4.40538

>  <SCORE.INTRA.norm>
-0.0808284

>  <SCORE.RESTR>
0

>  <SCORE.RESTR.CAVITY>
0

>  <SCORE.RESTR.norm>
0

>  <SCORE.SYSTEM>
0

>  <SCORE.SYSTEM.CONST>
0

>  <SCORE.SYSTEM.DIHEDRAL>
0

>  <SCORE.SYSTEM.SOLV>
0

>  <SCORE.SYSTEM.norm>
0

>  <SCORE.heavy>
31

>  <SCORE.norm>
-0.618157

>  <RMSD>
0.668

$$$$
ligand
 OpenBabel11021811493D
libRbt.so/2013.1/901 2013/11/27
 31 33  0  0  0  0  0  0  0  0999 V2000
  -19.2334  -15.5455  -12.8849 C   0  0  2  0  0  0  0  0  0  0  0  0
  -19.8269  -16.2386  -13.9729 O   0  0  0  0  0  0  0  0  0  0  0  0
  -23.6303  -16.3000  -15.8977 C   0  0  2  0  0  0  0  0  0  0  0  0
  -25.0398  -16.4373  -16.0758 N   0  0  0  0  0  0  0  0  0  0  0  0
  -25.1626  -13.3526  -15.1085 C   0  0  2  0  0  0  0  0  0  0  0  0
  -17.7011  -15.3509  -13.2407 C   0  0  2  0  0  0  0  0  0  0  0  0
  -17.5874  -14.5888  -14.4929 N   0  0  0  0  0  0  0  0  0  0  0  0
  -23.0594  -17.6729  -15.3327 C   0  0  0  0  0  0  0  0  0  0  0  0
  -25.4922  -12.4241  -16.3240 C   0  0  2  0  0  0  0  0  0  0  0  0
  -25.4048  -13.1957  -17.4986 O   0  0  0  0  0  0  0  0  0  0  0  0
  -16.9997  -16.7606  -13.3722 C   0  0  0  0  0  0  0  0  0  0  0  0
  -21.4831  -17.5233  -15.1395 C   0  0  2  0  0  0  0  0  0  0  0  0
  -20.9304  -18.7926  -14.6191 N   0  0  0  0  0  0  0  0  0  0  0  0
  -24.4692  -11.2133  -16.3514 C   0  0  1  0  0  0  0  0  0  0  0  0
  -24.7688  -10.3087  -17.5187 N   0  0  0  0  0  0  0  0  0  0  0  0
  -17.4983  -17.7895  -12.2744 C   0  0  0  0  0  0  0  0  0  0  0  0
  -21.1996  -16.3533  -14.1100 C   0  0  2  0  0  0  0  0  0  0  0  0
  -24.6147  -10.3620  -14.9725 C   0  0  1  0  0  0  0  0  0  0  0  0
  -25.9035   -9.8105  -14.7927 O   0  0  0  0  0  0  0  0  0  0  0  0
  -18.5830  -17.5249  -11.5114 C   0  0  2  0  0  0  0  0  0  0  0  0
  -19.3385  -16.3162  -11.6419 O   0  0  0  0  0  0  0  0  0  0  0  0
  -21.7914  -14.9989  -14.6787 C   0  0  2  0  0  0  0  0  0  0  0  0
  -21.5397  -13.9440  -13.7354 O   0  0  0  0  0  0  0  0  0  0  0  0
  -24.3098  -11.3110  -13.7660 C   0  0  0  0  0  0  0  0  0  0  0  0
  -25.2082  -12.5450  -13.8242 O   0  0  0  0  0  0  0  0  0  0  0  0
  -19.0912  -18.4913  -10.4425 C   0  0  0  0  0  0  0  0  0  0  0  0
  -20.2684  -19.1372  -10.9515 O   0  0  0  0  0  0  0  0  0  0  0  0
  -23.3531  -15.1423  -14.8724 C   0  0  1  0  0  0  0  0  0  0  0  0
  -23.8418  -13.9182  -15.3933 O   0  0  0  0  0  0  0  0  0  0  0  0
  -23.6589   -9.1554  -14.8566 C   0  0  0  0  0  0  0  0  0  0  0  0
  -24.1131  -10.6483  -18.7979 C   0  0  0  0  0  0  0  0  0  0  0  0
  1  2  1  6  0  0  0
  1  6  1  0  0  0  0
  1 21  1  0  0  0  0
  3  4  1  1  0  0  0
  3  8  1  0  0  0  0
  3 28  1  0  0  0  0
  5  9  1  0  0  0  0
  5 25  1  0  0  0  0
  5 29  1  6  0  0  0
  6  7  1  6  0  0  0
  6 11  1  0  0  0  0
  8 12  1  0  0  0  0
  9 10  1  6  0  0  0
  9 14  1  0  0  0  0
 11 16  1  0  0  0  0
 12 13  1  1  0  0  0
 12 17  1  0  0  0  0
 14 15  1  6  0  0  0
 14 18  1  0  0  0  0
 15 31  1  0  0  0  0
 16 20  1  0  0  0  0
 17  2  1  6  0  0  0
 17 22  1  0  0  0  0
 18 19  1  1  0  0  0
 18 24  1  0  0  0  0
 18 30  1  0  0  0  0
 20 21  1  0  0  0  0
 20 26  1  1  0  0  0
 22 23  1  1  0  0  0
 22 28  1  0  0  0  0
 24 25  1  0  0  0  0
 26 27  1  0  0  0  0
 28 29  1  6  0  0  0
M  END
>  <CHROM.1>
-167.57053440,-155.26195703,-88.15945284,-163.02327982,-104.69288795,94.44716896
-22.11937085,-14.59608834,-14.45458594,-0.73039926,-0.51859982,-0.01946606

>  <Name>
ligand

>  <RI>
0

>  <Rbt.Current_Directory>
/home/itssahil/PROJECTS/Mol_Feturizer/New_Systems/rnas/4GPW

>  <Rbt.Executable>
rbdock ($Id: //depot/dev/client3/rdock/2013.1/src/exe/rbdock.cxx#4 $)

>  <Rbt.Library>
libRbt.so (2013.1, Build901 2013/11/27)

>  <Rbt.Parameter_File>
/export/apps/rDock/src/rDock_2013.1_src/data/scripts/dock_solv.prm

>  <Rbt.Receptor>
prm/pocket_docking_4.prm

>  <SCORE>
-20.2438

>  <SCORE.INTER>
-16.3871

>  <SCORE.INTER.CONST>
1

>  <SCORE.INTER.POLAR>
0

>  <SCORE.INTER.ROT>
6

>  <SCORE.INTER.SOLV>
16.5486

>  <SCORE.INTER.VDW>
-24.0409

>  <SCORE.INTER.norm>
-0.528615

>  <SCORE.INTRA>
-3.85676

>  <SCORE.INTRA.DIHEDRAL>
-7.61998

>  <SCORE.INTRA.DIHEDRAL.0>
19.2558

>  <SCORE.INTRA.POLAR>
0

>  <SCORE.INTRA.POLAR.0>
0

>  <SCORE.INTRA.REPUL>
0

>  <SCORE.INTRA.REPUL.0>
0

>  <SCORE.INTRA.SOLV>
-1.20028

>  <SCORE.INTRA.SOLV.lig_0>
-64.5929

>  <SCORE.INTRA.VDW>
0.553367

>  <SCORE.INTRA.VDW.0>
-4.40538

>  <SCORE.INTRA.norm>
-0.124412

>  <SCORE.RESTR>
0

>  <SCORE.RESTR.CAVITY>
0

>  <SCORE.RESTR.norm>
0

>  <SCORE.SYSTEM>
0

>  <SCORE.SYSTEM.CONST>
0

>  <SCORE.SYSTEM.DIHEDRAL>
0

>  <SCORE.SYSTEM.SOLV>
0

>  <SCORE.SYSTEM.norm>
0

>  <SCORE.heavy>
31

>  <SCORE.norm>
-0.653027

>  <RMSD>
0.668

$$$$
ligand
 OpenBabel11021811493D
libRbt.so/2013.1/901 2013/11/27
 31 33  0  0  0  0  0  0  0  0999 V2000
  -19.2101  -15.5511  -12.8498 C   0  0  2  0  0  0  0  0  0  0  0  0
  -19.8029  -16.2208  -13.9529 O   0  0  0  0  0  0  0  0  0  0  0  0
  -23.5994  -16.3132  -15.8900 C   0  0  2  0  0  0  0  0  0  0  0  0
  -25.0088  -16.4498  -16.0702 N   0  0  0  0  0  0  0  0  0  0  0  0
  -25.1372  -13.3610  -15.2015 C   0  0  2  0  0  0  0  0  0  0  0  0
  -17.6732  -15.3678  -13.1913 C   0  0  2  0  0  0  0  0  0  0  0  0
  -17.5419  -14.5876  -14.4307 N   0  0  0  0  0  0  0  0  0  0  0  0
  -23.0353  -17.6748  -15.2917 C   0  0  0  0  0  0  0  0  0  0  0  0
  -25.4212  -12.4183  -16.4175 C   0  0  2  0  0  0  0  0  0  0  0  0
  -25.2853  -13.1751  -17.5971 O   0  0  0  0  0  0  0  0  0  0  0  0
  -16.9861  -16.7829  -13.3397 C   0  0  0  0  0  0  0  0  0  0  0  0
  -21.4593  -17.5261  -15.0961 C   0  0  2  0  0  0  0  0  0  0  0  0
  -20.9129  -18.7851  -14.5448 N   0  0  0  0  0  0  0  0  0  0  0  0
  -24.4015  -11.2047  -16.3897 C   0  0  1  0  0  0  0  0  0  0  0  0
  -24.6574  -10.2865  -17.5567 N   0  0  0  0  0  0  0  0  0  0  0  0
  -17.5040  -17.8231  -12.2617 C   0  0  0  0  0  0  0  0  0  0  0  0
  -21.1755  -16.3339  -14.0925 C   0  0  2  0  0  0  0  0  0  0  0  0
  -24.6038  -10.3709  -15.0072 C   0  0  1  0  0  0  0  0  0  0  0  0
  -25.9002   -9.8248  -14.8717 O   0  0  0  0  0  0  0  0  0  0  0  0
  -18.5915  -17.5586  -11.5027 C   0  0  2  0  0  0  0  0  0  0  0  0
  -19.3329  -16.3398  -11.6199 O   0  0  0  0  0  0  0  0  0  0  0  0
  -21.7605  -14.9909  -14.6941 C   0  0  2  0  0  0  0  0  0  0  0  0
  -21.5087  -13.9156  -13.7742 O   0  0  0  0  0  0  0  0  0  0  0  0
  -24.3439  -11.3341  -13.8014 C   0  0  0  0  0  0  0  0  0  0  0  0
  -25.2357  -12.5695  -13.9102 O   0  0  0  0  0  0  0  0  0  0  0  0
  -19.1181  -18.5358  -10.4527 C   0  0  0  0  0  0  0  0  0  0  0  0
  -20.3183  -19.1345  -10.9658 O   0  0  0  0  0  0  0  0  0  0  0  0
  -23.3220  -15.1334  -14.8904 C   0  0  1  0  0  0  0  0  0  0  0  0
  -23.8046  -13.9198  -15.4408 O   0  0  0  0  0  0  0  0  0  0  0  0
  -23.6567   -9.1636  -14.8388 C   0  0  0  0  0  0  0  0  0  0  0  0
  -24.0973  -10.7059  -18.8575 C   0  0  0  0  0  0  0  0  0  0  0  0
  1  2  1  6  0  0  0
  1  6  1  0  0  0  0
  1 21  1  0  0  0  0
  3  4  1  1  0  0  0
  3  8  1  0  0  0  0
  3 28  1  0  0  0  0
  5  9  1  0  0  0  0
  5 25  1  0  0  0  0
  5 29  1  6  0  0  0
  6  7  1  6  0  0  0
  6 11  1  0  0  0  0
  8 12  1  0  0  0  0
  9 10  1  6  0  0  0
  9 14  1  0  0  0  0
 11 16  1  0  0  0  0
 12 13  1  1  0  0  0
 12 17  1  0  0  0  0
 14 15  1  6  0  0  0
 14 18  1  0  0  0  0
 15 31  1  0  0  0  0
 16 20  1  0  0  0  0
 17  2  1  6  0  0  0
 17 22  1  0  0  0  0
 18 19  1  1  0  0  0
 18 24  1  0  0  0  0
 18 30  1  0  0  0  0
 20 21  1  0  0  0  0
 20 26  1  1  0  0  0
 22 23  1  1  0  0  0
 22 28  1  0  0  0  0
 24 25  1  0  0  0  0
 26 27  1  0  0  0  0
 28 29  1  6  0  0  0
M  END
>  <CHROM.1>
-168.45875154,-156.85113512,-80.30110197,-160.43285076,-106.20777346,92.77377043
-22.09732653,-14.60267170,-14.46691909,-0.73843294,-0.51783307,-0.03541216

>  <Name>
ligand

>  <RI>
0

>  <Rbt.Current_Directory>
/home/itssahil/PROJECTS/Mol_Feturizer/New_Systems/rnas/4GPW

>  <Rbt.Executable>
rbdock ($Id: //depot/dev/client3/rdock/2013.1/src/exe/rbdock.cxx#4 $)

>  <Rbt.Library>
libRbt.so (2013.1, Build901 2013/11/27)

>  <Rbt.Parameter_File>
/export/apps/rDock/src/rDock_2013.1_src/data/scripts/dock_solv.prm

>  <Rbt.Receptor>
prm/pocket_docking_2.prm

>  <SCORE>
-20.0528

>  <SCORE.INTER>
-16.2052

>  <SCORE.INTER.CONST>
1

>  <SCORE.INTER.POLAR>
0

>  <SCORE.INTER.ROT>
6

>  <SCORE.INTER.SOLV>
16.3384

>  <SCORE.INTER.VDW>
-23.8496

>  <SCORE.INTER.norm>
-0.522749

>  <SCORE.INTRA>
-3.84752

>  <SCORE.INTRA.DIHEDRAL>
-8.19975

>  <SCORE.INTRA.DIHEDRAL.0>
19.2558

>  <SCORE.INTRA.POLAR>
0

>  <SCORE.INTRA.POLAR.0>
0

>  <SCORE.INTRA.REPUL>
0

>  <SCORE.INTRA.REPUL.0>
0

>  <SCORE.INTRA.SOLV>
-0.972537

>  <SCORE.INTRA.SOLV.lig_0>
-64.5929

>  <SCORE.INTRA.VDW>
0.738621

>  <SCORE.INTRA.VDW.0>
-4.40538

>  <SCORE.INTRA.norm>
-0.124114

>  <SCORE.RESTR>
0

>  <SCORE.RESTR.CAVITY>
0

>  <SCORE.RESTR.norm>
0

>  <SCORE.SYSTEM>
0

>  <SCORE.SYSTEM.CONST>
0

>  <SCORE.SYSTEM.DIHEDRAL>
0

>  <SCORE.SYSTEM.SOLV>
0

>  <SCORE.SYSTEM.norm>
0

>  <SCORE.heavy>
31

>  <SCORE.norm>
-0.646863

>  <RMSD>
0.669

$$$$
ligand
 OpenBabel11021811493D
libRbt.so/2013.1/901 2013/11/27
 31 33  0  0  0  0  0  0  0  0999 V2000
  -19.1108  -15.5510  -12.7669 C   0  0  2  0  0  0  0  0  0  0  0  0
  -19.7215  -16.1433  -13.9040 O   0  0  0  0  0  0  0  0  0  0  0  0
  -23.5363  -15.9425  -15.7966 C   0  0  2  0  0  0  0  0  0  0  0  0
  -24.9488  -16.0382  -15.9778 N   0  0  0  0  0  0  0  0  0  0  0  0
  -25.0486  -13.1064  -14.7694 C   0  0  2  0  0  0  0  0  0  0  0  0
  -17.5642  -15.4201  -13.0879 C   0  0  2  0  0  0  0  0  0  0  0  0
  -17.3871  -14.5910  -14.2892 N   0  0  0  0  0  0  0  0  0  0  0  0
  -22.9847  -17.3759  -15.3831 C   0  0  0  0  0  0  0  0  0  0  0  0
  -25.4583  -12.3047  -16.0491 C   0  0  2  0  0  0  0  0  0  0  0  0
  -25.3571  -13.1689  -17.1561 O   0  0  0  0  0  0  0  0  0  0  0  0
  -16.9379  -16.8558  -13.2957 C   0  0  0  0  0  0  0  0  0  0  0  0
  -21.4051  -17.2721  -15.1868 C   0  0  2  0  0  0  0  0  0  0  0  0
  -20.8703  -18.5976  -14.8066 N   0  0  0  0  0  0  0  0  0  0  0  0
  -24.5047  -11.0484  -16.2085 C   0  0  1  0  0  0  0  0  0  0  0  0
  -24.8819  -10.2647  -17.4390 N   0  0  0  0  0  0  0  0  0  0  0  0
  -17.5110  -17.9202  -12.2704 C   0  0  0  0  0  0  0  0  0  0  0  0
  -21.0968  -16.2214  -14.0423 C   0  0  2  0  0  0  0  0  0  0  0  0
  -24.6633  -10.0904  -14.9029 C   0  0  1  0  0  0  0  0  0  0  0  0
  -25.9757   -9.5943  -14.7333 O   0  0  0  0  0  0  0  0  0  0  0  0
  -18.5932  -17.6428  -11.5084 C   0  0  2  0  0  0  0  0  0  0  0  0
  -19.2797  -16.3886  -11.5753 O   0  0  0  0  0  0  0  0  0  0  0  0
  -21.6695  -14.8056  -14.4612 C   0  0  2  0  0  0  0  0  0  0  0  0
  -21.3953  -13.8598  -13.4143 O   0  0  0  0  0  0  0  0  0  0  0  0
  -24.2772  -10.9145  -13.6298 C   0  0  0  0  0  0  0  0  0  0  0  0
  -25.1074  -12.1948  -13.5573 O   0  0  0  0  0  0  0  0  0  0  0  0
  -19.1719  -18.6427  -10.5083 C   0  0  0  0  0  0  0  0  0  0  0  0
  -20.3834  -19.1765  -11.0647 O   0  0  0  0  0  0  0  0  0  0  0  0
  -23.2344  -14.9034  -14.6575 C   0  0  1  0  0  0  0  0  0  0  0  0
  -23.7060  -13.6238  -15.0434 O   0  0  0  0  0  0  0  0  0  0  0  0
  -23.7728   -8.8295  -14.9173 C   0  0  0  0  0  0  0  0  0  0  0  0
  -24.1916  -10.6356  -18.6911 C   0  0  0  0  0  0  0  0  0  0  0  0
  1  2  1  6  0  0  0
  1  6  1  0  0  0  0
  1 21  1  0  0  0  0
  3  4  1  1  0  0  0
  3  8  1  0  0  0  0
  3 28  1  0  0  0  0
  5  9  1  0  0  0  0
  5 25  1  0  0  0  0
  5 29  1  6  0  0  0
  6  7  1  6  0  0  0
  6 11  1  0  0  0  0
  8 12  1  0  0  0  0
  9 10  1  6  0  0  0
  9 14  1  0  0  0  0
 11 16  1  0  0  0  0
 12 13  1  1  0  0  0
 12 17  1  0  0  0  0
 14 15  1  6  0  0  0
 14 18  1  0  0  0  0
 15 31  1  0  0  0  0
 16 20  1  0  0  0  0
 17  2  1  6  0  0  0
 17 22  1  0  0  0  0
 18 19  1  1  0  0  0
 18 24  1  0  0  0  0
 18 30  1  0  0  0  0
 20 21  1  0  0  0  0
 20 26  1  1  0  0  0
 22 23  1  1  0  0  0
 22 28  1  0  0  0  0
 24 25  1  0  0  0  0
 26 27  1  0  0  0  0
 28 29  1  6  0  0  0
M  END
>  <CHROM.1>
-170.21633947,-141.60521428,-90.99396250,-164.44289591,-105.50249517,90.04975472
-22.07651659,-14.46717227,-14.34517862,-0.72926935,-0.52451507,0.02394947

>  <Name>
ligand

>  <RI>
0

>  <Rbt.Current_Directory>
/home/itssahil/PROJECTS/Mol_Feturizer/New_Systems/rnas/4GPW

>  <Rbt.Executable>
rbdock ($Id: //depot/dev/client3/rdock/2013.1/src/exe/rbdock.cxx#4 $)

>  <Rbt.Library>
libRbt.so (2013.1, Build901 2013/11/27)

>  <Rbt.Parameter_File>
/export/apps/rDock/src/rDock_2013.1_src/data/scripts/dock_solv.prm

>  <Rbt.Receptor>
prm/pocket_docking_5.prm

>  <SCORE>
-20.0988

>  <SCORE.INTER>
-16.9994

>  <SCORE.INTER.CONST>
1

>  <SCORE.INTER.POLAR>
0

>  <SCORE.INTER.ROT>
6

>  <SCORE.INTER.SOLV>
16.6237

>  <SCORE.INTER.VDW>
-24.4742

>  <SCORE.INTER.norm>
-0.548369

>  <SCORE.INTRA>
-3.09934

>  <SCORE.INTRA.DIHEDRAL>
-6.34192

>  <SCORE.INTRA.DIHEDRAL.0>
19.2558

>  <SCORE.INTRA.POLAR>
0

>  <SCORE.INTRA.POLAR.0>
0

>  <SCORE.INTRA.REPUL>
0

>  <SCORE.INTRA.REPUL.0>
0

>  <SCORE.INTRA.SOLV>
-0.932332

>  <SCORE.INTRA.SOLV.lig_0>
-64.5929

>  <SCORE.INTRA.VDW>
0.537786

>  <SCORE.INTRA.VDW.0>
-4.40538

>  <SCORE.INTRA.norm>
-0.0999787

>  <SCORE.RESTR>
0

>  <SCORE.RESTR.CAVITY>
0

>  <SCORE.RESTR.norm>
0

>  <SCORE.SYSTEM>
0

>  <SCORE.SYSTEM.CONST>
0

>  <SCORE.SYSTEM.DIHEDRAL>
0

>  <SCORE.SYSTEM.SOLV>
0

>  <SCORE.SYSTEM.norm>
0

>  <SCORE.heavy>
31

>  <SCORE.norm>
-0.648347

>  <RMSD>
0.669

$$$$
ligand
 OpenBabel11021811493D
libRbt.so/2013.1/901 2013/11/27
 31 33  0  0  0  0  0  0  0  0999 V2000
  -19.3174  -15.6280  -12.5908 C   0  0  2  0  0  0  0  0  0  0  0  0
  -19.8645  -16.0592  -13.8283 O   0  0  0  0  0  0  0  0  0  0  0  0
  -23.5936  -16.2857  -15.8818 C   0  0  2  0  0  0  0  0  0  0  0  0
  -24.9900  -16.4777  -16.1064 N   0  0  0  0  0  0  0  0  0  0  0  0
  -25.2246  -13.3382  -15.1097 C   0  0  2  0  0  0  0  0  0  0  0  0
  -17.7897  -15.2954  -12.8510 C   0  0  2  0  0  0  0  0  0  0  0  0
  -17.6900  -14.2491  -13.8793 N   0  0  0  0  0  0  0  0  0  0  0  0
  -22.9924  -17.6294  -15.2793 C   0  0  0  0  0  0  0  0  0  0  0  0
  -25.5681  -12.4022  -16.3155 C   0  0  2  0  0  0  0  0  0  0  0  0
  -25.5010  -13.1682  -17.4951 O   0  0  0  0  0  0  0  0  0  0  0  0
  -17.0269  -16.6038  -13.3012 C   0  0  0  0  0  0  0  0  0  0  0  0
  -21.4305  -17.4188  -15.0340 C   0  0  2  0  0  0  0  0  0  0  0  0
  -20.8498  -18.6602  -14.4781 N   0  0  0  0  0  0  0  0  0  0  0  0
  -24.5408  -11.1953  -16.3518 C   0  0  1  0  0  0  0  0  0  0  0  0
  -24.8537  -10.2836  -17.5100 N   0  0  0  0  0  0  0  0  0  0  0  0
  -17.4974  -17.8858  -12.4967 C   0  0  0  0  0  0  0  0  0  0  0  0
  -21.2264  -16.2267  -14.0110 C   0  0  2  0  0  0  0  0  0  0  0  0
  -24.6627  -10.3505  -14.9666 C   0  0  1  0  0  0  0  0  0  0  0  0
  -25.9464   -9.7948  -14.7653 O   0  0  0  0  0  0  0  0  0  0  0  0
  -18.6037  -17.8550  -11.7196 C   0  0  2  0  0  0  0  0  0  0  0  0
  -19.4081  -16.6801  -11.5734 O   0  0  0  0  0  0  0  0  0  0  0  0
  -21.8476  -14.9023  -14.6176 C   0  0  2  0  0  0  0  0  0  0  0  0
  -21.6681  -13.8275  -13.6804 O   0  0  0  0  0  0  0  0  0  0  0  0
  -24.3439  -11.3068  -13.7696 C   0  0  0  0  0  0  0  0  0  0  0  0
  -25.2480  -12.5370  -13.8208 O   0  0  0  0  0  0  0  0  0  0  0  0
  -19.0861  -19.0699  -10.9282 C   0  0  0  0  0  0  0  0  0  0  0  0
  -19.2030  -18.6841   -9.5500 O   0  0  0  0  0  0  0  0  0  0  0  0
  -23.3952  -15.1062  -14.8631 C   0  0  1  0  0  0  0  0  0  0  0  0
  -23.9103  -13.9076  -15.4166 O   0  0  0  0  0  0  0  0  0  0  0  0
  -23.7003   -9.1483  -14.8587 C   0  0  0  0  0  0  0  0  0  0  0  0
  -24.2190  -10.6200  -18.8007 C   0  0  0  0  0  0  0  0  0  0  0  0
  1  2  1  6  0  0  0
  1  6  1  0  0  0  0
  1 21  1  0  0  0  0
  3  4  1  1  0  0  0
  3  8  1  0  0  0  0
  3 28  1  0  0  0  0
  5  9  1  0  0  0  0
  5 25  1  0  0  0  0
  5 29  1  6  0  0  0
  6  7  1  6  0  0  0
  6 11  1  0  0  0  0
  8 12  1  0  0  0  0
  9 10  1  6  0  0  0
  9 14  1  0  0  0  0
 11 16  1  0  0  0  0
 12 13  1  1  0  0  0
 12 17  1  0  0  0  0
 14 15  1  6  0  0  0
 14 18  1  0  0  0  0
 15 31  1  0  0  0  0
 16 20  1  0  0  0  0
 17  2  1  6  0  0  0
 17 22  1  0  0  0  0
 18 19  1  1  0  0  0
 18 24  1  0  0  0  0
 18 30  1  0  0  0  0
 20 21  1  0  0  0  0
 20 26  1  1  0  0  0
 22 23  1  1  0  0  0
 22 28  1  0  0  0  0
 24 25  1  0  0  0  0
 26 27  1  0  0  0  0
 28 29  1  6  0  0  0
M  END
>  <CHROM.1>
-169.50075665,-158.21763155,-88.11241966,-147.35596889,124.83672035,99.08998662
-22.11896481,-14.57651484,-14.36587698,-0.68439229,-0.58147171,0.03757786

>  <Name>
ligand

>  <RI>
0

>  <Rbt.Current_Directory>
/home/itssahil/PROJECTS/Mol_Feturizer/New_Systems/rnas/4GPW

>  <Rbt.Executable>
rbdock ($Id: //depot/dev/client3/rdock/2013.1/src/exe/rbdock.cxx#4 $)

>  <Rbt.Library>
libRbt.so (2013.1, Build901 2013/11/27)

>  <Rbt.Parameter_File>
/export/apps/rDock/src/rDock_2013.1_src/data/scripts/dock_solv.prm

>  <Rbt.Receptor>
prm/pocket_docking_7.prm

>  <SCORE>
-19.154

>  <SCORE.INTER>
-16.6886

>  <SCORE.INTER.CONST>
1

>  <SCORE.INTER.POLAR>
0

>  <SCORE.INTER.ROT>
6

>  <SCORE.INTER.SOLV>
17.2928

>  <SCORE.INTER.VDW>
-24.49

>  <SCORE.INTER.norm>
-0.538343

>  <SCORE.INTRA>
-2.4654

>  <SCORE.INTRA.DIHEDRAL>
-5.03101

>  <SCORE.INTRA.DIHEDRAL.0>
19.2558

>  <SCORE.INTRA.POLAR>
0

>  <SCORE.INTRA.POLAR.0>
0

>  <SCORE.INTRA.REPUL>
0

>  <SCORE.INTRA.REPUL.0>
0

>  <SCORE.INTRA.SOLV>
-0.584948

>  <SCORE.INTRA.SOLV.lig_0>
-64.5929

>  <SCORE.INTRA.VDW>
0.342577

>  <SCORE.INTRA.VDW.0>
-4.40538

>  <SCORE.INTRA.norm>
-0.0795291

>  <SCORE.RESTR>
0

>  <SCORE.RESTR.CAVITY>
0

>  <SCORE.RESTR.norm>
0

>  <SCORE.SYSTEM>
0

>  <SCORE.SYSTEM.CONST>
0

>  <SCORE.SYSTEM.DIHEDRAL>
0

>  <SCORE.SYSTEM.SOLV>
0

>  <SCORE.SYSTEM.norm>
0

>  <SCORE.heavy>
31

>  <SCORE.norm>
-0.617872

>  <RMSD>
0.670

$$$$
ligand
 OpenBabel11021811493D
libRbt.so/2013.1/901 2013/11/27
 31 33  0  0  0  0  0  0  0  0999 V2000
  -19.2319  -15.5494  -12.8667 C   0  0  2  0  0  0  0  0  0  0  0  0
  -19.8210  -16.2218  -13.9702 O   0  0  0  0  0  0  0  0  0  0  0  0
  -23.6177  -16.3044  -15.9074 C   0  0  2  0  0  0  0  0  0  0  0  0
  -25.0263  -16.4459  -16.0893 N   0  0  0  0  0  0  0  0  0  0  0  0
  -25.1624  -13.3596  -15.1515 C   0  0  2  0  0  0  0  0  0  0  0  0
  -17.6906  -15.3818  -13.1962 C   0  0  2  0  0  0  0  0  0  0  0  0
  -17.5419  -14.6116  -14.4397 N   0  0  0  0  0  0  0  0  0  0  0  0
  -23.0459  -17.6722  -15.3309 C   0  0  0  0  0  0  0  0  0  0  0  0
  -25.4770  -12.4251  -16.3664 C   0  0  2  0  0  0  0  0  0  0  0  0
  -25.3702  -13.1897  -17.5439 O   0  0  0  0  0  0  0  0  0  0  0  0
  -17.0146  -16.8038  -13.3287 C   0  0  0  0  0  0  0  0  0  0  0  0
  -21.4706  -17.5179  -15.1334 C   0  0  2  0  0  0  0  0  0  0  0  0
  -20.9170  -18.7824  -14.6024 N   0  0  0  0  0  0  0  0  0  0  0  0
  -24.4575  -11.2111  -16.3720 C   0  0  1  0  0  0  0  0  0  0  0  0
  -24.7428  -10.3007  -17.5384 N   0  0  0  0  0  0  0  0  0  0  0  0
  -17.5507  -17.8319  -12.2480 C   0  0  0  0  0  0  0  0  0  0  0  0
  -21.1930  -16.3402  -14.1112 C   0  0  2  0  0  0  0  0  0  0  0  0
  -24.6257  -10.3682  -14.9905 C   0  0  1  0  0  0  0  0  0  0  0  0
  -25.9185   -9.8215  -14.8265 O   0  0  0  0  0  0  0  0  0  0  0  0
  -18.6424  -17.5526  -11.5003 C   0  0  2  0  0  0  0  0  0  0  0  0
  -19.3722  -16.3284  -11.6324 O   0  0  0  0  0  0  0  0  0  0  0  0
  -21.7856  -14.9911  -14.6912 C   0  0  2  0  0  0  0  0  0  0  0  0
  -21.5394  -13.9291  -13.7545 O   0  0  0  0  0  0  0  0  0  0  0  0
  -24.3354  -11.3232  -13.7852 C   0  0  0  0  0  0  0  0  0  0  0  0
  -25.2291  -12.5595  -13.8635 O   0  0  0  0  0  0  0  0  0  0  0  0
  -19.1865  -18.5179  -10.4481 C   0  0  0  0  0  0  0  0  0  0  0  0
  -20.3327  -19.1807  -11.0041 O   0  0  0  0  0  0  0  0  0  0  0  0
  -23.3464  -15.1391  -14.8893 C   0  0  1  0  0  0  0  0  0  0  0  0
  -23.8358  -13.9196  -15.4202 O   0  0  0  0  0  0  0  0  0  0  0  0
  -23.6753   -9.1594  -14.8539 C   0  0  0  0  0  0  0  0  0  0  0  0
  -24.0509  -10.6185  -18.8041 C   0  0  0  0  0  0  0  0  0  0  0  0
  1  2  1  6  0  0  0
  1  6  1  0  0  0  0
  1 21  1  0  0  0  0
  3  4  1  1  0  0  0
  3  8  1  0  0  0  0
  3 28  1  0  0  0  0
  5  9  1  0  0  0  0
  5 25  1  0  0  0  0
  5 29  1  6  0  0  0
  6  7  1  6  0  0  0
  6 11  1  0  0  0  0
  8 12  1  0  0  0  0
  9 10  1  6  0  0  0
  9 14  1  0  0  0  0
 11 16  1  0  0  0  0
 12 13  1  1  0  0  0
 12 17  1  0  0  0  0
 14 15  1  6  0  0  0
 14 18  1  0  0  0  0
 15 31  1  0  0  0  0
 16 20  1  0  0  0  0
 17  2  1  6  0  0  0
 17 22  1  0  0  0  0
 18 19  1  1  0  0  0
 18 24  1  0  0  0  0
 18 30  1  0  0  0  0
 20 21  1  0  0  0  0
 20 26  1  1  0  0  0
 22 23  1  1  0  0  0
 22 28  1  0  0  0  0
 24 25  1  0  0  0  0
 26 27  1  0  0  0  0
 28 29  1  6  0  0  0
M  END
>  <CHROM.1>
-169.38132215,-155.88648451,-89.09434093,-161.36724323,-102.14815331,93.98377900
-22.12300545,-14.60265871,-14.46195044,-0.73801863,-0.51763606,-0.02838050

>  <Name>
ligand

>  <RI>
0

>  <Rbt.Current_Directory>
/home/itssahil/PROJECTS/Mol_Feturizer/New_Systems/rnas/4GPW

>  <Rbt.Executable>
rbdock ($Id: //depot/dev/client3/rdock/2013.1/src/exe/rbdock.cxx#4 $)

>  <Rbt.Library>
libRbt.so (2013.1, Build901 2013/11/27)

>  <Rbt.Parameter_File>
/export/apps/rDock/src/rDock_2013.1_src/data/scripts/dock_solv.prm

>  <Rbt.Receptor>
prm/pocket_docking_3.prm

>  <SCORE>
-20.2899

>  <SCORE.INTER>
-16.4216

>  <SCORE.INTER.CONST>
1

>  <SCORE.INTER.POLAR>
0

>  <SCORE.INTER.ROT>
6

>  <SCORE.INTER.SOLV>
16.52

>  <SCORE.INTER.VDW>
-24.0544

>  <SCORE.INTER.norm>
-0.529728

>  <SCORE.INTRA>
-3.86831

>  <SCORE.INTRA.DIHEDRAL>
-7.63411

>  <SCORE.INTRA.DIHEDRAL.0>
19.2558

>  <SCORE.INTRA.POLAR>
0

>  <SCORE.INTRA.POLAR.0>
0

>  <SCORE.INTRA.REPUL>
0

>  <SCORE.INTRA.REPUL.0>
0

>  <SCORE.INTRA.SOLV>
-1.07164

>  <SCORE.INTRA.SOLV.lig_0>
-64.5929

>  <SCORE.INTRA.VDW>
0.484563

>  <SCORE.INTRA.VDW.0>
-4.40538

>  <SCORE.INTRA.norm>
-0.124784

>  <SCORE.RESTR>
0

>  <SCORE.RESTR.CAVITY>
0

>  <SCORE.RESTR.norm>
0

>  <SCORE.SYSTEM>
0

>  <SCORE.SYSTEM.CONST>
0

>  <SCORE.SYSTEM.DIHEDRAL>
0

>  <SCORE.SYSTEM.SOLV>
0

>  <SCORE.SYSTEM.norm>
0

>  <SCORE.heavy>
31

>  <SCORE.norm>
-0.654512

>  <RMSD>
0.671

$$$$
ligand
 OpenBabel11021811493D
libRbt.so/2013.1/901 2013/11/27
 31 33  0  0  0  0  0  0  0  0999 V2000
  -19.1868  -15.5837  -12.8638 C   0  0  2  0  0  0  0  0  0  0  0  0
  -19.7907  -16.2430  -13.9671 O   0  0  0  0  0  0  0  0  0  0  0  0
  -23.6024  -16.3051  -15.8753 C   0  0  2  0  0  0  0  0  0  0  0  0
  -25.0136  -16.4347  -16.0457 N   0  0  0  0  0  0  0  0  0  0  0  0
  -25.1289  -13.3606  -15.1650 C   0  0  2  0  0  0  0  0  0  0  0  0
  -17.6480  -15.4213  -13.2076 C   0  0  2  0  0  0  0  0  0  0  0  0
  -17.5078  -14.6408  -14.4457 N   0  0  0  0  0  0  0  0  0  0  0  0
  -23.0392  -17.6736  -15.2922 C   0  0  0  0  0  0  0  0  0  0  0  0
  -25.4223  -12.4276  -16.3864 C   0  0  2  0  0  0  0  0  0  0  0  0
  -25.2872  -13.1919  -17.5613 O   0  0  0  0  0  0  0  0  0  0  0  0
  -16.9810  -16.8456  -13.3597 C   0  0  0  0  0  0  0  0  0  0  0  0
  -21.4611  -17.5327  -15.1077 C   0  0  2  0  0  0  0  0  0  0  0  0
  -20.9155  -18.7981  -14.5706 N   0  0  0  0  0  0  0  0  0  0  0  0
  -24.4084  -11.2090  -16.3709 C   0  0  1  0  0  0  0  0  0  0  0  0
  -24.6733  -10.3001  -17.5431 N   0  0  0  0  0  0  0  0  0  0  0  0
  -17.5116  -17.8805  -12.2827 C   0  0  0  0  0  0  0  0  0  0  0  0
  -21.1648  -16.3496  -14.0969 C   0  0  2  0  0  0  0  0  0  0  0  0
  -24.6095  -10.3667  -14.9934 C   0  0  1  0  0  0  0  0  0  0  0  0
  -25.9080   -9.8260  -14.8566 O   0  0  0  0  0  0  0  0  0  0  0  0
  -18.5941  -17.6022  -11.5214 C   0  0  2  0  0  0  0  0  0  0  0  0
  -19.3185  -16.3729  -11.6351 O   0  0  0  0  0  0  0  0  0  0  0  0
  -21.7490  -14.9995  -14.6833 C   0  0  2  0  0  0  0  0  0  0  0  0
  -21.4858  -13.9325  -13.7570 O   0  0  0  0  0  0  0  0  0  0  0  0
  -24.3402  -11.3202  -13.7820 C   0  0  0  0  0  0  0  0  0  0  0  0
  -25.2263  -12.5607  -13.8788 O   0  0  0  0  0  0  0  0  0  0  0  0
  -19.1326  -18.5740  -10.4723 C   0  0  0  0  0  0  0  0  0  0  0  0
  -20.3248  -19.1782  -10.9974 O   0  0  0  0  0  0  0  0  0  0  0  0
  -23.3125  -15.1343  -14.8686 C   0  0  1  0  0  0  0  0  0  0  0  0
  -23.7945  -13.9145  -15.4057 O   0  0  0  0  0  0  0  0  0  0  0  0
  -23.6677   -9.1536  -14.8370 C   0  0  0  0  0  0  0  0  0  0  0  0
  -24.0291  -10.6701  -18.8198 C   0  0  0  0  0  0  0  0  0  0  0  0
  1  2  1  6  0  0  0
  1  6  1  0  0  0  0
  1 21  1  0  0  0  0
  3  4  1  1  0  0  0
  3  8  1  0  0  0  0
  3 28  1  0  0  0  0
  5  9  1  0  0  0  0
  5 25  1  0  0  0  0
  5 29  1  6  0  0  0
  6  7  1  6  0  0  0
  6 11  1  0  0  0  0
  8 12  1  0  0  0  0
  9 10  1  6  0  0  0
  9 14  1  0  0  0  0
 11 16  1  0  0  0  0
 12 13  1  1  0  0  0
 12 17  1  0  0  0  0
 14 15  1  6  0  0  0
 14 18  1  0  0  0  0
 15 31  1  0  0  0  0
 16 20  1  0  0  0  0
 17  2  1  6  0  0  0
 17 22  1  0  0  0  0
 18 19  1  1  0  0  0
 18 24  1  0  0  0  0
 18 30  1  0  0  0  0
 20 21  1  0  0  0  0
 20 26  1  1  0  0  0
 22 23  1  1  0  0  0
 22 28  1  0  0  0  0
 24 25  1  0  0  0  0
 26 27  1  0  0  0  0
 28 29  1  6  0  0  0
M  END
>  <CHROM.1>
-169.19361543,-155.62106374,-84.88927285,-160.47033296,-104.87612210,91.97205744
-22.09165140,-14.61692002,-14.46190722,-0.74636268,-0.50647985,-0.04070411

>  <Name>
ligand

>  <RI>
0

>  <Rbt.Current_Directory>
/home/itssahil/PROJECTS/Mol_Feturizer/New_Systems/rnas/4GPW

>  <Rbt.Executable>
rbdock ($Id: //depot/dev/client3/rdock/2013.1/src/exe/rbdock.cxx#4 $)

>  <Rbt.Library>
libRbt.so (2013.1, Build901 2013/11/27)

>  <Rbt.Parameter_File>
/export/apps/rDock/src/rDock_2013.1_src/data/scripts/dock_solv.prm

>  <Rbt.Receptor>
prm/pocket_docking_8.prm

>  <SCORE>
-20.1538

>  <SCORE.INTER>
-16.2384

>  <SCORE.INTER.CONST>
1

>  <SCORE.INTER.POLAR>
0

>  <SCORE.INTER.ROT>
6

>  <SCORE.INTER.SOLV>
16.3617

>  <SCORE.INTER.VDW>
-23.8795

>  <SCORE.INTER.norm>
-0.523818

>  <SCORE.INTRA>
-3.91543

>  <SCORE.INTRA.DIHEDRAL>
-8.03314

>  <SCORE.INTRA.DIHEDRAL.0>
19.2558

>  <SCORE.INTRA.POLAR>
0

>  <SCORE.INTRA.POLAR.0>
0

>  <SCORE.INTRA.REPUL>
0

>  <SCORE.INTRA.REPUL.0>
0

>  <SCORE.INTRA.SOLV>
-0.957804

>  <SCORE.INTRA.SOLV.lig_0>
-64.5929

>  <SCORE.INTRA.VDW>
0.580042

>  <SCORE.INTRA.VDW.0>
-4.40538

>  <SCORE.INTRA.norm>
-0.126304

>  <SCORE.RESTR>
0

>  <SCORE.RESTR.CAVITY>
0

>  <SCORE.RESTR.norm>
0

>  <SCORE.SYSTEM>
0

>  <SCORE.SYSTEM.CONST>
0

>  <SCORE.SYSTEM.DIHEDRAL>
0

>  <SCORE.SYSTEM.SOLV>
0

>  <SCORE.SYSTEM.norm>
0

>  <SCORE.heavy>
31

>  <SCORE.norm>
-0.650123

>  <RMSD>
0.671

$$$$
ligand
 OpenBabel11021811493D
libRbt.so/2013.1/901 2013/11/27
 31 33  0  0  0  0  0  0  0  0999 V2000
  -19.2325  -15.5502  -12.8731 C   0  0  2  0  0  0  0  0  0  0  0  0
  -19.8239  -16.2274  -13.9723 O   0  0  0  0  0  0  0  0  0  0  0  0
  -23.6244  -16.3101  -15.9021 C   0  0  2  0  0  0  0  0  0  0  0  0
  -25.0334  -16.4510  -16.0812 N   0  0  0  0  0  0  0  0  0  0  0  0
  -25.1680  -13.3663  -15.1506 C   0  0  2  0  0  0  0  0  0  0  0  0
  -17.6967  -15.3623  -13.2174 C   0  0  2  0  0  0  0  0  0  0  0  0
  -17.5700  -14.5874  -14.4605 N   0  0  0  0  0  0  0  0  0  0  0  0
  -23.0521  -17.6775  -15.3253 C   0  0  0  0  0  0  0  0  0  0  0  0
  -25.4830  -12.4344  -16.3674 C   0  0  2  0  0  0  0  0  0  0  0  0
  -25.3738  -13.2010  -17.5435 O   0  0  0  0  0  0  0  0  0  0  0  0
  -17.0041  -16.7753  -13.3600 C   0  0  0  0  0  0  0  0  0  0  0  0
  -21.4764  -17.5239  -15.1310 C   0  0  2  0  0  0  0  0  0  0  0  0
  -20.9225  -18.7881  -14.5997 N   0  0  0  0  0  0  0  0  0  0  0  0
  -24.4654  -11.2188  -16.3742 C   0  0  1  0  0  0  0  0  0  0  0  0
  -24.7510  -10.3110  -17.5424 N   0  0  0  0  0  0  0  0  0  0  0  0
  -17.5165  -17.8126  -12.2765 C   0  0  0  0  0  0  0  0  0  0  0  0
  -21.1963  -16.3453  -14.1105 C   0  0  2  0  0  0  0  0  0  0  0  0
  -24.6363  -10.3737  -14.9943 C   0  0  1  0  0  0  0  0  0  0  0  0
  -25.9302   -9.8289  -14.8325 O   0  0  0  0  0  0  0  0  0  0  0  0
  -18.6041  -17.5489  -11.5174 C   0  0  2  0  0  0  0  0  0  0  0  0
  -19.3506  -16.3337  -11.6394 O   0  0  0  0  0  0  0  0  0  0  0  0
  -21.7893  -14.9964  -14.6908 C   0  0  2  0  0  0  0  0  0  0  0  0
  -21.5407  -13.9336  -13.7557 O   0  0  0  0  0  0  0  0  0  0  0  0
  -24.3457  -11.3261  -13.7871 C   0  0  0  0  0  0  0  0  0  0  0  0
  -25.2373  -12.5641  -13.8640 O   0  0  0  0  0  0  0  0  0  0  0  0
  -19.1255  -18.5234  -10.4623 C   0  0  0  0  0  0  0  0  0  0  0  0
  -20.2837  -19.1811  -10.9991 O   0  0  0  0  0  0  0  0  0  0  0  0
  -23.3505  -15.1438  -14.8857 C   0  0  1  0  0  0  0  0  0  0  0  0
  -23.8403  -13.9247  -15.4170 O   0  0  0  0  0  0  0  0  0  0  0  0
  -23.6880   -9.1632  -14.8589 C   0  0  0  0  0  0  0  0  0  0  0  0
  -24.0976  -10.6598  -18.8203 C   0  0  0  0  0  0  0  0  0  0  0  0
  1  2  1  6  0  0  0
  1  6  1  0  0  0  0
  1 21  1  0  0  0  0
  3  4  1  1  0  0  0
  3  8  1  0  0  0  0
  3 28  1  0  0  0  0
  5  9  1  0  0  0  0
  5 25  1  0  0  0  0
  5 29  1  6  0  0  0
  6  7  1  6  0  0  0
  6 11  1  0  0  0  0
  8 12  1  0  0  0  0
  9 10  1  6  0  0  0
  9 14  1  0  0  0  0
 11 16  1  0  0  0  0
 12 13  1  1  0  0  0
 12 17  1  0  0  0  0
 14 15  1  6  0  0  0
 14 18  1  0  0  0  0
 15 31  1  0  0  0  0
 16 20  1  0  0  0  0
 17  2  1  6  0  0  0
 17 22  1  0  0  0  0
 18 19  1  1  0  0  0
 18 24  1  0  0  0  0
 18 30  1  0  0  0  0
 20 21  1  0  0  0  0
 20 26  1  1  0  0  0
 22 23  1  1  0  0  0
 22 28  1  0  0  0  0
 24 25  1  0  0  0  0
 26 27  1  0  0  0  0
 28 29  1  6  0  0  0
M  END
>  <CHROM.1>
-168.38014822,-155.74357524,-86.84820940,-161.59057221,-103.21245775,93.72736925
-22.12298854,-14.60560404,-14.46679454,-0.73410924,-0.51604876,-0.02679351

>  <Name>
ligand

>  <RI>
0

>  <Rbt.Current_Directory>
/home/itssahil/PROJECTS/Mol_Feturizer/New_Systems/rnas/4GPW

>  <Rbt.Executable>
rbdock ($Id: //depot/dev/client3/rdock/2013.1/src/exe/rbdock.cxx#4 $)

>  <Rbt.Library>
libRbt.so (2013.1, Build901 2013/11/27)

>  <Rbt.Parameter_File>
/export/apps/rDock/src/rDock_2013.1_src/data/scripts/dock_solv.prm

>  <Rbt.Receptor>
prm/pocket_docking_3.prm

>  <SCORE>
-20.2643

>  <SCORE.INTER>
-16.4264

>  <SCORE.INTER.CONST>
1

>  <SCORE.INTER.POLAR>
0

>  <SCORE.INTER.ROT>
6

>  <SCORE.INTER.SOLV>
16.4722

>  <SCORE.INTER.VDW>
-24.0417

>  <SCORE.INTER.norm>
-0.529883

>  <SCORE.INTRA>
-3.83789

>  <SCORE.INTRA.DIHEDRAL>
-7.69888

>  <SCORE.INTRA.DIHEDRAL.0>
19.2558

>  <SCORE.INTRA.POLAR>
0

>  <SCORE.INTRA.POLAR.0>
0

>  <SCORE.INTRA.REPUL>
0

>  <SCORE.INTRA.REPUL.0>
0

>  <SCORE.INTRA.SOLV>
-1.07256

>  <SCORE.INTRA.SOLV.lig_0>
-64.5929

>  <SCORE.INTRA.VDW>
0.547833

>  <SCORE.INTRA.VDW.0>
-4.40538

>  <SCORE.INTRA.norm>
-0.123803

>  <SCORE.RESTR>
0

>  <SCORE.RESTR.CAVITY>
0

>  <SCORE.RESTR.norm>
0

>  <SCORE.SYSTEM>
0

>  <SCORE.SYSTEM.CONST>
0

>  <SCORE.SYSTEM.DIHEDRAL>
0

>  <SCORE.SYSTEM.SOLV>
0

>  <SCORE.SYSTEM.norm>
0

>  <SCORE.heavy>
31

>  <SCORE.norm>
-0.653686

>  <RMSD>
0.672

$$$$
ligand
 OpenBabel11021811493D
libRbt.so/2013.1/901 2013/11/27
 31 33  0  0  0  0  0  0  0  0999 V2000
  -19.0989  -15.5573  -12.7860 C   0  0  2  0  0  0  0  0  0  0  0  0
  -19.7030  -16.1698  -13.9158 O   0  0  0  0  0  0  0  0  0  0  0  0
  -23.5074  -15.9726  -15.8296 C   0  0  2  0  0  0  0  0  0  0  0  0
  -24.9189  -16.0691  -16.0185 N   0  0  0  0  0  0  0  0  0  0  0  0
  -25.0259  -13.1353  -14.8118 C   0  0  2  0  0  0  0  0  0  0  0  0
  -17.5514  -15.4263  -13.1029 C   0  0  2  0  0  0  0  0  0  0  0  0
  -17.3722  -14.6160  -14.3167 N   0  0  0  0  0  0  0  0  0  0  0  0
  -22.9574  -17.4053  -15.4116 C   0  0  0  0  0  0  0  0  0  0  0  0
  -25.4171  -12.3077  -16.0807 C   0  0  2  0  0  0  0  0  0  0  0  0
  -25.3064  -13.1513  -17.2027 O   0  0  0  0  0  0  0  0  0  0  0  0
  -16.9195  -16.8630  -13.2851 C   0  0  0  0  0  0  0  0  0  0  0  0
  -21.3790  -17.3007  -15.2067 C   0  0  2  0  0  0  0  0  0  0  0  0
  -20.8458  -18.6255  -14.8222 N   0  0  0  0  0  0  0  0  0  0  0  0
  -24.4564  -11.0528  -16.2051 C   0  0  1  0  0  0  0  0  0  0  0  0
  -24.8159  -10.2444  -17.4249 N   0  0  0  0  0  0  0  0  0  0  0  0
  -17.4931  -17.9127  -12.2451 C   0  0  0  0  0  0  0  0  0  0  0  0
  -21.0774  -16.2486  -14.0616 C   0  0  2  0  0  0  0  0  0  0  0  0
  -24.6265  -10.1190  -14.8836 C   0  0  1  0  0  0  0  0  0  0  0  0
  -25.9388   -9.6205  -14.7200 O   0  0  0  0  0  0  0  0  0  0  0  0
  -18.5793  -17.6269  -11.4920 C   0  0  2  0  0  0  0  0  0  0  0  0
  -19.2697  -16.3762  -11.5818 O   0  0  0  0  0  0  0  0  0  0  0  0
  -21.6484  -14.8336  -14.4851 C   0  0  2  0  0  0  0  0  0  0  0  0
  -21.3804  -13.8865  -13.4377 O   0  0  0  0  0  0  0  0  0  0  0  0
  -24.2589  -10.9687  -13.6219 C   0  0  0  0  0  0  0  0  0  0  0  0
  -25.0951  -12.2465  -13.5834 O   0  0  0  0  0  0  0  0  0  0  0  0
  -19.1587  -18.6125  -10.4782 C   0  0  0  0  0  0  0  0  0  0  0  0
  -20.3651  -19.1608  -11.0317 O   0  0  0  0  0  0  0  0  0  0  0  0
  -23.2122  -14.9322  -14.6900 C   0  0  1  0  0  0  0  0  0  0  0  0
  -23.6822  -13.6532  -15.0797 O   0  0  0  0  0  0  0  0  0  0  0  0
  -23.7307   -8.8619  -14.8637 C   0  0  0  0  0  0  0  0  0  0  0  0
  -24.1639  -10.6393  -18.6901 C   0  0  0  0  0  0  0  0  0  0  0  0
  1  2  1  6  0  0  0
  1  6  1  0  0  0  0
  1 21  1  0  0  0  0
  3  4  1  1  0  0  0
  3  8  1  0  0  0  0
  3 28  1  0  0  0  0
  5  9  1  0  0  0  0
  5 25  1  0  0  0  0
  5 29  1  6  0  0  0
  6  7  1  6  0  0  0
  6 11  1  0  0  0  0
  8 12  1  0  0  0  0
  9 10  1  6  0  0  0
  9 14  1  0  0  0  0
 11 16  1  0  0  0  0
 12 13  1  1  0  0  0
 12 17  1  0  0  0  0
 14 15  1  6  0  0  0
 14 18  1  0  0  0  0
 15 31  1  0  0  0  0
 16 20  1  0  0  0  0
 17  2  1  6  0  0  0
 17 22  1  0  0  0  0
 18 19  1  1  0  0  0
 18 24  1  0  0  0  0
 18 30  1  0  0  0  0
 20 21  1  0  0  0  0
 20 26  1  1  0  0  0
 22 23  1  1  0  0  0
 22 28  1  0  0  0  0
 24 25  1  0  0  0  0
 26 27  1  0  0  0  0
 28 29  1  6  0  0  0
M  END
>  <CHROM.1>
-169.87520912,-142.89203100,-87.97367485,-165.45610090,-105.41762522,90.15726722
-22.05108123,-14.48228446,-14.35377438,-0.72230156,-0.53680909,0.03640259

>  <Name>
ligand

>  <RI>
0

>  <Rbt.Current_Directory>
/home/itssahil/PROJECTS/Mol_Feturizer/New_Systems/rnas/4GPW

>  <Rbt.Executable>
rbdock ($Id: //depot/dev/client3/rdock/2013.1/src/exe/rbdock.cxx#4 $)

>  <Rbt.Library>
libRbt.so (2013.1, Build901 2013/11/27)

>  <Rbt.Parameter_File>
/export/apps/rDock/src/rDock_2013.1_src/data/scripts/dock_solv.prm

>  <Rbt.Receptor>
prm/pocket_docking_5.prm

>  <SCORE>
-20.0569

>  <SCORE.INTER>
-16.8096

>  <SCORE.INTER.CONST>
1

>  <SCORE.INTER.POLAR>
0

>  <SCORE.INTER.ROT>
6

>  <SCORE.INTER.SOLV>
16.4742

>  <SCORE.INTER.VDW>
-24.2978

>  <SCORE.INTER.norm>
-0.542245

>  <SCORE.INTRA>
-3.24731

>  <SCORE.INTRA.DIHEDRAL>
-6.73956

>  <SCORE.INTRA.DIHEDRAL.0>
19.2558

>  <SCORE.INTRA.POLAR>
0

>  <SCORE.INTRA.POLAR.0>
0

>  <SCORE.INTRA.REPUL>
0

>  <SCORE.INTRA.REPUL.0>
0

>  <SCORE.INTRA.SOLV>
-1.07572

>  <SCORE.INTRA.SOLV.lig_0>
-64.5929

>  <SCORE.INTRA.VDW>
0.660329

>  <SCORE.INTRA.VDW.0>
-4.40538

>  <SCORE.INTRA.norm>
-0.104752

>  <SCORE.RESTR>
0

>  <SCORE.RESTR.CAVITY>
0

>  <SCORE.RESTR.norm>
0

>  <SCORE.SYSTEM>
0

>  <SCORE.SYSTEM.CONST>
0

>  <SCORE.SYSTEM.DIHEDRAL>
0

>  <SCORE.SYSTEM.SOLV>
0

>  <SCORE.SYSTEM.norm>
0

>  <SCORE.heavy>
31

>  <SCORE.norm>
-0.646997

>  <RMSD>
0.673

$$$$
ligand
 OpenBabel11021811493D
libRbt.so/2013.1/901 2013/11/27
 31 33  0  0  0  0  0  0  0  0999 V2000
  -19.2147  -15.5602  -12.9006 C   0  0  2  0  0  0  0  0  0  0  0  0
  -19.8172  -16.2157  -14.0069 O   0  0  0  0  0  0  0  0  0  0  0  0
  -23.6343  -16.3215  -15.9025 C   0  0  2  0  0  0  0  0  0  0  0  0
  -25.0449  -16.4638  -16.0675 N   0  0  0  0  0  0  0  0  0  0  0  0
  -25.1680  -13.3647  -15.1742 C   0  0  2  0  0  0  0  0  0  0  0  0
  -17.6720  -15.4133  -13.2338 C   0  0  2  0  0  0  0  0  0  0  0  0
  -17.5156  -14.6365  -14.4723 N   0  0  0  0  0  0  0  0  0  0  0  0
  -23.0579  -17.6815  -15.3124 C   0  0  0  0  0  0  0  0  0  0  0  0
  -25.4845  -12.4306  -16.3890 C   0  0  2  0  0  0  0  0  0  0  0  0
  -25.3853  -13.1972  -17.5659 O   0  0  0  0  0  0  0  0  0  0  0  0
  -17.0178  -16.8443  -13.3786 C   0  0  0  0  0  0  0  0  0  0  0  0
  -21.4805  -17.5264  -15.1338 C   0  0  2  0  0  0  0  0  0  0  0  0
  -20.9228  -18.7838  -14.5903 N   0  0  0  0  0  0  0  0  0  0  0  0
  -24.4609  -11.2202  -16.4005 C   0  0  1  0  0  0  0  0  0  0  0  0
  -24.7480  -10.3104  -17.5668 N   0  0  0  0  0  0  0  0  0  0  0  0
  -17.5660  -17.8720  -12.3036 C   0  0  0  0  0  0  0  0  0  0  0  0
  -21.1908  -16.3344  -14.1317 C   0  0  2  0  0  0  0  0  0  0  0  0
  -24.6203  -10.3749  -15.0194 C   0  0  1  0  0  0  0  0  0  0  0  0
  -25.9106   -9.8236  -14.8506 O   0  0  0  0  0  0  0  0  0  0  0  0
  -18.6510  -17.5818  -11.5504 C   0  0  2  0  0  0  0  0  0  0  0  0
  -19.3627  -16.3458  -11.6715 O   0  0  0  0  0  0  0  0  0  0  0  0
  -21.7879  -14.9930  -14.7249 C   0  0  2  0  0  0  0  0  0  0  0  0
  -21.5306  -13.9179  -13.8064 O   0  0  0  0  0  0  0  0  0  0  0  0
  -24.3282  -11.3293  -13.8141 C   0  0  0  0  0  0  0  0  0  0  0  0
  -25.2265  -12.5627  -13.8869 O   0  0  0  0  0  0  0  0  0  0  0  0
  -19.2063  -18.5464  -10.5035 C   0  0  0  0  0  0  0  0  0  0  0  0
  -20.3622  -19.1901  -11.0616 O   0  0  0  0  0  0  0  0  0  0  0  0
  -23.3509  -15.1418  -14.9044 C   0  0  1  0  0  0  0  0  0  0  0  0
  -23.8445  -13.9296  -15.4478 O   0  0  0  0  0  0  0  0  0  0  0  0
  -23.6652   -9.1692  -14.8884 C   0  0  0  0  0  0  0  0  0  0  0  0
  -24.0522  -10.6243  -18.8314 C   0  0  0  0  0  0  0  0  0  0  0  0
  1  2  1  6  0  0  0
  1  6  1  0  0  0  0
  1 21  1  0  0  0  0
  3  4  1  1  0  0  0
  3  8  1  0  0  0  0
  3 28  1  0  0  0  0
  5  9  1  0  0  0  0
  5 25  1  0  0  0  0
  5 29  1  6  0  0  0
  6  7  1  6  0  0  0
  6 11  1  0  0  0  0
  8 12  1  0  0  0  0
  9 10  1  6  0  0  0
  9 14  1  0  0  0  0
 11 16  1  0  0  0  0
 12 13  1  1  0  0  0
 12 17  1  0  0  0  0
 14 15  1  6  0  0  0
 14 18  1  0  0  0  0
 15 31  1  0  0  0  0
 16 20  1  0  0  0  0
 17  2  1  6  0  0  0
 17 22  1  0  0  0  0
 18 19  1  1  0  0  0
 18 24  1  0  0  0  0
 18 30  1  0  0  0  0
 20 21  1  0  0  0  0
 20 26  1  1  0  0  0
 22 23  1  1  0  0  0
 22 28  1  0  0  0  0
 24 25  1  0  0  0  0
 26 27  1  0  0  0  0
 28 29  1  6  0  0  0
M  END
>  <CHROM.1>
-170.61556175,-156.69855890,-89.68143949,-159.59283704,-102.01653339,93.92306774
-22.12540207,-14.61365671,-14.48917411,-0.74846266,-0.50135694,-0.04565661

>  <Name>
ligand

>  <RI>
0

>  <Rbt.Current_Directory>
/home/itssahil/PROJECTS/Mol_Feturizer/New_Systems/rnas/4GPW

>  <Rbt.Executable>
rbdock ($Id: //depot/dev/client3/rdock/2013.1/src/exe/rbdock.cxx#4 $)

>  <Rbt.Library>
libRbt.so (2013.1, Build901 2013/11/27)

>  <Rbt.Parameter_File>
/export/apps/rDock/src/rDock_2013.1_src/data/scripts/dock_solv.prm

>  <Rbt.Receptor>
prm/pocket_docking_3.prm

>  <SCORE>
-20.2075

>  <SCORE.INTER>
-16.3633

>  <SCORE.INTER.CONST>
1

>  <SCORE.INTER.POLAR>
0

>  <SCORE.INTER.ROT>
6

>  <SCORE.INTER.SOLV>
16.3865

>  <SCORE.INTER.VDW>
-23.971

>  <SCORE.INTER.norm>
-0.527847

>  <SCORE.INTRA>
-3.84421

>  <SCORE.INTRA.DIHEDRAL>
-7.59762

>  <SCORE.INTRA.DIHEDRAL.0>
19.2558

>  <SCORE.INTRA.POLAR>
0

>  <SCORE.INTRA.POLAR.0>
0

>  <SCORE.INTRA.REPUL>
0

>  <SCORE.INTRA.REPUL.0>
0

>  <SCORE.INTRA.SOLV>
-0.926968

>  <SCORE.INTRA.SOLV.lig_0>
-64.5929

>  <SCORE.INTRA.VDW>
0.418082

>  <SCORE.INTRA.VDW.0>
-4.40538

>  <SCORE.INTRA.norm>
-0.124007

>  <SCORE.RESTR>
0

>  <SCORE.RESTR.CAVITY>
0

>  <SCORE.RESTR.norm>
0

>  <SCORE.SYSTEM>
0

>  <SCORE.SYSTEM.CONST>
0

>  <SCORE.SYSTEM.DIHEDRAL>
0

>  <SCORE.SYSTEM.SOLV>
0

>  <SCORE.SYSTEM.norm>
0

>  <SCORE.heavy>
31

>  <SCORE.norm>
-0.651854

>  <RMSD>
0.676

$$$$
ligand
 OpenBabel11021811493D
libRbt.so/2013.1/901 2013/11/27
 31 33  0  0  0  0  0  0  0  0999 V2000
  -19.2255  -15.5231  -12.8725 C   0  0  2  0  0  0  0  0  0  0  0  0
  -19.7971  -16.1813  -13.9935 O   0  0  0  0  0  0  0  0  0  0  0  0
  -23.5763  -16.2530  -15.9651 C   0  0  2  0  0  0  0  0  0  0  0  0
  -24.9816  -16.4055  -16.1631 N   0  0  0  0  0  0  0  0  0  0  0  0
  -25.1574  -13.3430  -15.1310 C   0  0  2  0  0  0  0  0  0  0  0  0
  -17.6845  -15.3266  -13.1874 C   0  0  2  0  0  0  0  0  0  0  0  0
  -17.5384  -14.5293  -14.4140 N   0  0  0  0  0  0  0  0  0  0  0  0
  -22.9933  -17.6298  -15.4223 C   0  0  0  0  0  0  0  0  0  0  0  0
  -25.5001  -12.4192  -16.3465 C   0  0  2  0  0  0  0  0  0  0  0  0
  -25.3968  -13.1882  -17.5214 O   0  0  0  0  0  0  0  0  0  0  0  0
  -16.9870  -16.7358  -13.3436 C   0  0  0  0  0  0  0  0  0  0  0  0
  -21.4216  -17.4631  -15.2069 C   0  0  2  0  0  0  0  0  0  0  0  0
  -20.8577  -18.7356  -14.7067 N   0  0  0  0  0  0  0  0  0  0  0  0
  -24.4981  -11.1910  -16.3706 C   0  0  1  0  0  0  0  0  0  0  0  0
  -24.8105  -10.2907  -17.5378 N   0  0  0  0  0  0  0  0  0  0  0  0
  -17.5156  -17.7932  -12.2877 C   0  0  0  0  0  0  0  0  0  0  0  0
  -21.1664  -16.3115  -14.1496 C   0  0  2  0  0  0  0  0  0  0  0  0
  -24.6613  -10.3434  -14.9913 C   0  0  1  0  0  0  0  0  0  0  0  0
  -25.9597   -9.8143  -14.8140 O   0  0  0  0  0  0  0  0  0  0  0  0
  -18.6164  -17.5448  -11.5425 C   0  0  2  0  0  0  0  0  0  0  0  0
  -19.3629  -16.3287  -11.6552 O   0  0  0  0  0  0  0  0  0  0  0  0
  -21.7699  -14.9534  -14.6967 C   0  0  2  0  0  0  0  0  0  0  0  0
  -21.5440  -13.9155  -13.7285 O   0  0  0  0  0  0  0  0  0  0  0  0
  -24.3428  -11.2881  -13.7849 C   0  0  0  0  0  0  0  0  0  0  0  0
  -25.2197  -12.5373  -13.8462 O   0  0  0  0  0  0  0  0  0  0  0  0
  -19.1537  -18.5389  -10.5139 C   0  0  0  0  0  0  0  0  0  0  0  0
  -20.3405  -19.1397  -11.0550 O   0  0  0  0  0  0  0  0  0  0  0  0
  -23.3271  -15.1137  -14.9124 C   0  0  1  0  0  0  0  0  0  0  0  0
  -23.8264  -13.8855  -15.4132 O   0  0  0  0  0  0  0  0  0  0  0  0
  -23.7266   -9.1207  -14.8723 C   0  0  0  0  0  0  0  0  0  0  0  0
  -24.1350  -10.6092  -18.8122 C   0  0  0  0  0  0  0  0  0  0  0  0
  1  2  1  6  0  0  0
  1  6  1  0  0  0  0
  1 21  1  0  0  0  0
  3  4  1  1  0  0  0
  3  8  1  0  0  0  0
  3 28  1  0  0  0  0
  5  9  1  0  0  0  0
  5 25  1  0  0  0  0
  5 29  1  6  0  0  0
  6  7  1  6  0  0  0
  6 11  1  0  0  0  0
  8 12  1  0  0  0  0
  9 10  1  6  0  0  0
  9 14  1  0  0  0  0
 11 16  1  0  0  0  0
 12 13  1  1  0  0  0
 12 17  1  0  0  0  0
 14 15  1  6  0  0  0
 14 18  1  0  0  0  0
 15 31  1  0  0  0  0
 16 20  1  0  0  0  0
 17  2  1  6  0  0  0
 17 22  1  0  0  0  0
 18 19  1  1  0  0  0
 18 24  1  0  0  0  0
 18 30  1  0  0  0  0
 20 21  1  0  0  0  0
 20 26  1  1  0  0  0
 22 23  1  1  0  0  0
 22 28  1  0  0  0  0
 24 25  1  0  0  0  0
 26 27  1  0  0  0  0
 28 29  1  6  0  0  0
M  END
>  <CHROM.1>
-169.09383982,-154.01230403,-88.79510966,-161.94242221,-106.07222227,94.54548874
-22.11997774,-14.57381693,-14.48067914,-0.71948163,-0.53089111,0.00106552

>  <Name>
ligand

>  <RI>
0

>  <Rbt.Current_Directory>
/home/itssahil/PROJECTS/Mol_Feturizer/New_Systems/rnas/4GPW

>  <Rbt.Executable>
rbdock ($Id: //depot/dev/client3/rdock/2013.1/src/exe/rbdock.cxx#4 $)

>  <Rbt.Library>
libRbt.so (2013.1, Build901 2013/11/27)

>  <Rbt.Parameter_File>
/export/apps/rDock/src/rDock_2013.1_src/data/scripts/dock_solv.prm

>  <Rbt.Receptor>
prm/pocket_docking_3.prm

>  <SCORE>
-20.1039

>  <SCORE.INTER>
-16.3661

>  <SCORE.INTER.CONST>
1

>  <SCORE.INTER.POLAR>
0

>  <SCORE.INTER.ROT>
6

>  <SCORE.INTER.SOLV>
16.3152

>  <SCORE.INTER.VDW>
-23.9491

>  <SCORE.INTER.norm>
-0.527938

>  <SCORE.INTRA>
-3.73779

>  <SCORE.INTRA.DIHEDRAL>
-7.4044

>  <SCORE.INTRA.DIHEDRAL.0>
19.2558

>  <SCORE.INTRA.POLAR>
0

>  <SCORE.INTRA.POLAR.0>
0

>  <SCORE.INTRA.REPUL>
0

>  <SCORE.INTRA.REPUL.0>
0

>  <SCORE.INTRA.SOLV>
-1.06444

>  <SCORE.INTRA.SOLV.lig_0>
-64.5929

>  <SCORE.INTRA.VDW>
0.49663

>  <SCORE.INTRA.VDW.0>
-4.40538

>  <SCORE.INTRA.norm>
-0.120574

>  <SCORE.RESTR>
0

>  <SCORE.RESTR.CAVITY>
0

>  <SCORE.RESTR.norm>
0

>  <SCORE.SYSTEM>
0

>  <SCORE.SYSTEM.CONST>
0

>  <SCORE.SYSTEM.DIHEDRAL>
0

>  <SCORE.SYSTEM.SOLV>
0

>  <SCORE.SYSTEM.norm>
0

>  <SCORE.heavy>
31

>  <SCORE.norm>
-0.648511

>  <RMSD>
0.678

$$$$
ligand
 OpenBabel11021811493D
libRbt.so/2013.1/901 2013/11/27
 31 33  0  0  0  0  0  0  0  0999 V2000
  -19.1018  -15.5408  -12.8026 C   0  0  2  0  0  0  0  0  0  0  0  0
  -19.7128  -16.1511  -13.9300 O   0  0  0  0  0  0  0  0  0  0  0  0
  -23.5292  -15.9449  -15.8187 C   0  0  2  0  0  0  0  0  0  0  0  0
  -24.9418  -16.0411  -15.9992 N   0  0  0  0  0  0  0  0  0  0  0  0
  -25.0420  -13.1135  -14.7744 C   0  0  2  0  0  0  0  0  0  0  0  0
  -17.5555  -15.4132  -13.1269 C   0  0  2  0  0  0  0  0  0  0  0  0
  -17.3803  -14.6024  -14.3409 N   0  0  0  0  0  0  0  0  0  0  0  0
  -22.9761  -17.3798  -15.4121 C   0  0  0  0  0  0  0  0  0  0  0  0
  -25.4536  -12.3021  -16.0474 C   0  0  2  0  0  0  0  0  0  0  0  0
  -25.3552  -13.1583  -17.1609 O   0  0  0  0  0  0  0  0  0  0  0  0
  -16.9279  -16.8513  -13.3132 C   0  0  0  0  0  0  0  0  0  0  0  0
  -21.3964  -17.2755  -15.2166 C   0  0  2  0  0  0  0  0  0  0  0  0
  -20.8602  -18.6022  -14.8428 N   0  0  0  0  0  0  0  0  0  0  0  0
  -24.4994  -11.0454  -16.1995 C   0  0  1  0  0  0  0  0  0  0  0  0
  -24.8785  -10.2525  -17.4235 N   0  0  0  0  0  0  0  0  0  0  0  0
  -17.4990  -17.9004  -12.2712 C   0  0  0  0  0  0  0  0  0  0  0  0
  -21.0880  -16.2297  -14.0676 C   0  0  2  0  0  0  0  0  0  0  0  0
  -24.6547  -10.0969  -14.8867 C   0  0  1  0  0  0  0  0  0  0  0  0
  -25.9664   -9.6011  -14.7108 O   0  0  0  0  0  0  0  0  0  0  0  0
  -18.5808  -17.6126  -11.5127 C   0  0  2  0  0  0  0  0  0  0  0  0
  -19.2687  -16.3603  -11.5982 O   0  0  0  0  0  0  0  0  0  0  0  0
  -21.6623  -14.8126  -14.4796 C   0  0  2  0  0  0  0  0  0  0  0  0
  -21.3881  -13.8712  -13.4287 O   0  0  0  0  0  0  0  0  0  0  0  0
  -24.2667  -10.9306  -13.6204 C   0  0  0  0  0  0  0  0  0  0  0  0
  -25.0976  -12.2107  -13.5556 O   0  0  0  0  0  0  0  0  0  0  0  0
  -19.1577  -18.5977  -10.4969 C   0  0  0  0  0  0  0  0  0  0  0  0
  -20.3587  -19.1557  -11.0523 O   0  0  0  0  0  0  0  0  0  0  0  0
  -23.2273  -14.9108  -14.6752 C   0  0  1  0  0  0  0  0  0  0  0  0
  -23.7002  -13.6299  -15.0548 O   0  0  0  0  0  0  0  0  0  0  0  0
  -23.7634   -8.8365  -14.8937 C   0  0  0  0  0  0  0  0  0  0  0  0
  -24.2153  -10.6366  -18.6862 C   0  0  0  0  0  0  0  0  0  0  0  0
  1  2  1  6  0  0  0
  1  6  1  0  0  0  0
  1 21  1  0  0  0  0
  3  4  1  1  0  0  0
  3  8  1  0  0  0  0
  3 28  1  0  0  0  0
  5  9  1  0  0  0  0
  5 25  1  0  0  0  0
  5 29  1  6  0  0  0
  6  7  1  6  0  0  0
  6 11  1  0  0  0  0
  8 12  1  0  0  0  0
  9 10  1  6  0  0  0
  9 14  1  0  0  0  0
 11 16  1  0  0  0  0
 12 13  1  1  0  0  0
 12 17  1  0  0  0  0
 14 15  1  6  0  0  0
 14 18  1  0  0  0  0
 15 31  1  0  0  0  0
 16 20  1  0  0  0  0
 17  2  1  6  0  0  0
 17 22  1  0  0  0  0
 18 19  1  1  0  0  0
 18 24  1  0  0  0  0
 18 30  1  0  0  0  0
 20 21  1  0  0  0  0
 20 26  1  1  0  0  0
 22 23  1  1  0  0  0
 22 28  1  0  0  0  0
 24 25  1  0  0  0  0
 26 27  1  0  0  0  0
 28 29  1  6  0  0  0
M  END
>  <CHROM.1>
-170.04942332,-141.84086897,-89.54920284,-165.65785956,-104.67796086,90.21727545
-22.06874732,-14.46532597,-14.35468775,-0.72144803,-0.53076443,0.03680911

>  <Name>
ligand

>  <RI>
0

>  <Rbt.Current_Directory>
/home/itssahil/PROJECTS/Mol_Feturizer/New_Systems/rnas/4GPW

>  <Rbt.Executable>
rbdock ($Id: //depot/dev/client3/rdock/2013.1/src/exe/rbdock.cxx#4 $)

>  <Rbt.Library>
libRbt.so (2013.1, Build901 2013/11/27)

>  <Rbt.Parameter_File>
/export/apps/rDock/src/rDock_2013.1_src/data/scripts/dock_solv.prm

>  <Rbt.Receptor>
prm/pocket_docking_7.prm

>  <SCORE>
-20.148

>  <SCORE.INTER>
-16.9685

>  <SCORE.INTER.CONST>
1

>  <SCORE.INTER.POLAR>
0

>  <SCORE.INTER.ROT>
6

>  <SCORE.INTER.SOLV>
16.5271

>  <SCORE.INTER.VDW>
-24.4213

>  <SCORE.INTER.norm>
-0.547371

>  <SCORE.INTRA>
-3.17954

>  <SCORE.INTRA.DIHEDRAL>
-6.51274

>  <SCORE.INTRA.DIHEDRAL.0>
19.2558

>  <SCORE.INTRA.POLAR>
0

>  <SCORE.INTRA.POLAR.0>
0

>  <SCORE.INTRA.REPUL>
0

>  <SCORE.INTRA.REPUL.0>
0

>  <SCORE.INTRA.SOLV>
-1.06657

>  <SCORE.INTRA.SOLV.lig_0>
-64.5929

>  <SCORE.INTRA.VDW>
0.610116

>  <SCORE.INTRA.VDW.0>
-4.40538

>  <SCORE.INTRA.norm>
-0.102566

>  <SCORE.RESTR>
0

>  <SCORE.RESTR.CAVITY>
0

>  <SCORE.RESTR.norm>
0

>  <SCORE.SYSTEM>
0

>  <SCORE.SYSTEM.CONST>
0

>  <SCORE.SYSTEM.DIHEDRAL>
0

>  <SCORE.SYSTEM.SOLV>
0

>  <SCORE.SYSTEM.norm>
0

>  <SCORE.heavy>
31

>  <SCORE.norm>
-0.649936

>  <RMSD>
0.680

$$$$
ligand
 OpenBabel11021811493D
libRbt.so/2013.1/901 2013/11/27
 31 33  0  0  0  0  0  0  0  0999 V2000
  -19.1057  -15.5477  -12.8295 C   0  0  2  0  0  0  0  0  0  0  0  0
  -19.7140  -16.1750  -13.9488 O   0  0  0  0  0  0  0  0  0  0  0  0
  -23.5434  -16.1762  -15.8226 C   0  0  2  0  0  0  0  0  0  0  0  0
  -24.9550  -16.3097  -15.9862 N   0  0  0  0  0  0  0  0  0  0  0  0
  -25.0916  -13.2893  -14.9606 C   0  0  2  0  0  0  0  0  0  0  0  0
  -17.5598  -15.4187  -13.1548 C   0  0  2  0  0  0  0  0  0  0  0  0
  -17.3871  -14.6234  -14.3794 N   0  0  0  0  0  0  0  0  0  0  0  0
  -22.9629  -17.5669  -15.3138 C   0  0  0  0  0  0  0  0  0  0  0  0
  -25.4652  -12.4253  -16.2105 C   0  0  2  0  0  0  0  0  0  0  0  0
  -25.3546  -13.2407  -17.3531 O   0  0  0  0  0  0  0  0  0  0  0  0
  -16.9269  -16.8568  -13.3217 C   0  0  0  0  0  0  0  0  0  0  0  0
  -21.3843  -17.4212  -15.1370 C   0  0  2  0  0  0  0  0  0  0  0  0
  -20.8228  -18.7069  -14.6689 N   0  0  0  0  0  0  0  0  0  0  0  0
  -24.4912  -11.1774  -16.2955 C   0  0  1  0  0  0  0  0  0  0  0  0
  -24.8335  -10.3342  -17.4965 N   0  0  0  0  0  0  0  0  0  0  0  0
  -17.4945  -17.8941  -12.2662 C   0  0  0  0  0  0  0  0  0  0  0  0
  -21.0884  -16.2874  -14.0712 C   0  0  2  0  0  0  0  0  0  0  0  0
  -24.6617  -10.2764  -14.9515 C   0  0  1  0  0  0  0  0  0  0  0  0
  -25.9700   -9.7690  -14.7844 O   0  0  0  0  0  0  0  0  0  0  0  0
  -18.5778  -17.6002  -11.5119 C   0  0  2  0  0  0  0  0  0  0  0  0
  -19.2702  -16.3516  -11.6144 O   0  0  0  0  0  0  0  0  0  0  0  0
  -21.6897  -14.9150  -14.5840 C   0  0  2  0  0  0  0  0  0  0  0  0
  -21.4266  -13.8933  -13.6080 O   0  0  0  0  0  0  0  0  0  0  0  0
  -24.3118  -11.1621  -13.7097 C   0  0  0  0  0  0  0  0  0  0  0  0
  -25.1610  -12.4318  -13.7102 O   0  0  0  0  0  0  0  0  0  0  0  0
  -19.1515  -18.5737  -10.4833 C   0  0  0  0  0  0  0  0  0  0  0  0
  -20.3339  -19.1655  -11.0435 O   0  0  0  0  0  0  0  0  0  0  0  0
  -23.2537  -15.0545  -14.7614 C   0  0  1  0  0  0  0  0  0  0  0  0
  -23.7512  -13.8138  -15.2324 O   0  0  0  0  0  0  0  0  0  0  0  0
  -23.7536   -9.0294  -14.8927 C   0  0  0  0  0  0  0  0  0  0  0  0
  -24.1282  -10.6624  -18.7521 C   0  0  0  0  0  0  0  0  0  0  0  0
  1  2  1  6  0  0  0
  1  6  1  0  0  0  0
  1 21  1  0  0  0  0
  3  4  1  1  0  0  0
  3  8  1  0  0  0  0
  3 28  1  0  0  0  0
  5  9  1  0  0  0  0
  5 25  1  0  0  0  0
  5 29  1  6  0  0  0
  6  7  1  6  0  0  0
  6 11  1  0  0  0  0
  8 12  1  0  0  0  0
  9 10  1  6  0  0  0
  9 14  1  0  0  0  0
 11 16  1  0  0  0  0
 12 13  1  1  0  0  0
 12 17  1  0  0  0  0
 14 15  1  6  0  0  0
 14 18  1  0  0  0  0
 15 31  1  0  0  0  0
 16 20  1  0  0  0  0
 17  2  1  6  0  0  0
 17 22  1  0  0  0  0
 18 19  1  1  0  0  0
 18 24  1  0  0  0  0
 18 30  1  0  0  0  0
 20 21  1  0  0  0  0
 20 26  1  1  0  0  0
 22 23  1  1  0  0  0
 22 28  1  0  0  0  0
 24 25  1  0  0  0  0
 26 27  1  0  0  0  0
 28 29  1  6  0  0  0
M  END
>  <CHROM.1>
-171.54319642,-149.32485962,-90.77011412,-161.47106505,-103.43162046,91.47282509
-22.07254829,-14.56396707,-14.40321464,-0.73268176,-0.50527021,-0.01478811

>  <Name>
ligand

>  <RI>
0

>  <Rbt.Current_Directory>
/home/itssahil/PROJECTS/Mol_Feturizer/New_Systems/rnas/4GPW

>  <Rbt.Executable>
rbdock ($Id: //depot/dev/client3/rdock/2013.1/src/exe/rbdock.cxx#4 $)

>  <Rbt.Library>
libRbt.so (2013.1, Build901 2013/11/27)

>  <Rbt.Parameter_File>
/export/apps/rDock/src/rDock_2013.1_src/data/scripts/dock_solv.prm

>  <Rbt.Receptor>
prm/pocket_docking_3.prm

>  <SCORE>
-20.1555

>  <SCORE.INTER>
-16.6276

>  <SCORE.INTER.CONST>
1

>  <SCORE.INTER.POLAR>
0

>  <SCORE.INTER.ROT>
6

>  <SCORE.INTER.SOLV>
16.5877

>  <SCORE.INTER.VDW>
-24.2143

>  <SCORE.INTER.norm>
-0.536374

>  <SCORE.INTRA>
-3.52795

>  <SCORE.INTRA.DIHEDRAL>
-7.09052

>  <SCORE.INTRA.DIHEDRAL.0>
19.2558

>  <SCORE.INTRA.POLAR>
0

>  <SCORE.INTRA.POLAR.0>
0

>  <SCORE.INTRA.REPUL>
0

>  <SCORE.INTRA.REPUL.0>
0

>  <SCORE.INTRA.SOLV>
-0.89625

>  <SCORE.INTRA.SOLV.lig_0>
-64.5929

>  <SCORE.INTRA.VDW>
0.465431

>  <SCORE.INTRA.VDW.0>
-4.40538

>  <SCORE.INTRA.norm>
-0.113805

>  <SCORE.RESTR>
0

>  <SCORE.RESTR.CAVITY>
0

>  <SCORE.RESTR.norm>
0

>  <SCORE.SYSTEM>
0

>  <SCORE.SYSTEM.CONST>
0

>  <SCORE.SYSTEM.DIHEDRAL>
0

>  <SCORE.SYSTEM.SOLV>
0

>  <SCORE.SYSTEM.norm>
0

>  <SCORE.heavy>
31

>  <SCORE.norm>
-0.650179

>  <RMSD>
0.689

$$$$
ligand
 OpenBabel11021811493D
libRbt.so/2013.1/901 2013/11/27
 31 33  0  0  0  0  0  0  0  0999 V2000
  -19.2464  -15.7337  -12.6124 C   0  0  2  0  0  0  0  0  0  0  0  0
  -19.8159  -16.1764  -13.8356 O   0  0  0  0  0  0  0  0  0  0  0  0
  -23.5449  -15.7789  -15.8632 C   0  0  2  0  0  0  0  0  0  0  0  0
  -24.9499  -15.8374  -16.1080 N   0  0  0  0  0  0  0  0  0  0  0  0
  -25.0494  -12.9864  -14.6764 C   0  0  2  0  0  0  0  0  0  0  0  0
  -17.7128  -15.4476  -12.8928 C   0  0  2  0  0  0  0  0  0  0  0  0
  -17.5947  -14.4266  -13.9442 N   0  0  0  0  0  0  0  0  0  0  0  0
  -23.0317  -17.2469  -15.5291 C   0  0  0  0  0  0  0  0  0  0  0  0
  -25.4721  -12.2094  -15.9670 C   0  0  2  0  0  0  0  0  0  0  0  0
  -25.3890  -13.0968  -17.0571 O   0  0  0  0  0  0  0  0  0  0  0  0
  -16.9891  -16.7853  -13.3213 C   0  0  0  0  0  0  0  0  0  0  0  0
  -21.4604  -17.1842  -15.2619 C   0  0  2  0  0  0  0  0  0  0  0  0
  -20.9611  -18.5419  -14.9542 N   0  0  0  0  0  0  0  0  0  0  0  0
  -24.5151  -10.9611  -16.1648 C   0  0  1  0  0  0  0  0  0  0  0  0
  -24.9048  -10.2014  -17.4063 N   0  0  0  0  0  0  0  0  0  0  0  0
  -17.4861  -18.0369  -12.4853 C   0  0  0  0  0  0  0  0  0  0  0  0
  -21.1851  -16.2210  -14.0349 C   0  0  2  0  0  0  0  0  0  0  0  0
  -24.6526   -9.9756  -14.8775 C   0  0  1  0  0  0  0  0  0  0  0  0
  -25.9605   -9.4700  -14.7013 O   0  0  0  0  0  0  0  0  0  0  0  0
  -18.5841  -17.9599  -11.6996 C   0  0  2  0  0  0  0  0  0  0  0  0
  -19.3557  -16.7610  -11.5719 O   0  0  0  0  0  0  0  0  0  0  0  0
  -21.7195  -14.7699  -14.3765 C   0  0  2  0  0  0  0  0  0  0  0  0
  -21.4758  -13.9039  -13.2556 O   0  0  0  0  0  0  0  0  0  0  0  0
  -24.2537  -10.7750  -13.5926 C   0  0  0  0  0  0  0  0  0  0  0  0
  -25.0884  -12.0495  -13.4828 O   0  0  0  0  0  0  0  0  0  0  0  0
  -19.0913  -19.1443  -10.8782 C   0  0  0  0  0  0  0  0  0  0  0  0
  -19.2100  -18.7186   -9.5119 O   0  0  0  0  0  0  0  0  0  0  0  0
  -23.2761  -14.8268  -14.6427 C   0  0  1  0  0  0  0  0  0  0  0  0
  -23.7127  -13.5156  -14.9567 O   0  0  0  0  0  0  0  0  0  0  0  0
  -23.7569   -8.7194  -14.9295 C   0  0  0  0  0  0  0  0  0  0  0  0
  -24.2296  -10.5989  -18.6585 C   0  0  0  0  0  0  0  0  0  0  0  0
  1  2  1  6  0  0  0
  1  6  1  0  0  0  0
  1 21  1  0  0  0  0
  3  4  1  1  0  0  0
  3  8  1  0  0  0  0
  3 28  1  0  0  0  0
  5  9  1  0  0  0  0
  5 25  1  0  0  0  0
  5 29  1  6  0  0  0
  6  7  1  6  0  0  0
  6 11  1  0  0  0  0
  8 12  1  0  0  0  0
  9 10  1  6  0  0  0
  9 14  1  0  0  0  0
 11 16  1  0  0  0  0
 12 13  1  1  0  0  0
 12 17  1  0  0  0  0
 14 15  1  6  0  0  0
 14 18  1  0  0  0  0
 15 31  1  0  0  0  0
 16 20  1  0  0  0  0
 17  2  1  6  0  0  0
 17 22  1  0  0  0  0
 18 19  1  1  0  0  0
 18 24  1  0  0  0  0
 18 30  1  0  0  0  0
 20 21  1  0  0  0  0
 20 26  1  1  0  0  0
 22 23  1  1  0  0  0
 22 28  1  0  0  0  0
 24 25  1  0  0  0  0
 26 27  1  0  0  0  0
 28 29  1  6  0  0  0
M  END
>  <CHROM.1>
-164.82214442,-136.40424835,-91.15699849,-161.43972521,125.93548777,91.41272384
-22.06896462,-14.43168852,-14.27785494,-0.64359820,-0.64724292,0.17809289

>  <Name>
ligand

>  <RI>
0

>  <Rbt.Current_Directory>
/home/itssahil/PROJECTS/Mol_Feturizer/New_Systems/rnas/4GPW

>  <Rbt.Executable>
rbdock ($Id: //depot/dev/client3/rdock/2013.1/src/exe/rbdock.cxx#4 $)

>  <Rbt.Library>
libRbt.so (2013.1, Build901 2013/11/27)

>  <Rbt.Parameter_File>
/export/apps/rDock/src/rDock_2013.1_src/data/scripts/dock_solv.prm

>  <Rbt.Receptor>
prm/pocket_docking_4.prm

>  <SCORE>
-18.9058

>  <SCORE.INTER>
-16.8705

>  <SCORE.INTER.CONST>
1

>  <SCORE.INTER.POLAR>
0

>  <SCORE.INTER.ROT>
6

>  <SCORE.INTER.SOLV>
17.2249

>  <SCORE.INTER.VDW>
-24.5887

>  <SCORE.INTER.norm>
-0.544211

>  <SCORE.INTRA>
-2.0353

>  <SCORE.INTRA.DIHEDRAL>
-4.42272

>  <SCORE.INTRA.DIHEDRAL.0>
19.2558

>  <SCORE.INTRA.POLAR>
0

>  <SCORE.INTRA.POLAR.0>
0

>  <SCORE.INTRA.REPUL>
0

>  <SCORE.INTRA.REPUL.0>
0

>  <SCORE.INTRA.SOLV>
-0.847894

>  <SCORE.INTRA.SOLV.lig_0>
-64.5929

>  <SCORE.INTRA.VDW>
0.600008

>  <SCORE.INTRA.VDW.0>
-4.40538

>  <SCORE.INTRA.norm>
-0.0656548

>  <SCORE.RESTR>
0

>  <SCORE.RESTR.CAVITY>
0

>  <SCORE.RESTR.norm>
0

>  <SCORE.SYSTEM>
0

>  <SCORE.SYSTEM.CONST>
0

>  <SCORE.SYSTEM.DIHEDRAL>
0

>  <SCORE.SYSTEM.SOLV>
0

>  <SCORE.SYSTEM.norm>
0

>  <SCORE.heavy>
31

>  <SCORE.norm>
-0.609865

>  <RMSD>
0.691

$$$$
ligand
 OpenBabel11021811493D
libRbt.so/2013.1/901 2013/11/27
 31 33  0  0  0  0  0  0  0  0999 V2000
  -19.3496  -15.6058  -12.6907 C   0  0  2  0  0  0  0  0  0  0  0  0
  -19.9115  -16.2356  -13.8327 O   0  0  0  0  0  0  0  0  0  0  0  0
  -23.6568  -16.2775  -15.8688 C   0  0  2  0  0  0  0  0  0  0  0  0
  -25.0605  -16.4123  -16.0894 N   0  0  0  0  0  0  0  0  0  0  0  0
  -25.1932  -13.3138  -15.0625 C   0  0  2  0  0  0  0  0  0  0  0  0
  -17.8106  -15.3812  -12.9964 C   0  0  2  0  0  0  0  0  0  0  0  0
  -17.6723  -14.5442  -14.1974 N   0  0  0  0  0  0  0  0  0  0  0  0
  -23.1033  -17.6557  -15.2993 C   0  0  0  0  0  0  0  0  0  0  0  0
  -25.5153  -12.3882  -16.2822 C   0  0  2  0  0  0  0  0  0  0  0  0
  -25.4447  -13.1684  -17.4523 O   0  0  0  0  0  0  0  0  0  0  0  0
  -17.0959  -16.7762  -13.1953 C   0  0  0  0  0  0  0  0  0  0  0  0
  -21.5333  -17.5089  -15.0586 C   0  0  2  0  0  0  0  0  0  0  0  0
  -20.9967  -18.7830  -14.5334 N   0  0  0  0  0  0  0  0  0  0  0  0
  -24.4753  -11.1924  -16.3222 C   0  0  1  0  0  0  0  0  0  0  0  0
  -24.7675  -10.2910  -17.4938 N   0  0  0  0  0  0  0  0  0  0  0  0
  -17.6132  -17.8724  -12.1739 C   0  0  0  0  0  0  0  0  0  0  0  0
  -21.2797  -16.3481  -14.0111 C   0  0  2  0  0  0  0  0  0  0  0  0
  -24.6018  -10.3305  -14.9480 C   0  0  1  0  0  0  0  0  0  0  0  0
  -25.8816   -9.7594  -14.7656 O   0  0  0  0  0  0  0  0  0  0  0  0
  -18.7180  -17.6607  -11.4233 C   0  0  2  0  0  0  0  0  0  0  0  0
  -19.4790  -16.4508  -11.4993 O   0  0  0  0  0  0  0  0  0  0  0  0
  -21.8539  -14.9884  -14.5849 C   0  0  2  0  0  0  0  0  0  0  0  0
  -21.6296  -13.9419  -13.6255 O   0  0  0  0  0  0  0  0  0  0  0  0
  -24.3046  -11.2762  -13.7371 C   0  0  0  0  0  0  0  0  0  0  0  0
  -25.2208  -12.4976  -13.7831 O   0  0  0  0  0  0  0  0  0  0  0  0
  -19.2447  -18.6928  -10.4272 C   0  0  0  0  0  0  0  0  0  0  0  0
  -18.3189  -19.7901  -10.3936 O   0  0  0  0  0  0  0  0  0  0  0  0
  -23.4093  -15.1290  -14.8258 C   0  0  1  0  0  0  0  0  0  0  0  0
  -23.8820  -13.9000  -15.3500 O   0  0  0  0  0  0  0  0  0  0  0  0
  -23.6282   -9.1371  -14.8444 C   0  0  0  0  0  0  0  0  0  0  0  0
  -24.1053  -10.6351  -18.7684 C   0  0  0  0  0  0  0  0  0  0  0  0
  1  2  1  6  0  0  0
  1  6  1  0  0  0  0
  1 21  1  0  0  0  0
  3  4  1  1  0  0  0
  3  8  1  0  0  0  0
  3 28  1  0  0  0  0
  5  9  1  0  0  0  0
  5 25  1  0  0  0  0
  5 29  1  6  0  0  0
  6  7  1  6  0  0  0
  6 11  1  0  0  0  0
  8 12  1  0  0  0  0
  9 10  1  6  0  0  0
  9 14  1  0  0  0  0
 11 16  1  0  0  0  0
 12 13  1  1  0  0  0
 12 17  1  0  0  0  0
 14 15  1  6  0  0  0
 14 18  1  0  0  0  0
 15 31  1  0  0  0  0
 16 20  1  0  0  0  0
 17  2  1  6  0  0  0
 17 22  1  0  0  0  0
 18 19  1  1  0  0  0
 18 24  1  0  0  0  0
 18 30  1  0  0  0  0
 20 21  1  0  0  0  0
 20 26  1  1  0  0  0
 22 23  1  1  0  0  0
 22 28  1  0  0  0  0
 24 25  1  0  0  0  0
 26 27  1  0  0  0  0
 28 29  1  6  0  0  0
M  END
>  <CHROM.1>
-167.47265535,-155.13479134,-89.14070058,-160.08062732,4.36271009,96.65539318
-22.09970876,-14.62414693,-14.35888123,-0.70311835,-0.57509776,0.03192884

>  <Name>
ligand

>  <RI>
0

>  <Rbt.Current_Directory>
/home/itssahil/PROJECTS/Mol_Feturizer/New_Systems/rnas/4GPW

>  <Rbt.Executable>
rbdock ($Id: //depot/dev/client3/rdock/2013.1/src/exe/rbdock.cxx#4 $)

>  <Rbt.Library>
libRbt.so (2013.1, Build901 2013/11/27)

>  <Rbt.Parameter_File>
/export/apps/rDock/src/rDock_2013.1_src/data/scripts/dock_solv.prm

>  <Rbt.Receptor>
prm/pocket_docking_5.prm

>  <SCORE>
-19.3086

>  <SCORE.INTER>
-16.7837

>  <SCORE.INTER.CONST>
1

>  <SCORE.INTER.POLAR>
0

>  <SCORE.INTER.ROT>
6

>  <SCORE.INTER.SOLV>
16.898

>  <SCORE.INTER.VDW>
-24.4218

>  <SCORE.INTER.norm>
-0.541408

>  <SCORE.INTRA>
-2.52499

>  <SCORE.INTRA.DIHEDRAL>
-6.96883

>  <SCORE.INTRA.DIHEDRAL.0>
19.2558

>  <SCORE.INTRA.POLAR>
0

>  <SCORE.INTRA.POLAR.0>
0

>  <SCORE.INTRA.REPUL>
0

>  <SCORE.INTRA.REPUL.0>
0

>  <SCORE.INTRA.SOLV>
-1.43613

>  <SCORE.INTRA.SOLV.lig_0>
-64.5929

>  <SCORE.INTRA.VDW>
1.67749

>  <SCORE.INTRA.VDW.0>
-4.40538

>  <SCORE.INTRA.norm>
-0.0814514

>  <SCORE.RESTR>
0

>  <SCORE.RESTR.CAVITY>
0

>  <SCORE.RESTR.norm>
0

>  <SCORE.SYSTEM>
0

>  <SCORE.SYSTEM.CONST>
0

>  <SCORE.SYSTEM.DIHEDRAL>
0

>  <SCORE.SYSTEM.SOLV>
0

>  <SCORE.SYSTEM.norm>
0

>  <SCORE.heavy>
31

>  <SCORE.norm>
-0.622859

>  <RMSD>
0.693

$$$$
ligand
 OpenBabel11021811493D
libRbt.so/2013.1/901 2013/11/27
 31 33  0  0  0  0  0  0  0  0999 V2000
  -19.1245  -15.5423  -12.8240 C   0  0  2  0  0  0  0  0  0  0  0  0
  -19.7217  -16.1716  -13.9482 O   0  0  0  0  0  0  0  0  0  0  0  0
  -23.5400  -16.2094  -15.8440 C   0  0  2  0  0  0  0  0  0  0  0  0
  -24.9496  -16.3544  -16.0152 N   0  0  0  0  0  0  0  0  0  0  0  0
  -25.1146  -13.3304  -15.0014 C   0  0  2  0  0  0  0  0  0  0  0  0
  -17.5797  -15.3906  -13.1451 C   0  0  2  0  0  0  0  0  0  0  0  0
  -17.4151  -14.5863  -14.3649 N   0  0  0  0  0  0  0  0  0  0  0  0
  -22.9519  -17.5936  -15.3263 C   0  0  0  0  0  0  0  0  0  0  0  0
  -25.4767  -12.4506  -16.2436 C   0  0  2  0  0  0  0  0  0  0  0  0
  -25.3497  -13.2498  -17.3960 O   0  0  0  0  0  0  0  0  0  0  0  0
  -16.9270  -16.8190  -13.3184 C   0  0  0  0  0  0  0  0  0  0  0  0
  -21.3756  -17.4352  -15.1409 C   0  0  2  0  0  0  0  0  0  0  0  0
  -20.8070  -18.7147  -14.6644 N   0  0  0  0  0  0  0  0  0  0  0  0
  -24.5064  -11.1982  -16.3000 C   0  0  1  0  0  0  0  0  0  0  0  0
  -24.8377  -10.3398  -17.4932 N   0  0  0  0  0  0  0  0  0  0  0  0
  -17.4829  -17.8697  -12.2699 C   0  0  0  0  0  0  0  0  0  0  0  0
  -21.0945  -16.2949  -14.0780 C   0  0  2  0  0  0  0  0  0  0  0  0
  -24.6960  -10.3164  -14.9458 C   0  0  1  0  0  0  0  0  0  0  0  0
  -26.0081   -9.8160  -14.7872 O   0  0  0  0  0  0  0  0  0  0  0  0
  -18.5717  -17.5947  -11.5165 C   0  0  2  0  0  0  0  0  0  0  0  0
  -19.2808  -16.3551  -11.6137 O   0  0  0  0  0  0  0  0  0  0  0  0
  -21.7032  -14.9293  -14.5998 C   0  0  2  0  0  0  0  0  0  0  0  0
  -21.4536  -13.9017  -13.6264 O   0  0  0  0  0  0  0  0  0  0  0  0
  -24.3575  -11.2179  -13.7122 C   0  0  0  0  0  0  0  0  0  0  0  0
  -25.2019  -12.4905  -13.7402 O   0  0  0  0  0  0  0  0  0  0  0  0
  -19.1344  -18.5816  -10.4947 C   0  0  0  0  0  0  0  0  0  0  0  0
  -20.3112  -19.1814  -11.0582 O   0  0  0  0  0  0  0  0  0  0  0  0
  -23.2651  -15.0813  -14.7856 C   0  0  1  0  0  0  0  0  0  0  0  0
  -23.7692  -13.8464  -15.2645 O   0  0  0  0  0  0  0  0  0  0  0  0
  -23.7932   -9.0671  -14.8591 C   0  0  0  0  0  0  0  0  0  0  0  0
  -24.0931  -10.6271  -18.7361 C   0  0  0  0  0  0  0  0  0  0  0  0
  1  2  1  6  0  0  0
  1  6  1  0  0  0  0
  1 21  1  0  0  0  0
  3  4  1  1  0  0  0
  3  8  1  0  0  0  0
  3 28  1  0  0  0  0
  5  9  1  0  0  0  0
  5 25  1  0  0  0  0
  5 29  1  6  0  0  0
  6  7  1  6  0  0  0
  6 11  1  0  0  0  0
  8 12  1  0  0  0  0
  9 10  1  6  0  0  0
  9 14  1  0  0  0  0
 11 16  1  0  0  0  0
 12 13  1  1  0  0  0
 12 17  1  0  0  0  0
 14 15  1  6  0  0  0
 14 18  1  0  0  0  0
 15 31  1  0  0  0  0
 16 20  1  0  0  0  0
 17  2  1  6  0  0  0
 17 22  1  0  0  0  0
 18 19  1  1  0  0  0
 18 24  1  0  0  0  0
 18 30  1  0  0  0  0
 20 21  1  0  0  0  0
 20 26  1  1  0  0  0
 22 23  1  1  0  0  0
 22 28  1  0  0  0  0
 24 25  1  0  0  0  0
 26 27  1  0  0  0  0
 28 29  1  6  0  0  0
M  END
>  <CHROM.1>
-171.15906243,-150.46163189,-92.18232523,-161.08618546,-103.70612678,91.54198704
-22.08135278,-14.57724050,-14.41165950,-0.72830147,-0.50600310,-0.01376765

>  <Name>
ligand

>  <RI>
0

>  <Rbt.Current_Directory>
/home/itssahil/PROJECTS/Mol_Feturizer/New_Systems/rnas/4GPW

>  <Rbt.Executable>
rbdock ($Id: //depot/dev/client3/rdock/2013.1/src/exe/rbdock.cxx#4 $)

>  <Rbt.Library>
libRbt.so (2013.1, Build901 2013/11/27)

>  <Rbt.Parameter_File>
/export/apps/rDock/src/rDock_2013.1_src/data/scripts/dock_solv.prm

>  <Rbt.Receptor>
prm/pocket_docking_4.prm

>  <SCORE>
-20.1766

>  <SCORE.INTER>
-16.5792

>  <SCORE.INTER.CONST>
1

>  <SCORE.INTER.POLAR>
0

>  <SCORE.INTER.ROT>
6

>  <SCORE.INTER.SOLV>
16.5702

>  <SCORE.INTER.VDW>
-24.1762

>  <SCORE.INTER.norm>
-0.534812

>  <SCORE.INTRA>
-3.59741

>  <SCORE.INTRA.DIHEDRAL>
-7.1662

>  <SCORE.INTRA.DIHEDRAL.0>
19.2558

>  <SCORE.INTRA.POLAR>
0

>  <SCORE.INTRA.POLAR.0>
0

>  <SCORE.INTRA.REPUL>
0

>  <SCORE.INTRA.REPUL.0>
0

>  <SCORE.INTRA.SOLV>
-0.891934

>  <SCORE.INTRA.SOLV.lig_0>
-64.5929

>  <SCORE.INTRA.VDW>
0.43166

>  <SCORE.INTRA.VDW.0>
-4.40538

>  <SCORE.INTRA.norm>
-0.116045

>  <SCORE.RESTR>
0

>  <SCORE.RESTR.CAVITY>
0

>  <SCORE.RESTR.norm>
0

>  <SCORE.SYSTEM>
0

>  <SCORE.SYSTEM.CONST>
0

>  <SCORE.SYSTEM.DIHEDRAL>
0

>  <SCORE.SYSTEM.SOLV>
0

>  <SCORE.SYSTEM.norm>
0

>  <SCORE.heavy>
31

>  <SCORE.norm>
-0.650858

>  <RMSD>
0.696

$$$$
ligand
 OpenBabel11021811493D
libRbt.so/2013.1/901 2013/11/27
 31 33  0  0  0  0  0  0  0  0999 V2000
  -19.1225  -15.5177  -12.7798 C   0  0  2  0  0  0  0  0  0  0  0  0
  -19.7119  -16.1345  -13.9149 O   0  0  0  0  0  0  0  0  0  0  0  0
  -23.5211  -16.1483  -15.8293 C   0  0  2  0  0  0  0  0  0  0  0  0
  -24.9293  -16.2949  -16.0100 N   0  0  0  0  0  0  0  0  0  0  0  0
  -25.1050  -13.2854  -14.9253 C   0  0  2  0  0  0  0  0  0  0  0  0
  -17.5740  -15.3712  -13.0845 C   0  0  2  0  0  0  0  0  0  0  0  0
  -17.3933  -14.5576  -14.2958 N   0  0  0  0  0  0  0  0  0  0  0  0
  -22.9304  -17.5404  -15.3362 C   0  0  0  0  0  0  0  0  0  0  0  0
  -25.4930  -12.4245  -16.1728 C   0  0  2  0  0  0  0  0  0  0  0  0
  -25.3815  -13.2386  -17.3163 O   0  0  0  0  0  0  0  0  0  0  0  0
  -16.9268  -16.8015  -13.2635 C   0  0  0  0  0  0  0  0  0  0  0  0
  -21.3556  -17.3802  -15.1402 C   0  0  2  0  0  0  0  0  0  0  0  0
  -20.7846  -18.6668  -14.6863 N   0  0  0  0  0  0  0  0  0  0  0  0
  -24.5306  -11.1680  -16.2628 C   0  0  1  0  0  0  0  0  0  0  0  0
  -24.8869  -10.3276  -17.4616 N   0  0  0  0  0  0  0  0  0  0  0  0
  -17.4981  -17.8581  -12.2293 C   0  0  0  0  0  0  0  0  0  0  0  0
  -21.0836  -16.2601  -14.0537 C   0  0  2  0  0  0  0  0  0  0  0  0
  -24.7017  -10.2688  -14.9176 C   0  0  1  0  0  0  0  0  0  0  0  0
  -26.0136   -9.7731  -14.7432 O   0  0  0  0  0  0  0  0  0  0  0  0
  -18.5928  -17.5838  -11.4843 C   0  0  2  0  0  0  0  0  0  0  0  0
  -19.2947  -16.3398  -11.5779 O   0  0  0  0  0  0  0  0  0  0  0  0
  -21.6948  -14.8865  -14.5514 C   0  0  2  0  0  0  0  0  0  0  0  0
  -21.4534  -13.8775  -13.5567 O   0  0  0  0  0  0  0  0  0  0  0  0
  -24.3373  -11.1517  -13.6780 C   0  0  0  0  0  0  0  0  0  0  0  0
  -25.1752  -12.4289  -13.6742 O   0  0  0  0  0  0  0  0  0  0  0  0
  -19.1705  -18.5763  -10.4763 C   0  0  0  0  0  0  0  0  0  0  0  0
  -20.3691  -19.1329  -11.0382 O   0  0  0  0  0  0  0  0  0  0  0  0
  -23.2552  -15.0404  -14.7476 C   0  0  1  0  0  0  0  0  0  0  0  0
  -23.7616  -13.7980  -15.2044 O   0  0  0  0  0  0  0  0  0  0  0  0
  -23.8044   -9.0139  -14.8634 C   0  0  0  0  0  0  0  0  0  0  0  0
  -24.2098  -10.6705  -18.7288 C   0  0  0  0  0  0  0  0  0  0  0  0
  1  2  1  6  0  0  0
  1  6  1  0  0  0  0
  1 21  1  0  0  0  0
  3  4  1  1  0  0  0
  3  8  1  0  0  0  0
  3 28  1  0  0  0  0
  5  9  1  0  0  0  0
  5 25  1  0  0  0  0
  5 29  1  6  0  0  0
  6  7  1  6  0  0  0
  6 11  1  0  0  0  0
  8 12  1  0  0  0  0
  9 10  1  6  0  0  0
  9 14  1  0  0  0  0
 11 16  1  0  0  0  0
 12 13  1  1  0  0  0
 12 17  1  0  0  0  0
 14 15  1  6  0  0  0
 14 18  1  0  0  0  0
 15 31  1  0  0  0  0
 16 20  1  0  0  0  0
 17  2  1  6  0  0  0
 17 22  1  0  0  0  0
 18 19  1  1  0  0  0
 18 24  1  0  0  0  0
 18 30  1  0  0  0  0
 20 21  1  0  0  0  0
 20 26  1  1  0  0  0
 22 23  1  1  0  0  0
 22 28  1  0  0  0  0
 24 25  1  0  0  0  0
 26 27  1  0  0  0  0
 28 29  1  6  0  0  0
M  END
>  <CHROM.1>
-171.72940159,-148.66016990,-89.33108827,-161.50013695,-105.57308828,92.25383883
-22.08735227,-14.54385750,-14.37559278,-0.71698735,-0.52032882,0.00787494

>  <Name>
ligand

>  <RI>
0

>  <Rbt.Current_Directory>
/home/itssahil/PROJECTS/Mol_Feturizer/New_Systems/rnas/4GPW

>  <Rbt.Executable>
rbdock ($Id: //depot/dev/client3/rdock/2013.1/src/exe/rbdock.cxx#4 $)

>  <Rbt.Library>
libRbt.so (2013.1, Build901 2013/11/27)

>  <Rbt.Parameter_File>
/export/apps/rDock/src/rDock_2013.1_src/data/scripts/dock_solv.prm

>  <Rbt.Receptor>
prm/pocket_docking_8.prm

>  <SCORE>
-20.1183

>  <SCORE.INTER>
-16.6846

>  <SCORE.INTER.CONST>
1

>  <SCORE.INTER.POLAR>
0

>  <SCORE.INTER.ROT>
6

>  <SCORE.INTER.SOLV>
16.7599

>  <SCORE.INTER.VDW>
-24.3097

>  <SCORE.INTER.norm>
-0.538214

>  <SCORE.INTRA>
-3.43366

>  <SCORE.INTRA.DIHEDRAL>
-6.9618

>  <SCORE.INTRA.DIHEDRAL.0>
19.2558

>  <SCORE.INTRA.POLAR>
0

>  <SCORE.INTRA.POLAR.0>
0

>  <SCORE.INTRA.REPUL>
0

>  <SCORE.INTRA.REPUL.0>
0

>  <SCORE.INTRA.SOLV>
-0.874764

>  <SCORE.INTRA.SOLV.lig_0>
-64.5929

>  <SCORE.INTRA.VDW>
0.484623

>  <SCORE.INTRA.VDW.0>
-4.40538

>  <SCORE.INTRA.norm>
-0.110763

>  <SCORE.RESTR>
0

>  <SCORE.RESTR.CAVITY>
0

>  <SCORE.RESTR.norm>
0

>  <SCORE.SYSTEM>
0

>  <SCORE.SYSTEM.CONST>
0

>  <SCORE.SYSTEM.DIHEDRAL>
0

>  <SCORE.SYSTEM.SOLV>
0

>  <SCORE.SYSTEM.norm>
0

>  <SCORE.heavy>
31

>  <SCORE.norm>
-0.648977

>  <RMSD>
0.697

$$$$
ligand
 OpenBabel11021811493D
libRbt.so/2013.1/901 2013/11/27
 31 33  0  0  0  0  0  0  0  0999 V2000
  -19.3194  -15.5604  -12.7297 C   0  0  2  0  0  0  0  0  0  0  0  0
  -19.8852  -16.2222  -13.8515 O   0  0  0  0  0  0  0  0  0  0  0  0
  -23.6319  -16.3130  -15.8833 C   0  0  2  0  0  0  0  0  0  0  0  0
  -25.0364  -16.4481  -16.0987 N   0  0  0  0  0  0  0  0  0  0  0  0
  -25.1625  -13.3289  -15.1924 C   0  0  2  0  0  0  0  0  0  0  0  0
  -17.7785  -15.3573  -13.0408 C   0  0  2  0  0  0  0  0  0  0  0  0
  -17.6329  -14.5605  -14.2679 N   0  0  0  0  0  0  0  0  0  0  0  0
  -23.0847  -17.6743  -15.2691 C   0  0  0  0  0  0  0  0  0  0  0  0
  -25.4382  -12.3859  -16.4102 C   0  0  2  0  0  0  0  0  0  0  0  0
  -25.3318  -13.1513  -17.5873 O   0  0  0  0  0  0  0  0  0  0  0  0
  -17.0743  -16.7634  -13.1939 C   0  0  0  0  0  0  0  0  0  0  0  0
  -21.5139  -17.5273  -15.0341 C   0  0  2  0  0  0  0  0  0  0  0  0
  -20.9831  -18.7860  -14.4675 N   0  0  0  0  0  0  0  0  0  0  0  0
  -24.3913  -11.1955  -16.3992 C   0  0  1  0  0  0  0  0  0  0  0  0
  -24.6389  -10.2774  -17.5681 N   0  0  0  0  0  0  0  0  0  0  0  0
  -17.6008  -17.8222  -12.1384 C   0  0  0  0  0  0  0  0  0  0  0  0
  -21.2540  -16.3339  -14.0254 C   0  0  2  0  0  0  0  0  0  0  0  0
  -24.5602  -10.3507  -15.0190 C   0  0  1  0  0  0  0  0  0  0  0  0
  -25.8426   -9.7749  -14.8727 O   0  0  0  0  0  0  0  0  0  0  0  0
  -18.7046  -17.5781  -11.3962 C   0  0  2  0  0  0  0  0  0  0  0  0
  -19.4563  -16.3655  -11.5119 O   0  0  0  0  0  0  0  0  0  0  0  0
  -21.8220  -14.9910  -14.6434 C   0  0  2  0  0  0  0  0  0  0  0  0
  -21.5920  -13.9147  -13.7190 O   0  0  0  0  0  0  0  0  0  0  0  0
  -24.3092  -11.3135  -13.8111 C   0  0  0  0  0  0  0  0  0  0  0  0
  -25.2296  -12.5291  -13.9042 O   0  0  0  0  0  0  0  0  0  0  0  0
  -19.2400  -18.5737  -10.3681 C   0  0  0  0  0  0  0  0  0  0  0  0
  -18.3732  -19.7186  -10.3654 O   0  0  0  0  0  0  0  0  0  0  0  0
  -23.3782  -15.1320  -14.8787 C   0  0  1  0  0  0  0  0  0  0  0  0
  -23.8453  -13.9186  -15.4428 O   0  0  0  0  0  0  0  0  0  0  0  0
  -23.5846   -9.1640  -14.8667 C   0  0  0  0  0  0  0  0  0  0  0  0
  -23.9795  -10.6399  -18.8391 C   0  0  0  0  0  0  0  0  0  0  0  0
  1  2  1  6  0  0  0
  1  6  1  0  0  0  0
  1 21  1  0  0  0  0
  3  4  1  1  0  0  0
  3  8  1  0  0  0  0
  3 28  1  0  0  0  0
  5  9  1  0  0  0  0
  5 25  1  0  0  0  0
  5 29  1  6  0  0  0
  6  7  1  6  0  0  0
  6 11  1  0  0  0  0
  8 12  1  0  0  0  0
  9 10  1  6  0  0  0
  9 14  1  0  0  0  0
 11 16  1  0  0  0  0
 12 13  1  1  0  0  0
 12 17  1  0  0  0  0
 14 15  1  6  0  0  0
 14 18  1  0  0  0  0
 15 31  1  0  0  0  0
 16 20  1  0  0  0  0
 17  2  1  6  0  0  0
 17 22  1  0  0  0  0
 18 19  1  1  0  0  0
 18 24  1  0  0  0  0
 18 30  1  0  0  0  0
 20 21  1  0  0  0  0
 20 26  1  1  0  0  0
 22 23  1  1  0  0  0
 22 28  1  0  0  0  0
 24 25  1  0  0  0  0
 26 27  1  0  0  0  0
 28 29  1  6  0  0  0
M  END
>  <CHROM.1>
-167.69226874,-157.64689972,-86.71454943,-159.94938966,0.41352264,95.52575758
-22.06494544,-14.61496691,-14.40028315,-0.71155229,-0.57220471,0.00633403

>  <Name>
ligand

>  <RI>
0

>  <Rbt.Current_Directory>
/home/itssahil/PROJECTS/Mol_Feturizer/New_Systems/rnas/4GPW

>  <Rbt.Executable>
rbdock ($Id: //depot/dev/client3/rdock/2013.1/src/exe/rbdock.cxx#4 $)

>  <Rbt.Library>
libRbt.so (2013.1, Build901 2013/11/27)

>  <Rbt.Parameter_File>
/export/apps/rDock/src/rDock_2013.1_src/data/scripts/dock_solv.prm

>  <Rbt.Receptor>
prm/pocket_docking_4.prm

>  <SCORE>
-19.3688

>  <SCORE.INTER>
-16.4732

>  <SCORE.INTER.CONST>
1

>  <SCORE.INTER.POLAR>
0

>  <SCORE.INTER.ROT>
6

>  <SCORE.INTER.SOLV>
16.6077

>  <SCORE.INTER.VDW>
-24.118

>  <SCORE.INTER.norm>
-0.531393

>  <SCORE.INTRA>
-2.89562

>  <SCORE.INTRA.DIHEDRAL>
-7.72119

>  <SCORE.INTRA.DIHEDRAL.0>
19.2558

>  <SCORE.INTRA.POLAR>
0

>  <SCORE.INTRA.POLAR.0>
0

>  <SCORE.INTRA.REPUL>
0

>  <SCORE.INTRA.REPUL.0>
0

>  <SCORE.INTRA.SOLV>
-1.50679

>  <SCORE.INTRA.SOLV.lig_0>
-64.5929

>  <SCORE.INTRA.VDW>
1.71837

>  <SCORE.INTRA.VDW.0>
-4.40538

>  <SCORE.INTRA.norm>
-0.0934071

>  <SCORE.RESTR>
0

>  <SCORE.RESTR.CAVITY>
0

>  <SCORE.RESTR.norm>
0

>  <SCORE.SYSTEM>
0

>  <SCORE.SYSTEM.CONST>
0

>  <SCORE.SYSTEM.DIHEDRAL>
0

>  <SCORE.SYSTEM.SOLV>
0

>  <SCORE.SYSTEM.norm>
0

>  <SCORE.heavy>
31

>  <SCORE.norm>
-0.6248

>  <RMSD>
0.701

$$$$
ligand
 OpenBabel11021811493D
libRbt.so/2013.1/901 2013/11/27
 31 33  0  0  0  0  0  0  0  0999 V2000
  -19.1054  -15.5401  -12.8306 C   0  0  2  0  0  0  0  0  0  0  0  0
  -19.7055  -16.1839  -13.9450 O   0  0  0  0  0  0  0  0  0  0  0  0
  -23.5254  -16.1957  -15.8380 C   0  0  2  0  0  0  0  0  0  0  0  0
  -24.9357  -16.3336  -16.0087 N   0  0  0  0  0  0  0  0  0  0  0  0
  -25.0881  -13.3159  -14.9843 C   0  0  2  0  0  0  0  0  0  0  0  0
  -17.5585  -15.4083  -13.1501 C   0  0  2  0  0  0  0  0  0  0  0  0
  -17.3832  -14.6275  -14.3835 N   0  0  0  0  0  0  0  0  0  0  0  0
  -22.9430  -17.5849  -15.3273 C   0  0  0  0  0  0  0  0  0  0  0  0
  -25.4580  -12.4553  -16.2376 C   0  0  2  0  0  0  0  0  0  0  0  0
  -25.3366  -13.2717  -17.3784 O   0  0  0  0  0  0  0  0  0  0  0  0
  -16.9185  -16.8456  -13.2962 C   0  0  0  0  0  0  0  0  0  0  0  0
  -21.3658  -17.4344  -15.1425 C   0  0  2  0  0  0  0  0  0  0  0  0
  -20.8026  -18.7186  -14.6726 N   0  0  0  0  0  0  0  0  0  0  0  0
  -24.4894  -11.2030  -16.3182 C   0  0  1  0  0  0  0  0  0  0  0  0
  -24.8282  -10.3630  -17.5224 N   0  0  0  0  0  0  0  0  0  0  0  0
  -17.4867  -17.8723  -12.2307 C   0  0  0  0  0  0  0  0  0  0  0  0
  -21.0789  -16.3005  -14.0743 C   0  0  2  0  0  0  0  0  0  0  0  0
  -24.6724  -10.3009  -14.9765 C   0  0  1  0  0  0  0  0  0  0  0  0
  -25.9842   -9.7995  -14.8182 O   0  0  0  0  0  0  0  0  0  0  0  0
  -18.5749  -17.5739  -11.4853 C   0  0  2  0  0  0  0  0  0  0  0  0
  -19.2722  -16.3298  -11.6064 O   0  0  0  0  0  0  0  0  0  0  0  0
  -21.6820  -14.9296  -14.5891 C   0  0  2  0  0  0  0  0  0  0  0  0
  -21.4270  -13.9078  -13.6110 O   0  0  0  0  0  0  0  0  0  0  0  0
  -24.3262  -11.1834  -13.7313 C   0  0  0  0  0  0  0  0  0  0  0  0
  -25.1694  -12.4571  -13.7354 O   0  0  0  0  0  0  0  0  0  0  0  0
  -19.1493  -18.5373  -10.4476 C   0  0  0  0  0  0  0  0  0  0  0  0
  -20.3193  -19.1506  -11.0108 O   0  0  0  0  0  0  0  0  0  0  0  0
  -23.2446  -15.0739  -14.7744 C   0  0  1  0  0  0  0  0  0  0  0  0
  -23.7437  -13.8344  -15.2470 O   0  0  0  0  0  0  0  0  0  0  0  0
  -23.7706   -9.0496  -14.9137 C   0  0  0  0  0  0  0  0  0  0  0  0
  -24.0863  -10.6646  -18.7635 C   0  0  0  0  0  0  0  0  0  0  0  0
  1  2  1  6  0  0  0
  1  6  1  0  0  0  0
  1 21  1  0  0  0  0
  3  4  1  1  0  0  0
  3  8  1  0  0  0  0
  3 28  1  0  0  0  0
  5  9  1  0  0  0  0
  5 25  1  0  0  0  0
  5 29  1  6  0  0  0
  6  7  1  6  0  0  0
  6 11  1  0  0  0  0
  8 12  1  0  0  0  0
  9 10  1  6  0  0  0
  9 14  1  0  0  0  0
 11 16  1  0  0  0  0
 12 13  1  1  0  0  0
 12 17  1  0  0  0  0
 14 15  1  6  0  0  0
 14 18  1  0  0  0  0
 15 31  1  0  0  0  0
 16 20  1  0  0  0  0
 17  2  1  6  0  0  0
 17 22  1  0  0  0  0
 18 19  1  1  0  0  0
 18 24  1  0  0  0  0
 18 30  1  0  0  0  0
 20 21  1  0  0  0  0
 20 26  1  1  0  0  0
 22 23  1  1  0  0  0
 22 28  1  0  0  0  0
 24 25  1  0  0  0  0
 26 27  1  0  0  0  0
 28 29  1  6  0  0  0
M  END
>  <CHROM.1>
-171.36038531,-149.13246989,-92.42310275,-162.30592478,-102.89194060,91.31735996
-22.06644582,-14.57353816,-14.40946108,-0.72718476,-0.51144975,-0.01319056

>  <Name>
ligand

>  <RI>
0

>  <Rbt.Current_Directory>
/home/itssahil/PROJECTS/Mol_Feturizer/New_Systems/rnas/4GPW

>  <Rbt.Executable>
rbdock ($Id: //depot/dev/client3/rdock/2013.1/src/exe/rbdock.cxx#4 $)

>  <Rbt.Library>
libRbt.so (2013.1, Build901 2013/11/27)

>  <Rbt.Parameter_File>
/export/apps/rDock/src/rDock_2013.1_src/data/scripts/dock_solv.prm

>  <Rbt.Receptor>
prm/pocket_docking_4.prm

>  <SCORE>
-20.1345

>  <SCORE.INTER>
-16.545

>  <SCORE.INTER.CONST>
1

>  <SCORE.INTER.POLAR>
0

>  <SCORE.INTER.ROT>
6

>  <SCORE.INTER.SOLV>
16.6013

>  <SCORE.INTER.VDW>
-24.1638

>  <SCORE.INTER.norm>
-0.53371

>  <SCORE.INTRA>
-3.58948

>  <SCORE.INTRA.DIHEDRAL>
-7.12358

>  <SCORE.INTRA.DIHEDRAL.0>
19.2558

>  <SCORE.INTRA.POLAR>
0

>  <SCORE.INTRA.POLAR.0>
0

>  <SCORE.INTRA.REPUL>
0

>  <SCORE.INTRA.REPUL.0>
0

>  <SCORE.INTRA.SOLV>
-0.981613

>  <SCORE.INTRA.SOLV.lig_0>
-64.5929

>  <SCORE.INTRA.VDW>
0.463121

>  <SCORE.INTRA.VDW.0>
-4.40538

>  <SCORE.INTRA.norm>
-0.11579

>  <SCORE.RESTR>
0

>  <SCORE.RESTR.CAVITY>
0

>  <SCORE.RESTR.norm>
0

>  <SCORE.SYSTEM>
0

>  <SCORE.SYSTEM.CONST>
0

>  <SCORE.SYSTEM.DIHEDRAL>
0

>  <SCORE.SYSTEM.SOLV>
0

>  <SCORE.SYSTEM.norm>
0

>  <SCORE.heavy>
31

>  <SCORE.norm>
-0.649499

>  <RMSD>
0.704

$$$$
ligand
 OpenBabel11021811493D
libRbt.so/2013.1/901 2013/11/27
 31 33  0  0  0  0  0  0  0  0999 V2000
  -19.1576  -15.7056  -12.6674 C   0  0  2  0  0  0  0  0  0  0  0  0
  -19.7439  -16.1353  -13.8873 O   0  0  0  0  0  0  0  0  0  0  0  0
  -23.5257  -15.9719  -15.8484 C   0  0  2  0  0  0  0  0  0  0  0  0
  -24.9336  -16.0828  -16.0554 N   0  0  0  0  0  0  0  0  0  0  0  0
  -25.0786  -13.1440  -14.8170 C   0  0  2  0  0  0  0  0  0  0  0  0
  -17.6251  -15.4290  -12.9627 C   0  0  2  0  0  0  0  0  0  0  0  0
  -17.5109  -14.4014  -14.0080 N   0  0  0  0  0  0  0  0  0  0  0  0
  -22.9658  -17.4002  -15.4282 C   0  0  0  0  0  0  0  0  0  0  0  0
  -25.4933  -12.3446  -16.0965 C   0  0  2  0  0  0  0  0  0  0  0  0
  -25.3913  -13.2093  -17.2031 O   0  0  0  0  0  0  0  0  0  0  0  0
  -16.9163  -16.7689  -13.4085 C   0  0  0  0  0  0  0  0  0  0  0  0
  -21.3913  -17.2795  -15.2031 C   0  0  2  0  0  0  0  0  0  0  0  0
  -20.8489  -18.5999  -14.8163 N   0  0  0  0  0  0  0  0  0  0  0  0
  -24.5442  -11.0852  -16.2586 C   0  0  1  0  0  0  0  0  0  0  0  0
  -24.9263  -10.3038  -17.4889 N   0  0  0  0  0  0  0  0  0  0  0  0
  -17.4135  -18.0227  -12.5759 C   0  0  0  0  0  0  0  0  0  0  0  0
  -21.1154  -16.2282  -14.0507 C   0  0  2  0  0  0  0  0  0  0  0  0
  -24.7036  -10.1269  -14.9534 C   0  0  1  0  0  0  0  0  0  0  0  0
  -26.0173   -9.6351  -14.7817 O   0  0  0  0  0  0  0  0  0  0  0  0
  -18.5022  -17.9431  -11.7776 C   0  0  2  0  0  0  0  0  0  0  0  0
  -19.2633  -16.7395  -11.6330 O   0  0  0  0  0  0  0  0  0  0  0  0
  -21.6961  -14.8179  -14.4768 C   0  0  2  0  0  0  0  0  0  0  0  0
  -21.4514  -13.8716  -13.4229 O   0  0  0  0  0  0  0  0  0  0  0  0
  -24.3124  -10.9488  -13.6804 C   0  0  0  0  0  0  0  0  0  0  0  0
  -25.1381  -12.2318  -13.6054 O   0  0  0  0  0  0  0  0  0  0  0  0
  -19.0093  -19.1295  -10.9590 C   0  0  0  0  0  0  0  0  0  0  0  0
  -19.1311  -18.7062   -9.5922 O   0  0  0  0  0  0  0  0  0  0  0  0
  -23.2560  -14.9324  -14.7017 C   0  0  1  0  0  0  0  0  0  0  0  0
  -23.7347  -13.6572  -15.0931 O   0  0  0  0  0  0  0  0  0  0  0  0
  -23.8174   -8.8630  -14.9703 C   0  0  0  0  0  0  0  0  0  0  0  0
  -24.1708  -10.6080  -18.7212 C   0  0  0  0  0  0  0  0  0  0  0  0
  1  2  1  6  0  0  0
  1  6  1  0  0  0  0
  1 21  1  0  0  0  0
  3  4  1  1  0  0  0
  3  8  1  0  0  0  0
  3 28  1  0  0  0  0
  5  9  1  0  0  0  0
  5 25  1  0  0  0  0
  5 29  1  6  0  0  0
  6  7  1  6  0  0  0
  6 11  1  0  0  0  0
  8 12  1  0  0  0  0
  9 10  1  6  0  0  0
  9 14  1  0  0  0  0
 11 16  1  0  0  0  0
 12 13  1  1  0  0  0
 12 17  1  0  0  0  0
 14 15  1  6  0  0  0
 14 18  1  0  0  0  0
 15 31  1  0  0  0  0
 16 20  1  0  0  0  0
 17  2  1  6  0  0  0
 17 22  1  0  0  0  0
 18 19  1  1  0  0  0
 18 24  1  0  0  0  0
 18 30  1  0  0  0  0
 20 21  1  0  0  0  0
 20 26  1  1  0  0  0
 22 23  1  1  0  0  0
 22 28  1  0  0  0  0
 24 25  1  0  0  0  0
 26 27  1  0  0  0  0
 28 29  1  6  0  0  0
M  END
>  <CHROM.1>
-167.92791329,-141.92123820,-95.12248147,-155.82664868,126.88191826,91.44397723
-22.04058765,-14.50392437,-14.34048258,-0.66854740,-0.59415875,0.10539705

>  <Name>
ligand

>  <RI>
0

>  <Rbt.Current_Directory>
/home/itssahil/PROJECTS/Mol_Feturizer/New_Systems/rnas/4GPW

>  <Rbt.Executable>
rbdock ($Id: //depot/dev/client3/rdock/2013.1/src/exe/rbdock.cxx#4 $)

>  <Rbt.Library>
libRbt.so (2013.1, Build901 2013/11/27)

>  <Rbt.Parameter_File>
/export/apps/rDock/src/rDock_2013.1_src/data/scripts/dock_solv.prm

>  <Rbt.Receptor>
prm/pocket_docking_4.prm

>  <SCORE>
-18.9867

>  <SCORE.INTER>
-16.7949

>  <SCORE.INTER.CONST>
1

>  <SCORE.INTER.POLAR>
0

>  <SCORE.INTER.ROT>
6

>  <SCORE.INTER.SOLV>
17.127

>  <SCORE.INTER.VDW>
-24.5056

>  <SCORE.INTER.norm>
-0.541771

>  <SCORE.INTRA>
-2.19181

>  <SCORE.INTRA.DIHEDRAL>
-4.58754

>  <SCORE.INTRA.DIHEDRAL.0>
19.2558

>  <SCORE.INTRA.POLAR>
0

>  <SCORE.INTRA.POLAR.0>
0

>  <SCORE.INTRA.REPUL>
0

>  <SCORE.INTRA.REPUL.0>
0

>  <SCORE.INTRA.SOLV>
-0.656871

>  <SCORE.INTRA.SOLV.lig_0>
-64.5929

>  <SCORE.INTRA.VDW>
0.430393

>  <SCORE.INTRA.VDW.0>
-4.40538

>  <SCORE.INTRA.norm>
-0.0707037

>  <SCORE.RESTR>
0

>  <SCORE.RESTR.CAVITY>
0

>  <SCORE.RESTR.norm>
0

>  <SCORE.SYSTEM>
0

>  <SCORE.SYSTEM.CONST>
0

>  <SCORE.SYSTEM.DIHEDRAL>
0

>  <SCORE.SYSTEM.SOLV>
0

>  <SCORE.SYSTEM.norm>
0

>  <SCORE.heavy>
31

>  <SCORE.norm>
-0.612475

>  <RMSD>
0.704

$$$$
ligand
 OpenBabel11021811493D
libRbt.so/2013.1/901 2013/11/27
 31 33  0  0  0  0  0  0  0  0999 V2000
  -19.3666  -15.6192  -12.6553 C   0  0  2  0  0  0  0  0  0  0  0  0
  -19.9196  -16.2385  -13.8074 O   0  0  0  0  0  0  0  0  0  0  0  0
  -23.6591  -16.2816  -15.8542 C   0  0  2  0  0  0  0  0  0  0  0  0
  -25.0609  -16.4257  -16.0808 N   0  0  0  0  0  0  0  0  0  0  0  0
  -25.2169  -13.3359  -14.9871 C   0  0  2  0  0  0  0  0  0  0  0  0
  -17.8237  -15.3988  -12.9441 C   0  0  2  0  0  0  0  0  0  0  0  0
  -17.6700  -14.5540  -14.1376 N   0  0  0  0  0  0  0  0  0  0  0  0
  -23.0943  -17.6637  -15.3059 C   0  0  0  0  0  0  0  0  0  0  0  0
  -25.5862  -12.4493  -16.2222 C   0  0  2  0  0  0  0  0  0  0  0  0
  -25.5407  -13.2616  -17.3714 O   0  0  0  0  0  0  0  0  0  0  0  0
  -17.1128  -16.7954  -13.1457 C   0  0  0  0  0  0  0  0  0  0  0  0
  -21.5263  -17.5064  -15.0585 C   0  0  2  0  0  0  0  0  0  0  0  0
  -20.9793  -18.7840  -14.5527 N   0  0  0  0  0  0  0  0  0  0  0  0
  -24.5626  -11.2433  -16.3270 C   0  0  1  0  0  0  0  0  0  0  0  0
  -24.9003  -10.3790  -17.5142 N   0  0  0  0  0  0  0  0  0  0  0  0
  -17.6448  -17.8965  -12.1374 C   0  0  0  0  0  0  0  0  0  0  0  0
  -21.2862  -16.3607  -13.9913 C   0  0  2  0  0  0  0  0  0  0  0  0
  -24.6590  -10.3440  -14.9744 C   0  0  1  0  0  0  0  0  0  0  0  0
  -25.9397   -9.7826  -14.7700 O   0  0  0  0  0  0  0  0  0  0  0  0
  -18.7561  -17.6856  -11.3963 C   0  0  2  0  0  0  0  0  0  0  0  0
  -19.5114  -16.4720  -11.4714 O   0  0  0  0  0  0  0  0  0  0  0  0
  -21.8716  -14.9971  -14.5444 C   0  0  2  0  0  0  0  0  0  0  0  0
  -21.6595  -13.9645  -13.5673 O   0  0  0  0  0  0  0  0  0  0  0  0
  -24.3145  -11.2514  -13.7467 C   0  0  0  0  0  0  0  0  0  0  0  0
  -25.2167  -12.4839  -13.7310 O   0  0  0  0  0  0  0  0  0  0  0  0
  -19.2971  -18.7225  -10.4130 C   0  0  0  0  0  0  0  0  0  0  0  0
  -18.4225  -19.8611  -10.4427 O   0  0  0  0  0  0  0  0  0  0  0  0
  -23.4250  -15.1481  -14.7917 C   0  0  1  0  0  0  0  0  0  0  0  0
  -23.9077  -13.9151  -15.2970 O   0  0  0  0  0  0  0  0  0  0  0  0
  -23.6974   -9.1371  -14.9336 C   0  0  0  0  0  0  0  0  0  0  0  0
  -24.1155  -10.6153  -18.7430 C   0  0  0  0  0  0  0  0  0  0  0  0
  1  2  1  6  0  0  0
  1  6  1  0  0  0  0
  1 21  1  0  0  0  0
  3  4  1  1  0  0  0
  3  8  1  0  0  0  0
  3 28  1  0  0  0  0
  5  9  1  0  0  0  0
  5 25  1  0  0  0  0
  5 29  1  6  0  0  0
  6  7  1  6  0  0  0
  6 11  1  0  0  0  0
  8 12  1  0  0  0  0
  9 10  1  6  0  0  0
  9 14  1  0  0  0  0
 11 16  1  0  0  0  0
 12 13  1  1  0  0  0
 12 17  1  0  0  0  0
 14 15  1  6  0  0  0
 14 18  1  0  0  0  0
 15 31  1  0  0  0  0
 16 20  1  0  0  0  0
 17  2  1  6  0  0  0
 17 22  1  0  0  0  0
 18 19  1  1  0  0  0
 18 24  1  0  0  0  0
 18 30  1  0  0  0  0
 20 21  1  0  0  0  0
 20 26  1  1  0  0  0
 22 23  1  1  0  0  0
 22 28  1  0  0  0  0
 24 25  1  0  0  0  0
 26 27  1  0  0  0  0
 28 29  1  6  0  0  0
M  END
>  <CHROM.1>
-168.39572631,-152.64169297,-98.44916597,-160.25482236,0.67405896,97.65077972
-22.13203611,-14.64465387,-14.33879851,-0.70274085,-0.57249254,0.03074295

>  <Name>
ligand

>  <RI>
0

>  <Rbt.Current_Directory>
/home/itssahil/PROJECTS/Mol_Feturizer/New_Systems/rnas/4GPW

>  <Rbt.Executable>
rbdock ($Id: //depot/dev/client3/rdock/2013.1/src/exe/rbdock.cxx#4 $)

>  <Rbt.Library>
libRbt.so (2013.1, Build901 2013/11/27)

>  <Rbt.Parameter_File>
/export/apps/rDock/src/rDock_2013.1_src/data/scripts/dock_solv.prm

>  <Rbt.Receptor>
prm/pocket_docking_8.prm

>  <SCORE>
-19.2533

>  <SCORE.INTER>
-16.9843

>  <SCORE.INTER.CONST>
1

>  <SCORE.INTER.POLAR>
0

>  <SCORE.INTER.ROT>
6

>  <SCORE.INTER.SOLV>
17.1422

>  <SCORE.INTER.VDW>
-24.6369

>  <SCORE.INTER.norm>
-0.547881

>  <SCORE.INTRA>
-2.26894

>  <SCORE.INTRA.DIHEDRAL>
-6.20598

>  <SCORE.INTRA.DIHEDRAL.0>
19.2558

>  <SCORE.INTRA.POLAR>
0

>  <SCORE.INTRA.POLAR.0>
0

>  <SCORE.INTRA.REPUL>
0

>  <SCORE.INTRA.REPUL.0>
0

>  <SCORE.INTRA.SOLV>
-1.39741

>  <SCORE.INTRA.SOLV.lig_0>
-64.5929

>  <SCORE.INTRA.VDW>
1.53275

>  <SCORE.INTRA.VDW.0>
-4.40538

>  <SCORE.INTRA.norm>
-0.0731917

>  <SCORE.RESTR>
0

>  <SCORE.RESTR.CAVITY>
0

>  <SCORE.RESTR.norm>
0

>  <SCORE.SYSTEM>
0

>  <SCORE.SYSTEM.CONST>
0

>  <SCORE.SYSTEM.DIHEDRAL>
0

>  <SCORE.SYSTEM.SOLV>
0

>  <SCORE.SYSTEM.norm>
0

>  <SCORE.heavy>
31

>  <SCORE.norm>
-0.621073

>  <RMSD>
0.706

$$$$
ligand
 OpenBabel11021811493D
libRbt.so/2013.1/901 2013/11/27
 31 33  0  0  0  0  0  0  0  0999 V2000
  -19.1708  -15.5991  -12.8866 C   0  0  2  0  0  0  0  0  0  0  0  0
  -19.7746  -16.2878  -13.9719 O   0  0  0  0  0  0  0  0  0  0  0  0
  -23.5962  -16.3121  -15.8613 C   0  0  2  0  0  0  0  0  0  0  0  0
  -25.0074  -16.4454  -16.0285 N   0  0  0  0  0  0  0  0  0  0  0  0
  -25.1352  -13.3994  -15.0393 C   0  0  2  0  0  0  0  0  0  0  0  0
  -17.6314  -15.4486  -13.2332 C   0  0  2  0  0  0  0  0  0  0  0  0
  -17.4889  -14.7028  -14.4923 N   0  0  0  0  0  0  0  0  0  0  0  0
  -23.0208  -17.6953  -15.3269 C   0  0  0  0  0  0  0  0  0  0  0  0
  -25.4576  -12.4522  -16.2424 C   0  0  2  0  0  0  0  0  0  0  0  0
  -25.3381  -13.1995  -17.4298 O   0  0  0  0  0  0  0  0  0  0  0  0
  -16.9665  -16.8775  -13.3452 C   0  0  0  0  0  0  0  0  0  0  0  0
  -21.4427  -17.5501  -15.1460 C   0  0  2  0  0  0  0  0  0  0  0  0
  -20.8860  -18.8289  -14.6541 N   0  0  0  0  0  0  0  0  0  0  0  0
  -24.4527  -11.2262  -16.2284 C   0  0  1  0  0  0  0  0  0  0  0  0
  -24.7456  -10.3035  -17.3831 N   0  0  0  0  0  0  0  0  0  0  0  0
  -17.4997  -17.8815  -12.2405 C   0  0  0  0  0  0  0  0  0  0  0  0
  -21.1487  -16.3992  -14.0980 C   0  0  2  0  0  0  0  0  0  0  0  0
  -24.6350  -10.4042  -14.8361 C   0  0  1  0  0  0  0  0  0  0  0  0
  -25.9349   -9.8754  -14.6686 O   0  0  0  0  0  0  0  0  0  0  0  0
  -18.5824  -17.5805  -11.4883 C   0  0  2  0  0  0  0  0  0  0  0  0
  -19.3050  -16.3538  -11.6367 O   0  0  0  0  0  0  0  0  0  0  0  0
  -21.7449  -15.0344  -14.6362 C   0  0  2  0  0  0  0  0  0  0  0  0
  -21.4836  -13.9970  -13.6764 O   0  0  0  0  0  0  0  0  0  0  0  0
  -24.3368  -11.3719  -13.6430 C   0  0  0  0  0  0  0  0  0  0  0  0
  -25.2152  -12.6178  -13.7408 O   0  0  0  0  0  0  0  0  0  0  0  0
  -19.1234  -18.5221  -10.4133 C   0  0  0  0  0  0  0  0  0  0  0  0
  -20.2592  -19.2118  -10.9579 O   0  0  0  0  0  0  0  0  0  0  0  0
  -23.3085  -15.1734  -14.8178 C   0  0  1  0  0  0  0  0  0  0  0  0
  -23.8012  -13.9397  -15.3116 O   0  0  0  0  0  0  0  0  0  0  0  0
  -23.6997   -9.1861  -14.6801 C   0  0  0  0  0  0  0  0  0  0  0  0
  -24.0725  -10.6157  -18.6603 C   0  0  0  0  0  0  0  0  0  0  0  0
  1  2  1  6  0  0  0
  1  6  1  0  0  0  0
  1 21  1  0  0  0  0
  3  4  1  1  0  0  0
  3  8  1  0  0  0  0
  3 28  1  0  0  0  0
  5  9  1  0  0  0  0
  5 25  1  0  0  0  0
  5 29  1  6  0  0  0
  6  7  1  6  0  0  0
  6 11  1  0  0  0  0
  8 12  1  0  0  0  0
  9 10  1  6  0  0  0
  9 14  1  0  0  0  0
 11 16  1  0  0  0  0
 12 13  1  1  0  0  0
 12 17  1  0  0  0  0
 14 15  1  6  0  0  0
 14 18  1  0  0  0  0
 15 31  1  0  0  0  0
 16 20  1  0  0  0  0
 17  2  1  6  0  0  0
 17 22  1  0  0  0  0
 18 19  1  1  0  0  0
 18 24  1  0  0  0  0
 18 30  1  0  0  0  0
 20 21  1  0  0  0  0
 20 26  1  1  0  0  0
 22 23  1  1  0  0  0
 22 28  1  0  0  0  0
 24 25  1  0  0  0  0
 26 27  1  0  0  0  0
 28 29  1  6  0  0  0
M  END
>  <CHROM.1>
-169.38517003,-154.53121837,-87.61191619,-163.90160185,-100.72189789,92.34595643
-22.09256744,-14.63931551,-14.40012270,-0.72679224,-0.51552978,-0.00051540

>  <Name>
ligand

>  <RI>
0

>  <Rbt.Current_Directory>
/home/itssahil/PROJECTS/Mol_Feturizer/New_Systems/rnas/4GPW

>  <Rbt.Executable>
rbdock ($Id: //depot/dev/client3/rdock/2013.1/src/exe/rbdock.cxx#4 $)

>  <Rbt.Library>
libRbt.so (2013.1, Build901 2013/11/27)

>  <Rbt.Parameter_File>
/export/apps/rDock/src/rDock_2013.1_src/data/scripts/dock_solv.prm

>  <Rbt.Receptor>
prm/pocket_docking_2.prm

>  <SCORE>
-20.0154

>  <SCORE.INTER>
-15.9519

>  <SCORE.INTER.CONST>
1

>  <SCORE.INTER.POLAR>
0

>  <SCORE.INTER.ROT>
6

>  <SCORE.INTER.SOLV>
16.7053

>  <SCORE.INTER.VDW>
-23.803

>  <SCORE.INTER.norm>
-0.514577

>  <SCORE.INTRA>
-4.06355

>  <SCORE.INTRA.DIHEDRAL>
-8.05553

>  <SCORE.INTRA.DIHEDRAL.0>
19.2558

>  <SCORE.INTRA.POLAR>
0

>  <SCORE.INTRA.POLAR.0>
0

>  <SCORE.INTRA.REPUL>
0

>  <SCORE.INTRA.REPUL.0>
0

>  <SCORE.INTRA.SOLV>
-1.29906

>  <SCORE.INTRA.SOLV.lig_0>
-64.5929

>  <SCORE.INTRA.VDW>
0.613746

>  <SCORE.INTRA.VDW.0>
-4.40538

>  <SCORE.INTRA.norm>
-0.131082

>  <SCORE.RESTR>
0

>  <SCORE.RESTR.CAVITY>
0

>  <SCORE.RESTR.norm>
0

>  <SCORE.SYSTEM>
0

>  <SCORE.SYSTEM.CONST>
0

>  <SCORE.SYSTEM.DIHEDRAL>
0

>  <SCORE.SYSTEM.SOLV>
0

>  <SCORE.SYSTEM.norm>
0

>  <SCORE.heavy>
31

>  <SCORE.norm>
-0.645659

>  <RMSD>
0.708

$$$$
ligand
 OpenBabel11021811493D
libRbt.so/2013.1/901 2013/11/27
 31 33  0  0  0  0  0  0  0  0999 V2000
  -19.3530  -15.5520  -12.7373 C   0  0  2  0  0  0  0  0  0  0  0  0
  -19.9110  -16.2115  -13.8643 O   0  0  0  0  0  0  0  0  0  0  0  0
  -23.6567  -16.3054  -15.8981 C   0  0  2  0  0  0  0  0  0  0  0  0
  -25.0596  -16.4523  -16.1163 N   0  0  0  0  0  0  0  0  0  0  0  0
  -25.2111  -13.3399  -15.1298 C   0  0  2  0  0  0  0  0  0  0  0  0
  -17.8154  -15.3252  -13.0483 C   0  0  2  0  0  0  0  0  0  0  0  0
  -17.6821  -14.5156  -14.2684 N   0  0  0  0  0  0  0  0  0  0  0  0
  -23.0940  -17.6721  -15.3102 C   0  0  0  0  0  0  0  0  0  0  0  0
  -25.5207  -12.3983  -16.3405 C   0  0  2  0  0  0  0  0  0  0  0  0
  -25.4382  -13.1630  -17.5199 O   0  0  0  0  0  0  0  0  0  0  0  0
  -17.0923  -16.7202  -13.2148 C   0  0  0  0  0  0  0  0  0  0  0  0
  -21.5250  -17.5118  -15.0722 C   0  0  2  0  0  0  0  0  0  0  0  0
  -20.9799  -18.7752  -14.5299 N   0  0  0  0  0  0  0  0  0  0  0  0
  -24.4802  -11.2023  -16.3541 C   0  0  1  0  0  0  0  0  0  0  0  0
  -24.7604  -10.2855  -17.5166 N   0  0  0  0  0  0  0  0  0  0  0  0
  -17.6030  -17.7954  -12.1681 C   0  0  0  0  0  0  0  0  0  0  0  0
  -21.2785  -16.3353  -14.0406 C   0  0  2  0  0  0  0  0  0  0  0  0
  -24.6207  -10.3585  -14.9701 C   0  0  1  0  0  0  0  0  0  0  0  0
  -25.9022   -9.7896  -14.7932 O   0  0  0  0  0  0  0  0  0  0  0  0
  -18.7091  -17.5730  -11.4225 C   0  0  2  0  0  0  0  0  0  0  0  0
  -19.4774  -16.3698  -11.5267 O   0  0  0  0  0  0  0  0  0  0  0  0
  -21.8617  -14.9873  -14.6327 C   0  0  2  0  0  0  0  0  0  0  0  0
  -21.6439  -13.9264  -13.6877 O   0  0  0  0  0  0  0  0  0  0  0  0
  -24.3359  -11.3201  -13.7687 C   0  0  0  0  0  0  0  0  0  0  0  0
  -25.2517  -12.5406  -13.8402 O   0  0  0  0  0  0  0  0  0  0  0  0
  -19.2297  -18.5848  -10.4027 C   0  0  0  0  0  0  0  0  0  0  0  0
  -18.3308  -19.7047  -10.3899 O   0  0  0  0  0  0  0  0  0  0  0  0
  -23.4163  -15.1412  -14.8709 C   0  0  1  0  0  0  0  0  0  0  0  0
  -23.8971  -13.9226  -15.4116 O   0  0  0  0  0  0  0  0  0  0  0  0
  -23.6481   -9.1667  -14.8408 C   0  0  0  0  0  0  0  0  0  0  0  0
  -24.1089  -10.6301  -18.7967 C   0  0  0  0  0  0  0  0  0  0  0  0
  1  2  1  6  0  0  0
  1  6  1  0  0  0  0
  1 21  1  0  0  0  0
  3  4  1  1  0  0  0
  3  8  1  0  0  0  0
  3 28  1  0  0  0  0
  5  9  1  0  0  0  0
  5 25  1  0  0  0  0
  5 29  1  6  0  0  0
  6  7  1  6  0  0  0
  6 11  1  0  0  0  0
  8 12  1  0  0  0  0
  9 10  1  6  0  0  0
  9 14  1  0  0  0  0
 11 16  1  0  0  0  0
 12 13  1  1  0  0  0
 12 17  1  0  0  0  0
 14 15  1  6  0  0  0
 14 18  1  0  0  0  0
 15 31  1  0  0  0  0
 16 20  1  0  0  0  0
 17  2  1  6  0  0  0
 17 22  1  0  0  0  0
 18 19  1  1  0  0  0
 18 24  1  0  0  0  0
 18 30  1  0  0  0  0
 20 21  1  0  0  0  0
 20 26  1  1  0  0  0
 22 23  1  1  0  0  0
 22 28  1  0  0  0  0
 24 25  1  0  0  0  0
 26 27  1  0  0  0  0
 28 29  1  6  0  0  0
M  END
>  <CHROM.1>
-167.41080622,-156.88582756,-87.82950867,-160.66490133,1.66840810,96.76214216
-22.10437099,-14.61209010,-14.38960220,-0.69523237,-0.57564391,0.03054141

>  <Name>
ligand

>  <RI>
0

>  <Rbt.Current_Directory>
/home/itssahil/PROJECTS/Mol_Feturizer/New_Systems/rnas/4GPW

>  <Rbt.Executable>
rbdock ($Id: //depot/dev/client3/rdock/2013.1/src/exe/rbdock.cxx#4 $)

>  <Rbt.Library>
libRbt.so (2013.1, Build901 2013/11/27)

>  <Rbt.Parameter_File>
/export/apps/rDock/src/rDock_2013.1_src/data/scripts/dock_solv.prm

>  <Rbt.Receptor>
prm/pocket_docking_4.prm

>  <SCORE>
-19.4043

>  <SCORE.INTER>
-16.6455

>  <SCORE.INTER.CONST>
1

>  <SCORE.INTER.POLAR>
0

>  <SCORE.INTER.ROT>
6

>  <SCORE.INTER.SOLV>
16.8385

>  <SCORE.INTER.VDW>
-24.3098

>  <SCORE.INTER.norm>
-0.536953

>  <SCORE.INTRA>
-2.75881

>  <SCORE.INTRA.DIHEDRAL>
-7.41294

>  <SCORE.INTRA.DIHEDRAL.0>
19.2558

>  <SCORE.INTRA.POLAR>
0

>  <SCORE.INTRA.POLAR.0>
0

>  <SCORE.INTRA.REPUL>
0

>  <SCORE.INTRA.REPUL.0>
0

>  <SCORE.INTRA.SOLV>
-1.53541

>  <SCORE.INTRA.SOLV.lig_0>
-64.5929

>  <SCORE.INTRA.VDW>
1.71537

>  <SCORE.INTRA.VDW.0>
-4.40538

>  <SCORE.INTRA.norm>
-0.0889938

>  <SCORE.RESTR>
0

>  <SCORE.RESTR.CAVITY>
0

>  <SCORE.RESTR.norm>
0

>  <SCORE.SYSTEM>
0

>  <SCORE.SYSTEM.CONST>
0

>  <SCORE.SYSTEM.DIHEDRAL>
0

>  <SCORE.SYSTEM.SOLV>
0

>  <SCORE.SYSTEM.norm>
0

>  <SCORE.heavy>
31

>  <SCORE.norm>
-0.625947

>  <RMSD>
0.711

$$$$
ligand
 OpenBabel11021811493D
libRbt.so/2013.1/901 2013/11/27
 31 33  0  0  0  0  0  0  0  0999 V2000
  -19.1751  -15.7446  -12.5947 C   0  0  2  0  0  0  0  0  0  0  0  0
  -19.7552  -16.1751  -13.8173 O   0  0  0  0  0  0  0  0  0  0  0  0
  -23.5160  -15.8746  -15.8025 C   0  0  2  0  0  0  0  0  0  0  0  0
  -24.9233  -15.9570  -16.0265 N   0  0  0  0  0  0  0  0  0  0  0  0
  -25.0440  -13.0769  -14.6722 C   0  0  2  0  0  0  0  0  0  0  0  0
  -17.6390  -15.4778  -12.8801 C   0  0  2  0  0  0  0  0  0  0  0  0
  -17.5114  -14.4545  -13.9281 N   0  0  0  0  0  0  0  0  0  0  0  0
  -22.9792  -17.3273  -15.4401 C   0  0  0  0  0  0  0  0  0  0  0  0
  -25.4741  -12.3105  -15.9668 C   0  0  2  0  0  0  0  0  0  0  0  0
  -25.3798  -13.2018  -17.0528 O   0  0  0  0  0  0  0  0  0  0  0  0
  -16.9348  -16.8234  -13.3163 C   0  0  0  0  0  0  0  0  0  0  0  0
  -21.4055  -17.2382  -15.1961 C   0  0  2  0  0  0  0  0  0  0  0  0
  -20.8843  -18.5815  -14.8625 N   0  0  0  0  0  0  0  0  0  0  0  0
  -24.5310  -11.0524  -16.1691 C   0  0  1  0  0  0  0  0  0  0  0  0
  -24.9280  -10.3026  -17.4144 N   0  0  0  0  0  0  0  0  0  0  0  0
  -17.4452  -18.0713  -12.4829 C   0  0  0  0  0  0  0  0  0  0  0  0
  -21.1263  -16.2419  -13.9967 C   0  0  2  0  0  0  0  0  0  0  0  0
  -24.6811  -10.0628  -14.8863 C   0  0  1  0  0  0  0  0  0  0  0  0
  -25.9949   -9.5713  -14.7138 O   0  0  0  0  0  0  0  0  0  0  0  0
  -18.5390  -17.9827  -11.6927 C   0  0  2  0  0  0  0  0  0  0  0  0
  -19.2941  -16.7742  -11.5576 O   0  0  0  0  0  0  0  0  0  0  0  0
  -21.6841  -14.8065  -14.3659 C   0  0  2  0  0  0  0  0  0  0  0  0
  -21.4366  -13.9105  -13.2697 O   0  0  0  0  0  0  0  0  0  0  0  0
  -24.2746  -10.8519  -13.5975 C   0  0  0  0  0  0  0  0  0  0  0  0
  -25.0950  -12.1353  -13.4829 O   0  0  0  0  0  0  0  0  0  0  0  0
  -19.0587  -19.1634  -10.8737 C   0  0  0  0  0  0  0  0  0  0  0  0
  -19.2038  -18.7298   -9.5124 O   0  0  0  0  0  0  0  0  0  0  0  0
  -23.2432  -14.8897  -14.6092 C   0  0  1  0  0  0  0  0  0  0  0  0
  -23.7011  -13.5922  -14.9488 O   0  0  0  0  0  0  0  0  0  0  0  0
  -23.7996   -8.7967  -14.9430 C   0  0  0  0  0  0  0  0  0  0  0  0
  -24.2043  -10.6562  -18.6526 C   0  0  0  0  0  0  0  0  0  0  0  0
  1  2  1  6  0  0  0
  1  6  1  0  0  0  0
  1 21  1  0  0  0  0
  3  4  1  1  0  0  0
  3  8  1  0  0  0  0
  3 28  1  0  0  0  0
  5  9  1  0  0  0  0
  5 25  1  0  0  0  0
  5 29  1  6  0  0  0
  6  7  1  6  0  0  0
  6 11  1  0  0  0  0
  8 12  1  0  0  0  0
  9 10  1  6  0  0  0
  9 14  1  0  0  0  0
 11 16  1  0  0  0  0
 12 13  1  1  0  0  0
 12 17  1  0  0  0  0
 14 15  1  6  0  0  0
 14 18  1  0  0  0  0
 15 31  1  0  0  0  0
 16 20  1  0  0  0  0
 17  2  1  6  0  0  0
 17 22  1  0  0  0  0
 18 19  1  1  0  0  0
 18 24  1  0  0  0  0
 18 30  1  0  0  0  0
 20 21  1  0  0  0  0
 20 26  1  1  0  0  0
 22 23  1  1  0  0  0
 22 28  1  0  0  0  0
 24 25  1  0  0  0  0
 26 27  1  0  0  0  0
 28 29  1  6  0  0  0
M  END
>  <CHROM.1>
-166.96039282,-137.47669830,-93.79220143,-158.94458124,127.59635656,90.91600387
-22.04315177,-14.48859046,-14.26156145,-0.65392126,-0.62243816,0.14643161

>  <Name>
ligand

>  <RI>
0

>  <Rbt.Current_Directory>
/home/itssahil/PROJECTS/Mol_Feturizer/New_Systems/rnas/4GPW

>  <Rbt.Executable>
rbdock ($Id: //depot/dev/client3/rdock/2013.1/src/exe/rbdock.cxx#4 $)

>  <Rbt.Library>
libRbt.so (2013.1, Build901 2013/11/27)

>  <Rbt.Parameter_File>
/export/apps/rDock/src/rDock_2013.1_src/data/scripts/dock_solv.prm

>  <Rbt.Receptor>
prm/pocket_docking_3.prm

>  <SCORE>
-19.0823

>  <SCORE.INTER>
-16.9869

>  <SCORE.INTER.CONST>
1

>  <SCORE.INTER.POLAR>
0

>  <SCORE.INTER.ROT>
6

>  <SCORE.INTER.SOLV>
17.4747

>  <SCORE.INTER.VDW>
-24.7495

>  <SCORE.INTER.norm>
-0.547964

>  <SCORE.INTRA>
-2.0954

>  <SCORE.INTRA.DIHEDRAL>
-4.42852

>  <SCORE.INTRA.DIHEDRAL.0>
19.2558

>  <SCORE.INTRA.POLAR>
0

>  <SCORE.INTRA.POLAR.0>
0

>  <SCORE.INTRA.REPUL>
0

>  <SCORE.INTRA.REPUL.0>
0

>  <SCORE.INTRA.SOLV>
-0.722153

>  <SCORE.INTRA.SOLV.lig_0>
-64.5929

>  <SCORE.INTRA.VDW>
0.479936

>  <SCORE.INTRA.VDW.0>
-4.40538

>  <SCORE.INTRA.norm>
-0.0675936

>  <SCORE.RESTR>
0

>  <SCORE.RESTR.CAVITY>
0

>  <SCORE.RESTR.norm>
0

>  <SCORE.SYSTEM>
0

>  <SCORE.SYSTEM.CONST>
0

>  <SCORE.SYSTEM.DIHEDRAL>
0

>  <SCORE.SYSTEM.SOLV>
0

>  <SCORE.SYSTEM.norm>
0

>  <SCORE.heavy>
31

>  <SCORE.norm>
-0.615557

>  <RMSD>
0.714

$$$$
ligand
 OpenBabel11021811493D
libRbt.so/2013.1/901 2013/11/27
 31 33  0  0  0  0  0  0  0  0999 V2000
  -19.2617  -15.4813  -12.7352 C   0  0  2  0  0  0  0  0  0  0  0  0
  -19.8367  -16.0881  -13.8831 O   0  0  0  0  0  0  0  0  0  0  0  0
  -23.6159  -16.1408  -15.8553 C   0  0  2  0  0  0  0  0  0  0  0  0
  -25.0217  -16.2878  -16.0540 N   0  0  0  0  0  0  0  0  0  0  0  0
  -25.1829  -13.2225  -15.0031 C   0  0  2  0  0  0  0  0  0  0  0  0
  -17.7115  -15.3207  -13.0242 C   0  0  2  0  0  0  0  0  0  0  0  0
  -17.5256  -14.4912  -14.2238 N   0  0  0  0  0  0  0  0  0  0  0  0
  -23.0377  -17.5212  -15.3167 C   0  0  0  0  0  0  0  0  0  0  0  0
  -25.5367  -12.3101  -16.2241 C   0  0  2  0  0  0  0  0  0  0  0  0
  -25.4516  -13.0921  -17.3920 O   0  0  0  0  0  0  0  0  0  0  0  0
  -17.0530  -16.7444  -13.2148 C   0  0  0  0  0  0  0  0  0  0  0  0
  -21.4655  -17.3606  -15.1006 C   0  0  2  0  0  0  0  0  0  0  0  0
  -20.9060  -18.6365  -14.6043 N   0  0  0  0  0  0  0  0  0  0  0  0
  -24.5295  -11.0869  -16.2739 C   0  0  1  0  0  0  0  0  0  0  0  0
  -24.8525  -10.1976  -17.4467 N   0  0  0  0  0  0  0  0  0  0  0  0
  -17.6265  -17.8173  -12.1988 C   0  0  0  0  0  0  0  0  0  0  0  0
  -21.2065  -16.2131  -14.0398 C   0  0  2  0  0  0  0  0  0  0  0  0
  -24.6716  -10.2240  -14.9018 C   0  0  1  0  0  0  0  0  0  0  0  0
  -25.9653   -9.6870  -14.7140 O   0  0  0  0  0  0  0  0  0  0  0  0
  -18.7296  -17.5595  -11.4603 C   0  0  2  0  0  0  0  0  0  0  0  0
  -19.4390  -16.3192  -11.5451 O   0  0  0  0  0  0  0  0  0  0  0  0
  -21.8053  -14.8513  -14.5828 C   0  0  2  0  0  0  0  0  0  0  0  0
  -21.5759  -13.8172  -13.6113 O   0  0  0  0  0  0  0  0  0  0  0  0
  -24.3422  -11.1571  -13.6895 C   0  0  0  0  0  0  0  0  0  0  0  0
  -25.2254  -12.4029  -13.7264 O   0  0  0  0  0  0  0  0  0  0  0  0
  -19.3095  -18.5682  -10.4698 C   0  0  0  0  0  0  0  0  0  0  0  0
  -18.3565  -19.6303  -10.3086 O   0  0  0  0  0  0  0  0  0  0  0  0
  -23.3630  -15.0056  -14.7991 C   0  0  1  0  0  0  0  0  0  0  0  0
  -23.8580  -13.7741  -15.2962 O   0  0  0  0  0  0  0  0  0  0  0  0
  -23.7300   -9.0043  -14.8076 C   0  0  0  0  0  0  0  0  0  0  0  0
  -24.2291  -10.5589  -18.7361 C   0  0  0  0  0  0  0  0  0  0  0  0
  1  2  1  6  0  0  0
  1  6  1  0  0  0  0
  1 21  1  0  0  0  0
  3  4  1  1  0  0  0
  3  8  1  0  0  0  0
  3 28  1  0  0  0  0
  5  9  1  0  0  0  0
  5 25  1  0  0  0  0
  5 29  1  6  0  0  0
  6  7  1  6  0  0  0
  6 11  1  0  0  0  0
  8 12  1  0  0  0  0
  9 10  1  6  0  0  0
  9 14  1  0  0  0  0
 11 16  1  0  0  0  0
 12 13  1  1  0  0  0
 12 17  1  0  0  0  0
 14 15  1  6  0  0  0
 14 18  1  0  0  0  0
 15 31  1  0  0  0  0
 16 20  1  0  0  0  0
 17  2  1  6  0  0  0
 17 22  1  0  0  0  0
 18 19  1  1  0  0  0
 18 24  1  0  0  0  0
 18 30  1  0  0  0  0
 20 21  1  0  0  0  0
 20 26  1  1  0  0  0
 22 23  1  1  0  0  0
 22 28  1  0  0  0  0
 24 25  1  0  0  0  0
 26 27  1  0  0  0  0
 28 29  1  6  0  0  0
M  END
>  <CHROM.1>
-171.29402266,-153.35572133,-86.87218423,-159.45259300,10.92412597,95.09757365
-22.08982621,-14.51517967,-14.34850016,-0.68807340,-0.57356964,0.05361840

>  <Name>
ligand

>  <RI>
0

>  <Rbt.Current_Directory>
/home/itssahil/PROJECTS/Mol_Feturizer/New_Systems/rnas/4GPW

>  <Rbt.Executable>
rbdock ($Id: //depot/dev/client3/rdock/2013.1/src/exe/rbdock.cxx#4 $)

>  <Rbt.Library>
libRbt.so (2013.1, Build901 2013/11/27)

>  <Rbt.Parameter_File>
/export/apps/rDock/src/rDock_2013.1_src/data/scripts/dock_solv.prm

>  <Rbt.Receptor>
prm/pocket_docking_2.prm

>  <SCORE>
-19.0997

>  <SCORE.INTER>
-16.5154

>  <SCORE.INTER.CONST>
1

>  <SCORE.INTER.POLAR>
0

>  <SCORE.INTER.ROT>
6

>  <SCORE.INTER.SOLV>
16.9173

>  <SCORE.INTER.VDW>
-24.2494

>  <SCORE.INTER.norm>
-0.532755

>  <SCORE.INTRA>
-2.58429

>  <SCORE.INTRA.DIHEDRAL>
-7.14014

>  <SCORE.INTRA.DIHEDRAL.0>
19.2558

>  <SCORE.INTRA.POLAR>
0

>  <SCORE.INTRA.POLAR.0>
0

>  <SCORE.INTRA.REPUL>
0

>  <SCORE.INTRA.REPUL.0>
0

>  <SCORE.INTRA.SOLV>
-1.36624

>  <SCORE.INTRA.SOLV.lig_0>
-64.5929

>  <SCORE.INTRA.VDW>
1.6689

>  <SCORE.INTRA.VDW.0>
-4.40538

>  <SCORE.INTRA.norm>
-0.0833641

>  <SCORE.RESTR>
0

>  <SCORE.RESTR.CAVITY>
0

>  <SCORE.RESTR.norm>
0

>  <SCORE.SYSTEM>
0

>  <SCORE.SYSTEM.CONST>
0

>  <SCORE.SYSTEM.DIHEDRAL>
0

>  <SCORE.SYSTEM.SOLV>
0

>  <SCORE.SYSTEM.norm>
0

>  <SCORE.heavy>
31

>  <SCORE.norm>
-0.61612

>  <RMSD>
0.715

$$$$
ligand
 OpenBabel11021811493D
libRbt.so/2013.1/901 2013/11/27
 31 33  0  0  0  0  0  0  0  0999 V2000
  -19.2149  -15.4821  -12.7756 C   0  0  2  0  0  0  0  0  0  0  0  0
  -19.8018  -16.0908  -13.9165 O   0  0  0  0  0  0  0  0  0  0  0  0
  -23.5997  -16.2707  -15.8446 C   0  0  2  0  0  0  0  0  0  0  0  0
  -25.0068  -16.4338  -16.0204 N   0  0  0  0  0  0  0  0  0  0  0  0
  -25.1726  -13.3169  -15.1533 C   0  0  2  0  0  0  0  0  0  0  0  0
  -17.6697  -15.3124  -13.0850 C   0  0  2  0  0  0  0  0  0  0  0  0
  -17.5045  -14.4803  -14.2859 N   0  0  0  0  0  0  0  0  0  0  0  0
  -23.0109  -17.6156  -15.2326 C   0  0  0  0  0  0  0  0  0  0  0  0
  -25.4879  -12.3840  -16.3692 C   0  0  2  0  0  0  0  0  0  0  0  0
  -25.3806  -13.1499  -17.5459 O   0  0  0  0  0  0  0  0  0  0  0  0
  -17.0057  -16.7320  -13.2862 C   0  0  0  0  0  0  0  0  0  0  0  0
  -21.4373  -17.4373  -15.0419 C   0  0  2  0  0  0  0  0  0  0  0  0
  -20.8680  -18.6804  -14.4779 N   0  0  0  0  0  0  0  0  0  0  0  0
  -24.4691  -11.1694  -16.3762 C   0  0  1  0  0  0  0  0  0  0  0  0
  -24.7550  -10.2606  -17.5436 N   0  0  0  0  0  0  0  0  0  0  0  0
  -17.5594  -17.8095  -12.2640 C   0  0  0  0  0  0  0  0  0  0  0  0
  -21.1725  -16.2293  -14.0520 C   0  0  2  0  0  0  0  0  0  0  0  0
  -24.6378  -10.3250  -14.9957 C   0  0  1  0  0  0  0  0  0  0  0  0
  -25.9311   -9.7790  -14.8322 O   0  0  0  0  0  0  0  0  0  0  0  0
  -18.6540  -17.5588  -11.5106 C   0  0  2  0  0  0  0  0  0  0  0  0
  -19.3716  -16.3225  -11.5843 O   0  0  0  0  0  0  0  0  0  0  0  0
  -21.7819  -14.9034  -14.6671 C   0  0  2  0  0  0  0  0  0  0  0  0
  -21.5472  -13.8138  -13.7596 O   0  0  0  0  0  0  0  0  0  0  0  0
  -24.3469  -11.2784  -13.7893 C   0  0  0  0  0  0  0  0  0  0  0  0
  -25.2398  -12.5154  -13.8661 O   0  0  0  0  0  0  0  0  0  0  0  0
  -19.2149  -18.5720  -10.5137 C   0  0  0  0  0  0  0  0  0  0  0  0
  -18.3508  -19.7190  -10.5128 O   0  0  0  0  0  0  0  0  0  0  0  0
  -23.3411  -15.0753  -14.8586 C   0  0  1  0  0  0  0  0  0  0  0  0
  -23.8457  -13.8764  -15.4213 O   0  0  0  0  0  0  0  0  0  0  0  0
  -23.6882   -9.1155  -14.8604 C   0  0  0  0  0  0  0  0  0  0  0  0
  -24.0873  -10.5977  -18.8173 C   0  0  0  0  0  0  0  0  0  0  0  0
  1  2  1  6  0  0  0
  1  6  1  0  0  0  0
  1 21  1  0  0  0  0
  3  4  1  1  0  0  0
  3  8  1  0  0  0  0
  3 28  1  0  0  0  0
  5  9  1  0  0  0  0
  5 25  1  0  0  0  0
  5 29  1  6  0  0  0
  6  7  1  6  0  0  0
  6 11  1  0  0  0  0
  8 12  1  0  0  0  0
  9 10  1  6  0  0  0
  9 14  1  0  0  0  0
 11 16  1  0  0  0  0
 12 13  1  1  0  0  0
 12 17  1  0  0  0  0
 14 15  1  6  0  0  0
 14 18  1  0  0  0  0
 15 31  1  0  0  0  0
 16 20  1  0  0  0  0
 17  2  1  6  0  0  0
 17 22  1  0  0  0  0
 18 19  1  1  0  0  0
 18 24  1  0  0  0  0
 18 30  1  0  0  0  0
 20 21  1  0  0  0  0
 20 26  1  1  0  0  0
 22 23  1  1  0  0  0
 22 28  1  0  0  0  0
 24 25  1  0  0  0  0
 26 27  1  0  0  0  0
 28 29  1  6  0  0  0
M  END
>  <CHROM.1>
-171.61690627,-157.80882452,-87.72688415,-155.88539902,2.63839949,94.74801947
-22.04898668,-14.57114401,-14.41573738,-0.71220969,-0.53842537,-0.00356305

>  <Name>
ligand

>  <RI>
0

>  <Rbt.Current_Directory>
/home/itssahil/PROJECTS/Mol_Feturizer/New_Systems/rnas/4GPW

>  <Rbt.Executable>
rbdock ($Id: //depot/dev/client3/rdock/2013.1/src/exe/rbdock.cxx#4 $)

>  <Rbt.Library>
libRbt.so (2013.1, Build901 2013/11/27)

>  <Rbt.Parameter_File>
/export/apps/rDock/src/rDock_2013.1_src/data/scripts/dock_solv.prm

>  <Rbt.Receptor>
prm/pocket_docking_6.prm

>  <SCORE>
-19.4195

>  <SCORE.INTER>
-16.647

>  <SCORE.INTER.CONST>
1

>  <SCORE.INTER.POLAR>
0

>  <SCORE.INTER.ROT>
6

>  <SCORE.INTER.SOLV>
16.2731

>  <SCORE.INTER.VDW>
-24.1224

>  <SCORE.INTER.norm>
-0.537001

>  <SCORE.INTRA>
-2.77244

>  <SCORE.INTRA.DIHEDRAL>
-7.53126

>  <SCORE.INTRA.DIHEDRAL.0>
19.2558

>  <SCORE.INTRA.POLAR>
0

>  <SCORE.INTRA.POLAR.0>
0

>  <SCORE.INTRA.REPUL>
0

>  <SCORE.INTRA.REPUL.0>
0

>  <SCORE.INTRA.SOLV>
-1.24049

>  <SCORE.INTRA.SOLV.lig_0>
-64.5929

>  <SCORE.INTRA.VDW>
1.61344

>  <SCORE.INTRA.VDW.0>
-4.40538

>  <SCORE.INTRA.norm>
-0.0894334

>  <SCORE.RESTR>
0

>  <SCORE.RESTR.CAVITY>
0

>  <SCORE.RESTR.norm>
0

>  <SCORE.SYSTEM>
0

>  <SCORE.SYSTEM.CONST>
0

>  <SCORE.SYSTEM.DIHEDRAL>
0

>  <SCORE.SYSTEM.SOLV>
0

>  <SCORE.SYSTEM.norm>
0

>  <SCORE.heavy>
31

>  <SCORE.norm>
-0.626434

>  <RMSD>
0.721

$$$$
ligand
 OpenBabel11021811493D
libRbt.so/2013.1/901 2013/11/27
 31 33  0  0  0  0  0  0  0  0999 V2000
  -19.2709  -15.5505  -12.8233 C   0  0  2  0  0  0  0  0  0  0  0  0
  -19.8527  -16.2027  -13.9426 O   0  0  0  0  0  0  0  0  0  0  0  0
  -23.6390  -16.3169  -15.8985 C   0  0  2  0  0  0  0  0  0  0  0  0
  -25.0461  -16.4651  -16.0864 N   0  0  0  0  0  0  0  0  0  0  0  0
  -25.1847  -13.3529  -15.1502 C   0  0  2  0  0  0  0  0  0  0  0  0
  -17.7307  -15.3622  -13.1466 C   0  0  2  0  0  0  0  0  0  0  0  0
  -17.5870  -14.5627  -14.3722 N   0  0  0  0  0  0  0  0  0  0  0  0
  -23.0653  -17.6772  -15.3065 C   0  0  0  0  0  0  0  0  0  0  0  0
  -25.4973  -12.4051  -16.3553 C   0  0  2  0  0  0  0  0  0  0  0  0
  -25.4108  -13.1622  -17.5394 O   0  0  0  0  0  0  0  0  0  0  0  0
  -17.0422  -16.7749  -13.3103 C   0  0  0  0  0  0  0  0  0  0  0  0
  -21.4917  -17.5155  -15.1023 C   0  0  2  0  0  0  0  0  0  0  0  0
  -20.9364  -18.7730  -14.5567 N   0  0  0  0  0  0  0  0  0  0  0  0
  -24.4617  -11.2048  -16.3607 C   0  0  1  0  0  0  0  0  0  0  0  0
  -24.7448  -10.2819  -17.5177 N   0  0  0  0  0  0  0  0  0  0  0  0
  -17.5708  -17.8318  -12.2540 C   0  0  0  0  0  0  0  0  0  0  0  0
  -21.2236  -16.3273  -14.0895 C   0  0  2  0  0  0  0  0  0  0  0  0
  -24.6067  -10.3702  -14.9716 C   0  0  1  0  0  0  0  0  0  0  0  0
  -25.8906   -9.8076  -14.7922 O   0  0  0  0  0  0  0  0  0  0  0  0
  -18.6658  -17.5790  -11.5017 C   0  0  2  0  0  0  0  0  0  0  0  0
  -19.4060  -16.3584  -11.6072 O   0  0  0  0  0  0  0  0  0  0  0  0
  -21.8180  -14.9858  -14.6851 C   0  0  2  0  0  0  0  0  0  0  0  0
  -21.5803  -13.9143  -13.7570 O   0  0  0  0  0  0  0  0  0  0  0  0
  -24.3188  -11.3380  -13.7760 C   0  0  0  0  0  0  0  0  0  0  0  0
  -25.2296  -12.5618  -13.8557 O   0  0  0  0  0  0  0  0  0  0  0  0
  -19.2029  -18.5725  -10.4725 C   0  0  0  0  0  0  0  0  0  0  0  0
  -18.3299  -19.7126  -10.4584 O   0  0  0  0  0  0  0  0  0  0  0  0
  -23.3771  -15.1412  -14.8899 C   0  0  1  0  0  0  0  0  0  0  0  0
  -23.8681  -13.9284  -15.4346 O   0  0  0  0  0  0  0  0  0  0  0  0
  -23.6390   -9.1752  -14.8342 C   0  0  0  0  0  0  0  0  0  0  0  0
  -24.0754  -10.6047  -18.7943 C   0  0  0  0  0  0  0  0  0  0  0  0
  1  2  1  6  0  0  0
  1  6  1  0  0  0  0
  1 21  1  0  0  0  0
  3  4  1  1  0  0  0
  3  8  1  0  0  0  0
  3 28  1  0  0  0  0
  5  9  1  0  0  0  0
  5 25  1  0  0  0  0
  5 29  1  6  0  0  0
  6  7  1  6  0  0  0
  6 11  1  0  0  0  0
  8 12  1  0  0  0  0
  9 10  1  6  0  0  0
  9 14  1  0  0  0  0
 11 16  1  0  0  0  0
 12 13  1  1  0  0  0
 12 17  1  0  0  0  0
 14 15  1  6  0  0  0
 14 18  1  0  0  0  0
 15 31  1  0  0  0  0
 16 20  1  0  0  0  0
 17  2  1  6  0  0  0
 17 22  1  0  0  0  0
 18 19  1  1  0  0  0
 18 24  1  0  0  0  0
 18 30  1  0  0  0  0
 20 21  1  0  0  0  0
 20 26  1  1  0  0  0
 22 23  1  1  0  0  0
 22 28  1  0  0  0  0
 24 25  1  0  0  0  0
 26 27  1  0  0  0  0
 28 29  1  6  0  0  0
M  END
>  <CHROM.1>
-169.24964373,-157.60171177,-88.68954719,-159.57684036,1.75039252,95.68355655
-22.06804582,-14.61957339,-14.42708744,-0.70450718,-0.55441042,0.01707453

>  <Name>
ligand

>  <RI>
0

>  <Rbt.Current_Directory>
/home/itssahil/PROJECTS/Mol_Feturizer/New_Systems/rnas/4GPW

>  <Rbt.Executable>
rbdock ($Id: //depot/dev/client3/rdock/2013.1/src/exe/rbdock.cxx#4 $)

>  <Rbt.Library>
libRbt.so (2013.1, Build901 2013/11/27)

>  <Rbt.Parameter_File>
/export/apps/rDock/src/rDock_2013.1_src/data/scripts/dock_solv.prm

>  <Rbt.Receptor>
prm/pocket_docking_4.prm

>  <SCORE>
-19.4685

>  <SCORE.INTER>
-16.5135

>  <SCORE.INTER.CONST>
1

>  <SCORE.INTER.POLAR>
0

>  <SCORE.INTER.ROT>
6

>  <SCORE.INTER.SOLV>
16.4158

>  <SCORE.INTER.VDW>
-24.0809

>  <SCORE.INTER.norm>
-0.532693

>  <SCORE.INTRA>
-2.955

>  <SCORE.INTRA.DIHEDRAL>
-7.7249

>  <SCORE.INTRA.DIHEDRAL.0>
19.2558

>  <SCORE.INTRA.POLAR>
0

>  <SCORE.INTRA.POLAR.0>
0

>  <SCORE.INTRA.REPUL>
0

>  <SCORE.INTRA.REPUL.0>
0

>  <SCORE.INTRA.SOLV>
-1.49795

>  <SCORE.INTRA.SOLV.lig_0>
-64.5929

>  <SCORE.INTRA.VDW>
1.65643

>  <SCORE.INTRA.VDW.0>
-4.40538

>  <SCORE.INTRA.norm>
-0.0953225

>  <SCORE.RESTR>
0

>  <SCORE.RESTR.CAVITY>
0

>  <SCORE.RESTR.norm>
0

>  <SCORE.SYSTEM>
0

>  <SCORE.SYSTEM.CONST>
0

>  <SCORE.SYSTEM.DIHEDRAL>
0

>  <SCORE.SYSTEM.SOLV>
0

>  <SCORE.SYSTEM.norm>
0

>  <SCORE.heavy>
31

>  <SCORE.norm>
-0.628016

>  <RMSD>
0.726

$$$$
ligand
 OpenBabel11021811493D
libRbt.so/2013.1/901 2013/11/27
 31 33  0  0  0  0  0  0  0  0999 V2000
  -19.0954  -15.5541  -12.7848 C   0  0  2  0  0  0  0  0  0  0  0  0
  -19.7080  -16.1891  -13.8976 O   0  0  0  0  0  0  0  0  0  0  0  0
  -23.5274  -15.9384  -15.7747 C   0  0  2  0  0  0  0  0  0  0  0  0
  -24.9403  -16.0307  -15.9553 N   0  0  0  0  0  0  0  0  0  0  0  0
  -25.0397  -13.1341  -14.6594 C   0  0  2  0  0  0  0  0  0  0  0  0
  -17.5460  -15.4546  -13.1039 C   0  0  2  0  0  0  0  0  0  0  0  0
  -17.3545  -14.6813  -14.3396 N   0  0  0  0  0  0  0  0  0  0  0  0
  -22.9731  -17.3825  -15.4042 C   0  0  0  0  0  0  0  0  0  0  0  0
  -25.4910  -12.3697  -15.9479 C   0  0  2  0  0  0  0  0  0  0  0  0
  -25.4070  -13.2605  -17.0352 O   0  0  0  0  0  0  0  0  0  0  0  0
  -16.9352  -16.9050  -13.2453 C   0  0  0  0  0  0  0  0  0  0  0  0
  -21.3932  -17.2824  -15.2087 C   0  0  2  0  0  0  0  0  0  0  0  0
  -20.8559  -18.6176  -14.8683 N   0  0  0  0  0  0  0  0  0  0  0  0
  -24.5569  -11.1070  -16.1628 C   0  0  1  0  0  0  0  0  0  0  0  0
  -24.9743  -10.3591  -17.4026 N   0  0  0  0  0  0  0  0  0  0  0  0
  -17.5246  -17.9167  -12.1769 C   0  0  0  0  0  0  0  0  0  0  0  0
  -21.0834  -16.2649  -14.0349 C   0  0  2  0  0  0  0  0  0  0  0  0
  -24.6944  -10.1182  -14.8780 C   0  0  1  0  0  0  0  0  0  0  0  0
  -26.0081   -9.6331  -14.6877 O   0  0  0  0  0  0  0  0  0  0  0  0
  -18.6068  -17.5941  -11.4330 C   0  0  2  0  0  0  0  0  0  0  0  0
  -19.2788  -16.3365  -11.5584 O   0  0  0  0  0  0  0  0  0  0  0  0
  -21.6588  -14.8383  -14.4113 C   0  0  2  0  0  0  0  0  0  0  0  0
  -21.3833  -13.9229  -13.3381 O   0  0  0  0  0  0  0  0  0  0  0  0
  -24.2666  -10.9053  -13.5949 C   0  0  0  0  0  0  0  0  0  0  0  0
  -25.0791  -12.1928  -13.4694 O   0  0  0  0  0  0  0  0  0  0  0  0
  -19.2011  -18.5425  -10.3927 C   0  0  0  0  0  0  0  0  0  0  0  0
  -19.6405  -19.7285  -11.0728 O   0  0  0  0  0  0  0  0  0  0  0  0
  -23.2241  -14.9324  -14.6068 C   0  0  1  0  0  0  0  0  0  0  0  0
  -23.6981  -13.6428  -14.9542 O   0  0  0  0  0  0  0  0  0  0  0  0
  -23.8200   -8.8479  -14.9465 C   0  0  0  0  0  0  0  0  0  0  0  0
  -24.3258  -10.7673  -18.6654 C   0  0  0  0  0  0  0  0  0  0  0  0
  1  2  1  6  0  0  0
  1  6  1  0  0  0  0
  1 21  1  0  0  0  0
  3  4  1  1  0  0  0
  3  8  1  0  0  0  0
  3 28  1  0  0  0  0
  5  9  1  0  0  0  0
  5 25  1  0  0  0  0
  5 29  1  6  0  0  0
  6  7  1  6  0  0  0
  6 11  1  0  0  0  0
  8 12  1  0  0  0  0
  9 10  1  6  0  0  0
  9 14  1  0  0  0  0
 11 16  1  0  0  0  0
 12 13  1  1  0  0  0
 12 17  1  0  0  0  0
 14 15  1  6  0  0  0
 14 18  1  0  0  0  0
 15 31  1  0  0  0  0
 16 20  1  0  0  0  0
 17  2  1  6  0  0  0
 17 22  1  0  0  0  0
 18 19  1  1  0  0  0
 18 24  1  0  0  0  0
 18 30  1  0  0  0  0
 20 21  1  0  0  0  0
 20 26  1  1  0  0  0
 22 23  1  1  0  0  0
 22 28  1  0  0  0  0
 24 25  1  0  0  0  0
 26 27  1  0  0  0  0
 28 29  1  6  0  0  0
M  END
>  <CHROM.1>
-170.60843505,-138.27696093,-90.11201673,-168.48333029,-61.80076042,90.20671999
-22.05901857,-14.51251688,-14.30971949,-0.69905151,-0.55275191,0.07465818

>  <Name>
ligand

>  <RI>
0

>  <Rbt.Current_Directory>
/home/itssahil/PROJECTS/Mol_Feturizer/New_Systems/rnas/4GPW

>  <Rbt.Executable>
rbdock ($Id: //depot/dev/client3/rdock/2013.1/src/exe/rbdock.cxx#4 $)

>  <Rbt.Library>
libRbt.so (2013.1, Build901 2013/11/27)

>  <Rbt.Parameter_File>
/export/apps/rDock/src/rDock_2013.1_src/data/scripts/dock_solv.prm

>  <Rbt.Receptor>
prm/pocket_docking_3.prm

>  <SCORE>
-19.1911

>  <SCORE.INTER>
-17.0782

>  <SCORE.INTER.CONST>
1

>  <SCORE.INTER.POLAR>
0

>  <SCORE.INTER.ROT>
6

>  <SCORE.INTER.SOLV>
16.2952

>  <SCORE.INTER.VDW>
-24.4172

>  <SCORE.INTER.norm>
-0.55091

>  <SCORE.INTRA>
-2.11284

>  <SCORE.INTRA.DIHEDRAL>
-4.67543

>  <SCORE.INTRA.DIHEDRAL.0>
19.2558

>  <SCORE.INTRA.POLAR>
0

>  <SCORE.INTRA.POLAR.0>
0

>  <SCORE.INTRA.REPUL>
0

>  <SCORE.INTRA.REPUL.0>
0

>  <SCORE.INTRA.SOLV>
-1.42058

>  <SCORE.INTRA.SOLV.lig_0>
-64.5929

>  <SCORE.INTRA.VDW>
0.935164

>  <SCORE.INTRA.VDW.0>
-4.40538

>  <SCORE.INTRA.norm>
-0.0681561

>  <SCORE.RESTR>
0

>  <SCORE.RESTR.CAVITY>
0

>  <SCORE.RESTR.norm>
0

>  <SCORE.SYSTEM>
0

>  <SCORE.SYSTEM.CONST>
0

>  <SCORE.SYSTEM.DIHEDRAL>
0

>  <SCORE.SYSTEM.SOLV>
0

>  <SCORE.SYSTEM.norm>
0

>  <SCORE.heavy>
31

>  <SCORE.norm>
-0.619066

>  <RMSD>
0.732

$$$$
ligand
 OpenBabel11021811493D
libRbt.so/2013.1/901 2013/11/27
 31 33  0  0  0  0  0  0  0  0999 V2000
  -19.2395  -15.5500  -12.8563 C   0  0  2  0  0  0  0  0  0  0  0  0
  -19.8333  -16.2000  -13.9706 O   0  0  0  0  0  0  0  0  0  0  0  0
  -23.6384  -16.3156  -15.8896 C   0  0  2  0  0  0  0  0  0  0  0  0
  -25.0475  -16.4623  -16.0634 N   0  0  0  0  0  0  0  0  0  0  0  0
  -25.1787  -13.3548  -15.1498 C   0  0  2  0  0  0  0  0  0  0  0  0
  -17.7001  -15.3732  -13.1900 C   0  0  2  0  0  0  0  0  0  0  0  0
  -17.5588  -14.5769  -14.4179 N   0  0  0  0  0  0  0  0  0  0  0  0
  -23.0610  -17.6746  -15.2981 C   0  0  0  0  0  0  0  0  0  0  0  0
  -25.4945  -12.4105  -16.3568 C   0  0  2  0  0  0  0  0  0  0  0  0
  -25.4039  -13.1693  -17.5395 O   0  0  0  0  0  0  0  0  0  0  0  0
  -17.0228  -16.7911  -13.3556 C   0  0  0  0  0  0  0  0  0  0  0  0
  -21.4852  -17.5145  -15.1097 C   0  0  2  0  0  0  0  0  0  0  0  0
  -20.9266  -18.7709  -14.5649 N   0  0  0  0  0  0  0  0  0  0  0  0
  -24.4641  -11.2057  -16.3637 C   0  0  1  0  0  0  0  0  0  0  0  0
  -24.7504  -10.2862  -17.5226 N   0  0  0  0  0  0  0  0  0  0  0  0
  -17.5520  -17.8424  -12.2939 C   0  0  0  0  0  0  0  0  0  0  0  0
  -21.2057  -16.3231  -14.1039 C   0  0  2  0  0  0  0  0  0  0  0  0
  -24.6138  -10.3692  -14.9762 C   0  0  1  0  0  0  0  0  0  0  0  0
  -25.9003   -9.8119  -14.7987 O   0  0  0  0  0  0  0  0  0  0  0  0
  -18.6402  -17.5804  -11.5350 C   0  0  2  0  0  0  0  0  0  0  0  0
  -19.3724  -16.3548  -11.6379 O   0  0  0  0  0  0  0  0  0  0  0  0
  -21.8037  -14.9828  -14.6986 C   0  0  2  0  0  0  0  0  0  0  0  0
  -21.5556  -13.9084  -13.7767 O   0  0  0  0  0  0  0  0  0  0  0  0
  -24.3226  -11.3337  -13.7786 C   0  0  0  0  0  0  0  0  0  0  0  0
  -25.2280  -12.5615  -13.8568 O   0  0  0  0  0  0  0  0  0  0  0  0
  -19.1776  -18.5683  -10.5005 C   0  0  0  0  0  0  0  0  0  0  0  0
  -18.3555  -19.7450  -10.5414 O   0  0  0  0  0  0  0  0  0  0  0  0
  -23.3650  -15.1366  -14.8878 C   0  0  1  0  0  0  0  0  0  0  0  0
  -23.8594  -13.9251  -15.4322 O   0  0  0  0  0  0  0  0  0  0  0  0
  -23.6514   -9.1699  -14.8402 C   0  0  0  0  0  0  0  0  0  0  0  0
  -24.1004  -10.6241  -18.8052 C   0  0  0  0  0  0  0  0  0  0  0  0
  1  2  1  6  0  0  0
  1  6  1  0  0  0  0
  1 21  1  0  0  0  0
  3  4  1  1  0  0  0
  3  8  1  0  0  0  0
  3 28  1  0  0  0  0
  5  9  1  0  0  0  0
  5 25  1  0  0  0  0
  5 29  1  6  0  0  0
  6  7  1  6  0  0  0
  6 11  1  0  0  0  0
  8 12  1  0  0  0  0
  9 10  1  6  0  0  0
  9 14  1  0  0  0  0
 11 16  1  0  0  0  0
 12 13  1  1  0  0  0
 12 17  1  0  0  0  0
 14 15  1  6  0  0  0
 14 18  1  0  0  0  0
 15 31  1  0  0  0  0
 16 20  1  0  0  0  0
 17  2  1  6  0  0  0
 17 22  1  0  0  0  0
 18 19  1  1  0  0  0
 18 24  1  0  0  0  0
 18 30  1  0  0  0  0
 20 21  1  0  0  0  0
 20 26  1  1  0  0  0
 22 23  1  1  0  0  0
 22 28  1  0  0  0  0
 24 25  1  0  0  0  0
 26 27  1  0  0  0  0
 28 29  1  6  0  0  0
M  END
>  <CHROM.1>
-169.69593567,-157.41847673,-87.48692041,-159.28254071,-1.33478807,94.90523828
-22.06000572,-14.62216648,-14.44252921,-0.70837552,-0.54344112,0.01120674

>  <Name>
ligand

>  <RI>
0

>  <Rbt.Current_Directory>
/home/itssahil/PROJECTS/Mol_Feturizer/New_Systems/rnas/4GPW

>  <Rbt.Executable>
rbdock ($Id: //depot/dev/client3/rdock/2013.1/src/exe/rbdock.cxx#4 $)

>  <Rbt.Library>
libRbt.so (2013.1, Build901 2013/11/27)

>  <Rbt.Parameter_File>
/export/apps/rDock/src/rDock_2013.1_src/data/scripts/dock_solv.prm

>  <Rbt.Receptor>
prm/pocket_docking_3.prm

>  <SCORE>
-19.4944

>  <SCORE.INTER>
-16.5273

>  <SCORE.INTER.CONST>
1

>  <SCORE.INTER.POLAR>
0

>  <SCORE.INTER.ROT>
6

>  <SCORE.INTER.SOLV>
16.2235

>  <SCORE.INTER.VDW>
-24.0261

>  <SCORE.INTER.norm>
-0.533139

>  <SCORE.INTRA>
-2.96706

>  <SCORE.INTRA.DIHEDRAL>
-7.86799

>  <SCORE.INTRA.DIHEDRAL.0>
19.2558

>  <SCORE.INTRA.POLAR>
0

>  <SCORE.INTRA.POLAR.0>
0

>  <SCORE.INTRA.REPUL>
0

>  <SCORE.INTRA.REPUL.0>
0

>  <SCORE.INTRA.SOLV>
-1.47182

>  <SCORE.INTRA.SOLV.lig_0>
-64.5929

>  <SCORE.INTRA.VDW>
1.70284

>  <SCORE.INTRA.VDW.0>
-4.40538

>  <SCORE.INTRA.norm>
-0.0957117

>  <SCORE.RESTR>
0

>  <SCORE.RESTR.CAVITY>
0

>  <SCORE.RESTR.norm>
0

>  <SCORE.SYSTEM>
0

>  <SCORE.SYSTEM.CONST>
0

>  <SCORE.SYSTEM.DIHEDRAL>
0

>  <SCORE.SYSTEM.SOLV>
0

>  <SCORE.SYSTEM.norm>
0

>  <SCORE.heavy>
31

>  <SCORE.norm>
-0.628851

>  <RMSD>
0.732

$$$$
ligand
 OpenBabel11021811493D
libRbt.so/2013.1/901 2013/11/27
 31 33  0  0  0  0  0  0  0  0999 V2000
  -19.1964  -15.5782  -12.8871 C   0  0  2  0  0  0  0  0  0  0  0  0
  -19.7881  -16.2695  -13.9774 O   0  0  0  0  0  0  0  0  0  0  0  0
  -23.6072  -16.4154  -15.8664 C   0  0  2  0  0  0  0  0  0  0  0  0
  -25.0155  -16.5797  -16.0303 N   0  0  0  0  0  0  0  0  0  0  0  0
  -25.1782  -13.4802  -15.0717 C   0  0  2  0  0  0  0  0  0  0  0  0
  -17.6567  -15.4126  -13.2250 C   0  0  2  0  0  0  0  0  0  0  0  0
  -17.5143  -14.6621  -14.4814 N   0  0  0  0  0  0  0  0  0  0  0  0
  -23.0062  -17.7731  -15.2957 C   0  0  0  0  0  0  0  0  0  0  0  0
  -25.5419  -12.5636  -16.2865 C   0  0  2  0  0  0  0  0  0  0  0  0
  -25.4697  -13.3424  -17.4574 O   0  0  0  0  0  0  0  0  0  0  0  0
  -16.9780  -16.8350  -13.3372 C   0  0  0  0  0  0  0  0  0  0  0  0
  -21.4313  -17.5934  -15.1183 C   0  0  2  0  0  0  0  0  0  0  0  0
  -20.8508  -18.8482  -14.5929 N   0  0  0  0  0  0  0  0  0  0  0  0
  -24.5327  -11.3423  -16.3426 C   0  0  1  0  0  0  0  0  0  0  0  0
  -24.8652  -10.4490  -17.5096 N   0  0  0  0  0  0  0  0  0  0  0  0
  -17.5078  -17.8468  -12.2381 C   0  0  0  0  0  0  0  0  0  0  0  0
  -21.1597  -16.4101  -14.1009 C   0  0  2  0  0  0  0  0  0  0  0  0
  -24.6597  -10.4831  -14.9667 C   0  0  1  0  0  0  0  0  0  0  0  0
  -25.9504   -9.9440  -14.7648 O   0  0  0  0  0  0  0  0  0  0  0  0
  -18.5973  -17.5579  -11.4909 C   0  0  2  0  0  0  0  0  0  0  0  0
  -19.3303  -16.3375  -11.6400 O   0  0  0  0  0  0  0  0  0  0  0  0
  -21.7812  -15.0713  -14.6749 C   0  0  2  0  0  0  0  0  0  0  0  0
  -21.5402  -14.0044  -13.7425 O   0  0  0  0  0  0  0  0  0  0  0  0
  -24.3205  -11.4205  -13.7603 C   0  0  0  0  0  0  0  0  0  0  0  0
  -25.2066  -12.6643  -13.7922 O   0  0  0  0  0  0  0  0  0  0  0  0
  -19.1353  -18.5073  -10.4213 C   0  0  0  0  0  0  0  0  0  0  0  0
  -20.2686  -19.1978  -10.9700 O   0  0  0  0  0  0  0  0  0  0  0  0
  -23.3417  -15.2446  -14.8530 C   0  0  1  0  0  0  0  0  0  0  0  0
  -23.8573  -14.0338  -15.3791 O   0  0  0  0  0  0  0  0  0  0  0  0
  -23.7147   -9.2657  -14.8781 C   0  0  0  0  0  0  0  0  0  0  0  0
  -24.0890  -10.6688  -18.7469 C   0  0  0  0  0  0  0  0  0  0  0  0
  1  2  1  6  0  0  0
  1  6  1  0  0  0  0
  1 21  1  0  0  0  0
  3  4  1  1  0  0  0
  3  8  1  0  0  0  0
  3 28  1  0  0  0  0
  5  9  1  0  0  0  0
  5 25  1  0  0  0  0
  5 29  1  6  0  0  0
  6  7  1  6  0  0  0
  6 11  1  0  0  0  0
  8 12  1  0  0  0  0
  9 10  1  6  0  0  0
  9 14  1  0  0  0  0
 11 16  1  0  0  0  0
 12 13  1  1  0  0  0
 12 17  1  0  0  0  0
 14 15  1  6  0  0  0
 14 18  1  0  0  0  0
 15 31  1  0  0  0  0
 16 20  1  0  0  0  0
 17  2  1  6  0  0  0
 17 22  1  0  0  0  0
 18 19  1  1  0  0  0
 18 24  1  0  0  0  0
 18 30  1  0  0  0  0
 20 21  1  0  0  0  0
 20 26  1  1  0  0  0
 22 23  1  1  0  0  0
 22 28  1  0  0  0  0
 24 25  1  0  0  0  0
 26 27  1  0  0  0  0
 28 29  1  6  0  0  0
M  END
>  <CHROM.1>
-170.35190292,-155.70515242,-96.60265833,-161.82111167,-101.19907843,95.36916215
-22.11946886,-14.68131249,-14.43701495,-0.72648008,-0.50440854,-0.02964328

>  <Name>
ligand

>  <RI>
0

>  <Rbt.Current_Directory>
/home/itssahil/PROJECTS/Mol_Feturizer/New_Systems/rnas/4GPW

>  <Rbt.Executable>
rbdock ($Id: //depot/dev/client3/rdock/2013.1/src/exe/rbdock.cxx#4 $)

>  <Rbt.Library>
libRbt.so (2013.1, Build901 2013/11/27)

>  <Rbt.Parameter_File>
/export/apps/rDock/src/rDock_2013.1_src/data/scripts/dock_solv.prm

>  <Rbt.Receptor>
prm/pocket_docking_4.prm

>  <SCORE>
-20.1146

>  <SCORE.INTER>
-16.2839

>  <SCORE.INTER.CONST>
1

>  <SCORE.INTER.POLAR>
0

>  <SCORE.INTER.ROT>
6

>  <SCORE.INTER.SOLV>
16.8412

>  <SCORE.INTER.VDW>
-24.0697

>  <SCORE.INTER.norm>
-0.525288

>  <SCORE.INTRA>
-3.83067

>  <SCORE.INTRA.DIHEDRAL>
-7.24077

>  <SCORE.INTRA.DIHEDRAL.0>
19.2558

>  <SCORE.INTRA.POLAR>
0

>  <SCORE.INTRA.POLAR.0>
0

>  <SCORE.INTRA.REPUL>
0

>  <SCORE.INTRA.REPUL.0>
0

>  <SCORE.INTRA.SOLV>
-1.14334

>  <SCORE.INTRA.SOLV.lig_0>
-64.5929

>  <SCORE.INTRA.VDW>
0.361385

>  <SCORE.INTRA.VDW.0>
-4.40538

>  <SCORE.INTRA.norm>
-0.12357

>  <SCORE.RESTR>
0

>  <SCORE.RESTR.CAVITY>
0

>  <SCORE.RESTR.norm>
0

>  <SCORE.SYSTEM>
0

>  <SCORE.SYSTEM.CONST>
0

>  <SCORE.SYSTEM.DIHEDRAL>
0

>  <SCORE.SYSTEM.SOLV>
0

>  <SCORE.SYSTEM.norm>
0

>  <SCORE.heavy>
31

>  <SCORE.norm>
-0.648858

>  <RMSD>
0.733

$$$$
ligand
 OpenBabel11021811493D
libRbt.so/2013.1/901 2013/11/27
 31 33  0  0  0  0  0  0  0  0999 V2000
  -19.1670  -15.5896  -12.7017 C   0  0  2  0  0  0  0  0  0  0  0  0
  -19.7745  -16.2051  -13.8281 O   0  0  0  0  0  0  0  0  0  0  0  0
  -23.5761  -15.9657  -15.7425 C   0  0  2  0  0  0  0  0  0  0  0  0
  -24.9881  -16.0513  -15.9331 N   0  0  0  0  0  0  0  0  0  0  0  0
  -25.0716  -13.1220  -14.6856 C   0  0  2  0  0  0  0  0  0  0  0  0
  -17.6230  -15.4457  -13.0296 C   0  0  2  0  0  0  0  0  0  0  0  0
  -17.4591  -14.6321  -14.2433 N   0  0  0  0  0  0  0  0  0  0  0  0
  -23.0358  -17.4057  -15.3372 C   0  0  0  0  0  0  0  0  0  0  0  0
  -25.5015  -12.3498  -15.9768 C   0  0  2  0  0  0  0  0  0  0  0  0
  -25.4245  -13.2413  -17.0640 O   0  0  0  0  0  0  0  0  0  0  0  0
  -16.9811  -16.8771  -13.2187 C   0  0  0  0  0  0  0  0  0  0  0  0
  -21.4569  -17.3132  -15.1304 C   0  0  2  0  0  0  0  0  0  0  0  0
  -20.9325  -18.6449  -14.7577 N   0  0  0  0  0  0  0  0  0  0  0  0
  -24.5457  -11.1023  -16.1845 C   0  0  1  0  0  0  0  0  0  0  0  0
  -24.9423  -10.3472  -17.4267 N   0  0  0  0  0  0  0  0  0  0  0  0
  -17.5387  -17.9330  -12.1764 C   0  0  0  0  0  0  0  0  0  0  0  0
  -21.1493  -16.2736  -13.9755 C   0  0  2  0  0  0  0  0  0  0  0  0
  -24.6760  -10.1119  -14.9001 C   0  0  1  0  0  0  0  0  0  0  0  0
  -25.9830   -9.6057  -14.7185 O   0  0  0  0  0  0  0  0  0  0  0  0
  -18.6216  -17.6570  -11.4149 C   0  0  2  0  0  0  0  0  0  0  0  0
  -19.3226  -16.4118  -11.4976 O   0  0  0  0  0  0  0  0  0  0  0  0
  -21.7108  -14.8511  -14.3864 C   0  0  2  0  0  0  0  0  0  0  0  0
  -21.4374  -13.9154  -13.3302 O   0  0  0  0  0  0  0  0  0  0  0  0
  -24.2699  -10.9066  -13.6145 C   0  0  0  0  0  0  0  0  0  0  0  0
  -25.1040  -12.1807  -13.4954 O   0  0  0  0  0  0  0  0  0  0  0  0
  -19.1858  -18.6489  -10.3986 C   0  0  0  0  0  0  0  0  0  0  0  0
  -18.4837  -19.8918  -10.5544 O   0  0  0  0  0  0  0  0  0  0  0  0
  -23.2750  -14.9377  -14.5932 C   0  0  1  0  0  0  0  0  0  0  0  0
  -23.7365  -13.6522  -14.9715 O   0  0  0  0  0  0  0  0  0  0  0  0
  -23.7807   -8.8559  -14.9618 C   0  0  0  0  0  0  0  0  0  0  0  0
  -24.1452  -10.6154  -18.6409 C   0  0  0  0  0  0  0  0  0  0  0  0
  1  2  1  6  0  0  0
  1  6  1  0  0  0  0
  1 21  1  0  0  0  0
  3  4  1  1  0  0  0
  3  8  1  0  0  0  0
  3 28  1  0  0  0  0
  5  9  1  0  0  0  0
  5 25  1  0  0  0  0
  5 29  1  6  0  0  0
  6  7  1  6  0  0  0
  6 11  1  0  0  0  0
  8 12  1  0  0  0  0
  9 10  1  6  0  0  0
  9 14  1  0  0  0  0
 11 16  1  0  0  0  0
 12 13  1  1  0  0  0
 12 17  1  0  0  0  0
 14 15  1  6  0  0  0
 14 18  1  0  0  0  0
 15 31  1  0  0  0  0
 16 20  1  0  0  0  0
 17  2  1  6  0  0  0
 17 22  1  0  0  0  0
 18 19  1  1  0  0  0
 18 24  1  0  0  0  0
 18 30  1  0  0  0  0
 20 21  1  0  0  0  0
 20 26  1  1  0  0  0
 22 23  1  1  0  0  0
 22 28  1  0  0  0  0
 24 25  1  0  0  0  0
 26 27  1  0  0  0  0
 28 29  1  6  0  0  0
M  END
>  <CHROM.1>
-168.70829436,-139.87975524,-99.40030323,-166.39230784,-7.20345093,90.92871087
-22.04078983,-14.52208631,-14.27202113,-0.69778695,-0.56459045,0.06921918

>  <Name>
ligand

>  <RI>
0

>  <Rbt.Current_Directory>
/home/itssahil/PROJECTS/Mol_Feturizer/New_Systems/rnas/4GPW

>  <Rbt.Executable>
rbdock ($Id: //depot/dev/client3/rdock/2013.1/src/exe/rbdock.cxx#4 $)

>  <Rbt.Library>
libRbt.so (2013.1, Build901 2013/11/27)

>  <Rbt.Parameter_File>
/export/apps/rDock/src/rDock_2013.1_src/data/scripts/dock_solv.prm

>  <Rbt.Receptor>
prm/pocket_docking_2.prm

>  <SCORE>
-19.2223

>  <SCORE.INTER>
-17.204

>  <SCORE.INTER.CONST>
1

>  <SCORE.INTER.POLAR>
0

>  <SCORE.INTER.ROT>
6

>  <SCORE.INTER.SOLV>
16.7798

>  <SCORE.INTER.VDW>
-24.6626

>  <SCORE.INTER.norm>
-0.554966

>  <SCORE.INTRA>
-2.01838

>  <SCORE.INTRA.DIHEDRAL>
-5.93643

>  <SCORE.INTRA.DIHEDRAL.0>
19.2558

>  <SCORE.INTRA.POLAR>
0

>  <SCORE.INTRA.POLAR.0>
0

>  <SCORE.INTRA.REPUL>
0

>  <SCORE.INTRA.REPUL.0>
0

>  <SCORE.INTRA.SOLV>
-1.45142

>  <SCORE.INTRA.SOLV.lig_0>
-64.5929

>  <SCORE.INTRA.VDW>
1.67555

>  <SCORE.INTRA.VDW.0>
-4.40538

>  <SCORE.INTRA.norm>
-0.0651089

>  <SCORE.RESTR>
0

>  <SCORE.RESTR.CAVITY>
0

>  <SCORE.RESTR.norm>
0

>  <SCORE.SYSTEM>
0

>  <SCORE.SYSTEM.CONST>
0

>  <SCORE.SYSTEM.DIHEDRAL>
0

>  <SCORE.SYSTEM.SOLV>
0

>  <SCORE.SYSTEM.norm>
0

>  <SCORE.heavy>
31

>  <SCORE.norm>
-0.620075

>  <RMSD>
0.734

$$$$
ligand
 OpenBabel11021811493D
libRbt.so/2013.1/901 2013/11/27
 31 33  0  0  0  0  0  0  0  0999 V2000
  -19.2188  -15.5092  -12.8438 C   0  0  2  0  0  0  0  0  0  0  0  0
  -19.8109  -16.1679  -13.9538 O   0  0  0  0  0  0  0  0  0  0  0  0
  -23.6173  -16.3106  -15.8684 C   0  0  2  0  0  0  0  0  0  0  0  0
  -25.0260  -16.4641  -16.0399 N   0  0  0  0  0  0  0  0  0  0  0  0
  -25.1601  -13.3399  -15.1278 C   0  0  2  0  0  0  0  0  0  0  0  0
  -17.6766  -15.3455  -13.1716 C   0  0  2  0  0  0  0  0  0  0  0  0
  -17.5242  -14.5639  -14.4076 N   0  0  0  0  0  0  0  0  0  0  0  0
  -23.0339  -17.6636  -15.2692 C   0  0  0  0  0  0  0  0  0  0  0  0
  -25.4910  -12.4057  -16.3386 C   0  0  2  0  0  0  0  0  0  0  0  0
  -25.4219  -13.1759  -17.5153 O   0  0  0  0  0  0  0  0  0  0  0  0
  -17.0073  -16.7693  -13.3181 C   0  0  0  0  0  0  0  0  0  0  0  0
  -21.4586  -17.4960  -15.0833 C   0  0  2  0  0  0  0  0  0  0  0  0
  -20.8944  -18.7468  -14.5314 N   0  0  0  0  0  0  0  0  0  0  0  0
  -24.4562  -11.2053  -16.3728 C   0  0  1  0  0  0  0  0  0  0  0  0
  -24.7569  -10.2954  -17.5357 N   0  0  0  0  0  0  0  0  0  0  0  0
  -17.5483  -17.8054  -12.2475 C   0  0  0  0  0  0  0  0  0  0  0  0
  -21.1829  -16.2974  -14.0850 C   0  0  2  0  0  0  0  0  0  0  0  0
  -24.5808  -10.3553  -14.9910 C   0  0  1  0  0  0  0  0  0  0  0  0
  -25.8623   -9.7911  -14.7988 O   0  0  0  0  0  0  0  0  0  0  0  0
  -18.6386  -17.5284  -11.4971 C   0  0  2  0  0  0  0  0  0  0  0  0
  -19.3627  -16.2995  -11.6172 O   0  0  0  0  0  0  0  0  0  0  0  0
  -21.7870  -14.9631  -14.6873 C   0  0  2  0  0  0  0  0  0  0  0  0
  -21.5423  -13.8821  -13.7722 O   0  0  0  0  0  0  0  0  0  0  0  0
  -24.2748  -11.3097  -13.7891 C   0  0  0  0  0  0  0  0  0  0  0  0
  -25.1861  -12.5345  -13.8416 O   0  0  0  0  0  0  0  0  0  0  0  0
  -19.1873  -18.5014  -10.4544 C   0  0  0  0  0  0  0  0  0  0  0  0
  -18.3078  -19.6352  -10.3990 O   0  0  0  0  0  0  0  0  0  0  0  0
  -23.3478  -15.1244  -14.8740 C   0  0  1  0  0  0  0  0  0  0  0  0
  -23.8477  -13.9183  -15.4253 O   0  0  0  0  0  0  0  0  0  0  0  0
  -23.6118   -9.1586  -14.8814 C   0  0  0  0  0  0  0  0  0  0  0  0
  -24.0453  -10.5850  -18.7973 C   0  0  0  0  0  0  0  0  0  0  0  0
  1  2  1  6  0  0  0
  1  6  1  0  0  0  0
  1 21  1  0  0  0  0
  3  4  1  1  0  0  0
  3  8  1  0  0  0  0
  3 28  1  0  0  0  0
  5  9  1  0  0  0  0
  5 25  1  0  0  0  0
  5 29  1  6  0  0  0
  6  7  1  6  0  0  0
  6 11  1  0  0  0  0
  8 12  1  0  0  0  0
  9 10  1  6  0  0  0
  9 14  1  0  0  0  0
 11 16  1  0  0  0  0
 12 13  1  1  0  0  0
 12 17  1  0  0  0  0
 14 15  1  6  0  0  0
 14 18  1  0  0  0  0
 15 31  1  0  0  0  0
 16 20  1  0  0  0  0
 17  2  1  6  0  0  0
 17 22  1  0  0  0  0
 18 19  1  1  0  0  0
 18 24  1  0  0  0  0
 18 30  1  0  0  0  0
 20 21  1  0  0  0  0
 20 26  1  1  0  0  0
 22 23  1  1  0  0  0
 22 28  1  0  0  0  0
 24 25  1  0  0  0  0
 26 27  1  0  0  0  0
 28 29  1  6  0  0  0
M  END
>  <CHROM.1>
-170.44532626,-157.63147744,-92.15739917,-159.25841540,3.39904295,95.98721776
-22.03915907,-14.59764878,-14.42354112,-0.70746165,-0.54429320,0.00367348

>  <Name>
ligand

>  <RI>
0

>  <Rbt.Current_Directory>
/home/itssahil/PROJECTS/Mol_Feturizer/New_Systems/rnas/4GPW

>  <Rbt.Executable>
rbdock ($Id: //depot/dev/client3/rdock/2013.1/src/exe/rbdock.cxx#4 $)

>  <Rbt.Library>
libRbt.so (2013.1, Build901 2013/11/27)

>  <Rbt.Parameter_File>
/export/apps/rDock/src/rDock_2013.1_src/data/scripts/dock_solv.prm

>  <Rbt.Receptor>
prm/pocket_docking_2.prm

>  <SCORE>
-19.3738

>  <SCORE.INTER>
-16.3884

>  <SCORE.INTER.CONST>
1

>  <SCORE.INTER.POLAR>
0

>  <SCORE.INTER.ROT>
6

>  <SCORE.INTER.SOLV>
16.4666

>  <SCORE.INTER.VDW>
-24.0145

>  <SCORE.INTER.norm>
-0.528658

>  <SCORE.INTRA>
-2.98536

>  <SCORE.INTRA.DIHEDRAL>
-7.61713

>  <SCORE.INTRA.DIHEDRAL.0>
19.2558

>  <SCORE.INTRA.POLAR>
0

>  <SCORE.INTRA.POLAR.0>
0

>  <SCORE.INTRA.REPUL>
0

>  <SCORE.INTRA.REPUL.0>
0

>  <SCORE.INTRA.SOLV>
-1.49537

>  <SCORE.INTRA.SOLV.lig_0>
-64.5929

>  <SCORE.INTRA.VDW>
1.57089

>  <SCORE.INTRA.VDW.0>
-4.40538

>  <SCORE.INTRA.norm>
-0.0963021

>  <SCORE.RESTR>
0

>  <SCORE.RESTR.CAVITY>
0

>  <SCORE.RESTR.norm>
0

>  <SCORE.SYSTEM>
0

>  <SCORE.SYSTEM.CONST>
0

>  <SCORE.SYSTEM.DIHEDRAL>
0

>  <SCORE.SYSTEM.SOLV>
0

>  <SCORE.SYSTEM.norm>
0

>  <SCORE.heavy>
31

>  <SCORE.norm>
-0.62496

>  <RMSD>
0.735

$$$$
ligand
 OpenBabel11021811493D
libRbt.so/2013.1/901 2013/11/27
 31 33  0  0  0  0  0  0  0  0999 V2000
  -19.1851  -15.5632  -12.9100 C   0  0  2  0  0  0  0  0  0  0  0  0
  -19.7995  -16.2547  -13.9874 O   0  0  0  0  0  0  0  0  0  0  0  0
  -23.6230  -16.3375  -15.8711 C   0  0  2  0  0  0  0  0  0  0  0  0
  -25.0360  -16.4623  -16.0301 N   0  0  0  0  0  0  0  0  0  0  0  0
  -25.1308  -13.3729  -15.2277 C   0  0  2  0  0  0  0  0  0  0  0  0
  -17.6450  -15.4333  -13.2616 C   0  0  2  0  0  0  0  0  0  0  0  0
  -17.4972  -14.7006  -14.5278 N   0  0  0  0  0  0  0  0  0  0  0  0
  -23.0644  -17.6955  -15.2599 C   0  0  0  0  0  0  0  0  0  0  0  0
  -25.4013  -12.4282  -16.4453 C   0  0  2  0  0  0  0  0  0  0  0  0
  -25.2573  -13.1843  -17.6244 O   0  0  0  0  0  0  0  0  0  0  0  0
  -16.9966  -16.8707  -13.3622 C   0  0  0  0  0  0  0  0  0  0  0  0
  -21.4844  -17.5601  -15.0880 C   0  0  2  0  0  0  0  0  0  0  0  0
  -20.9432  -18.8161  -14.5251 N   0  0  0  0  0  0  0  0  0  0  0  0
  -24.3782  -11.2178  -16.4073 C   0  0  1  0  0  0  0  0  0  0  0  0
  -24.6210  -10.2977  -17.5756 N   0  0  0  0  0  0  0  0  0  0  0  0
  -17.5384  -17.8584  -12.2472 C   0  0  0  0  0  0  0  0  0  0  0  0
  -21.1749  -16.3558  -14.1066 C   0  0  2  0  0  0  0  0  0  0  0  0
  -24.5901  -10.3847  -15.0258 C   0  0  1  0  0  0  0  0  0  0  0  0
  -25.8859   -9.8347  -14.9013 O   0  0  0  0  0  0  0  0  0  0  0  0
  -18.6157  -17.5384  -11.4951 C   0  0  2  0  0  0  0  0  0  0  0  0
  -19.3247  -16.3050  -11.6529 O   0  0  0  0  0  0  0  0  0  0  0  0
  -21.7546  -15.0161  -14.7206 C   0  0  2  0  0  0  0  0  0  0  0  0
  -21.4793  -13.9297  -13.8208 O   0  0  0  0  0  0  0  0  0  0  0  0
  -24.3437  -11.3497  -13.8187 C   0  0  0  0  0  0  0  0  0  0  0  0
  -25.2383  -12.5823  -13.9365 O   0  0  0  0  0  0  0  0  0  0  0  0
  -19.1647  -18.4640  -10.4103 C   0  0  0  0  0  0  0  0  0  0  0  0
  -18.6803  -19.7904  -10.6716 O   0  0  0  0  0  0  0  0  0  0  0  0
  -23.3200  -15.1455  -14.8935 C   0  0  1  0  0  0  0  0  0  0  0  0
  -23.7978  -13.9356  -15.4558 O   0  0  0  0  0  0  0  0  0  0  0  0
  -23.6409   -9.1803  -14.8480 C   0  0  0  0  0  0  0  0  0  0  0  0
  -23.8955  -10.6142  -18.8227 C   0  0  0  0  0  0  0  0  0  0  0  0
  1  2  1  6  0  0  0
  1  6  1  0  0  0  0
  1 21  1  0  0  0  0
  3  4  1  1  0  0  0
  3  8  1  0  0  0  0
  3 28  1  0  0  0  0
  5  9  1  0  0  0  0
  5 25  1  0  0  0  0
  5 29  1  6  0  0  0
  6  7  1  6  0  0  0
  6 11  1  0  0  0  0
  8 12  1  0  0  0  0
  9 10  1  6  0  0  0
  9 14  1  0  0  0  0
 11 16  1  0  0  0  0
 12 13  1  1  0  0  0
 12 17  1  0  0  0  0
 14 15  1  6  0  0  0
 14 18  1  0  0  0  0
 15 31  1  0  0  0  0
 16 20  1  0  0  0  0
 17  2  1  6  0  0  0
 17 22  1  0  0  0  0
 18 19  1  1  0  0  0
 18 24  1  0  0  0  0
 18 30  1  0  0  0  0
 20 21  1  0  0  0  0
 20 26  1  1  0  0  0
 22 23  1  1  0  0  0
 22 28  1  0  0  0  0
 24 25  1  0  0  0  0
 26 27  1  0  0  0  0
 28 29  1  6  0  0  0
M  END
>  <CHROM.1>
-169.62642921,-157.39786880,-88.65903899,-161.07044904,-19.74432088,91.51275536
-22.02864133,-14.64095222,-14.47006995,-0.73202917,-0.52543121,-0.02432100

>  <Name>
ligand

>  <RI>
0

>  <Rbt.Current_Directory>
/home/itssahil/PROJECTS/Mol_Feturizer/New_Systems/rnas/4GPW

>  <Rbt.Executable>
rbdock ($Id: //depot/dev/client3/rdock/2013.1/src/exe/rbdock.cxx#4 $)

>  <Rbt.Library>
libRbt.so (2013.1, Build901 2013/11/27)

>  <Rbt.Parameter_File>
/export/apps/rDock/src/rDock_2013.1_src/data/scripts/dock_solv.prm

>  <Rbt.Receptor>
prm/pocket_docking_2.prm

>  <SCORE>
-19.4552

>  <SCORE.INTER>
-16.0683

>  <SCORE.INTER.CONST>
1

>  <SCORE.INTER.POLAR>
0

>  <SCORE.INTER.ROT>
6

>  <SCORE.INTER.SOLV>
15.8813

>  <SCORE.INTER.VDW>
-23.606

>  <SCORE.INTER.norm>
-0.518331

>  <SCORE.INTRA>
-3.38689

>  <SCORE.INTRA.DIHEDRAL>
-8.27128

>  <SCORE.INTRA.DIHEDRAL.0>
19.2558

>  <SCORE.INTRA.POLAR>
0

>  <SCORE.INTRA.POLAR.0>
0

>  <SCORE.INTRA.REPUL>
0

>  <SCORE.INTRA.REPUL.0>
0

>  <SCORE.INTRA.SOLV>
-1.6244

>  <SCORE.INTRA.SOLV.lig_0>
-64.5929

>  <SCORE.INTRA.VDW>
1.56096

>  <SCORE.INTRA.VDW.0>
-4.40538

>  <SCORE.INTRA.norm>
-0.109254

>  <SCORE.RESTR>
0

>  <SCORE.RESTR.CAVITY>
0

>  <SCORE.RESTR.norm>
0

>  <SCORE.SYSTEM>
0

>  <SCORE.SYSTEM.CONST>
0

>  <SCORE.SYSTEM.DIHEDRAL>
0

>  <SCORE.SYSTEM.SOLV>
0

>  <SCORE.SYSTEM.norm>
0

>  <SCORE.heavy>
31

>  <SCORE.norm>
-0.627586

>  <RMSD>
0.736

$$$$
ligand
 OpenBabel11021811493D
libRbt.so/2013.1/901 2013/11/27
 31 33  0  0  0  0  0  0  0  0999 V2000
  -19.1659  -15.5941  -12.9091 C   0  0  2  0  0  0  0  0  0  0  0  0
  -19.7902  -16.2765  -13.9867 O   0  0  0  0  0  0  0  0  0  0  0  0
  -23.6286  -16.2528  -15.8415 C   0  0  2  0  0  0  0  0  0  0  0  0
  -25.0432  -16.3652  -15.9953 N   0  0  0  0  0  0  0  0  0  0  0  0
  -25.1163  -13.3135  -15.0264 C   0  0  2  0  0  0  0  0  0  0  0  0
  -17.6269  -15.4720  -13.2682 C   0  0  2  0  0  0  0  0  0  0  0  0
  -17.4811  -14.7340  -14.5315 N   0  0  0  0  0  0  0  0  0  0  0  0
  -23.0699  -17.6416  -15.3039 C   0  0  0  0  0  0  0  0  0  0  0  0
  -25.4461  -12.3918  -16.2470 C   0  0  2  0  0  0  0  0  0  0  0  0
  -25.3514  -13.1682  -17.4179 O   0  0  0  0  0  0  0  0  0  0  0  0
  -16.9880  -16.9129  -13.3793 C   0  0  0  0  0  0  0  0  0  0  0  0
  -21.4881  -17.5198  -15.1381 C   0  0  2  0  0  0  0  0  0  0  0  0
  -20.9468  -18.8041  -14.6435 N   0  0  0  0  0  0  0  0  0  0  0  0
  -24.4285  -11.1765  -16.2764 C   0  0  1  0  0  0  0  0  0  0  0  0
  -24.7284  -10.2784  -17.4486 N   0  0  0  0  0  0  0  0  0  0  0  0
  -17.5300  -17.9027  -12.2663 C   0  0  0  0  0  0  0  0  0  0  0  0
  -21.1669  -16.3674  -14.0998 C   0  0  2  0  0  0  0  0  0  0  0  0
  -24.5824  -10.3199  -14.9017 C   0  0  1  0  0  0  0  0  0  0  0  0
  -25.8742   -9.7734  -14.7286 O   0  0  0  0  0  0  0  0  0  0  0  0
  -18.6014  -17.5798  -11.5070 C   0  0  2  0  0  0  0  0  0  0  0  0
  -19.3035  -16.3412  -11.6550 O   0  0  0  0  0  0  0  0  0  0  0  0
  -21.7468  -14.9967  -14.6409 C   0  0  2  0  0  0  0  0  0  0  0  0
  -21.4608  -13.9578  -13.6897 O   0  0  0  0  0  0  0  0  0  0  0  0
  -24.2771  -11.2622  -13.6901 C   0  0  0  0  0  0  0  0  0  0  0  0
  -25.1697  -12.5005  -13.7458 O   0  0  0  0  0  0  0  0  0  0  0  0
  -19.1504  -18.5073  -10.4238 C   0  0  0  0  0  0  0  0  0  0  0  0
  -18.5125  -19.7857  -10.5689 O   0  0  0  0  0  0  0  0  0  0  0  0
  -23.3139  -15.1126  -14.8076 C   0  0  1  0  0  0  0  0  0  0  0  0
  -23.7921  -13.8744  -15.3044 O   0  0  0  0  0  0  0  0  0  0  0  0
  -23.6323   -9.1084  -14.7880 C   0  0  0  0  0  0  0  0  0  0  0  0
  -24.0548  -10.6115  -18.7203 C   0  0  0  0  0  0  0  0  0  0  0  0
  1  2  1  6  0  0  0
  1  6  1  0  0  0  0
  1 21  1  0  0  0  0
  3  4  1  1  0  0  0
  3  8  1  0  0  0  0
  3 28  1  0  0  0  0
  5  9  1  0  0  0  0
  5 25  1  0  0  0  0
  5 29  1  6  0  0  0
  6  7  1  6  0  0  0
  6 11  1  0  0  0  0
  8 12  1  0  0  0  0
  9 10  1  6  0  0  0
  9 14  1  0  0  0  0
 11 16  1  0  0  0  0
 12 13  1  1  0  0  0
 12 17  1  0  0  0  0
 14 15  1  6  0  0  0
 14 18  1  0  0  0  0
 15 31  1  0  0  0  0
 16 20  1  0  0  0  0
 17  2  1  6  0  0  0
 17 22  1  0  0  0  0
 18 19  1  1  0  0  0
 18 24  1  0  0  0  0
 18 30  1  0  0  0  0
 20 21  1  0  0  0  0
 20 26  1  1  0  0  0
 22 23  1  1  0  0  0
 22 28  1  0  0  0  0
 24 25  1  0  0  0  0
 26 27  1  0  0  0  0
 28 29  1  6  0  0  0
M  END
>  <CHROM.1>
-169.56162423,-153.34183943,-88.84128457,-163.72007454,-10.85554620,92.17256999
-22.02677736,-14.62248705,-14.40432150,-0.71402018,-0.53920721,0.02357444

>  <Name>
ligand

>  <RI>
0

>  <Rbt.Current_Directory>
/home/itssahil/PROJECTS/Mol_Feturizer/New_Systems/rnas/4GPW

>  <Rbt.Executable>
rbdock ($Id: //depot/dev/client3/rdock/2013.1/src/exe/rbdock.cxx#4 $)

>  <Rbt.Library>
libRbt.so (2013.1, Build901 2013/11/27)

>  <Rbt.Parameter_File>
/export/apps/rDock/src/rDock_2013.1_src/data/scripts/dock_solv.prm

>  <Rbt.Receptor>
prm/pocket_docking_3.prm

>  <SCORE>
-19.4473

>  <SCORE.INTER>
-16.3215

>  <SCORE.INTER.CONST>
1

>  <SCORE.INTER.POLAR>
0

>  <SCORE.INTER.ROT>
6

>  <SCORE.INTER.SOLV>
16.2714

>  <SCORE.INTER.VDW>
-23.9048

>  <SCORE.INTER.norm>
-0.5265

>  <SCORE.INTRA>
-3.12583

>  <SCORE.INTRA.DIHEDRAL>
-8.11807

>  <SCORE.INTRA.DIHEDRAL.0>
19.2558

>  <SCORE.INTRA.POLAR>
0

>  <SCORE.INTRA.POLAR.0>
0

>  <SCORE.INTRA.REPUL>
0

>  <SCORE.INTRA.REPUL.0>
0

>  <SCORE.INTRA.SOLV>
-1.69376

>  <SCORE.INTRA.SOLV.lig_0>
-64.5929

>  <SCORE.INTRA.VDW>
1.78009

>  <SCORE.INTRA.VDW.0>
-4.40538

>  <SCORE.INTRA.norm>
-0.100833

>  <SCORE.RESTR>
0

>  <SCORE.RESTR.CAVITY>
0

>  <SCORE.RESTR.norm>
0

>  <SCORE.SYSTEM>
0

>  <SCORE.SYSTEM.CONST>
0

>  <SCORE.SYSTEM.DIHEDRAL>
0

>  <SCORE.SYSTEM.SOLV>
0

>  <SCORE.SYSTEM.norm>
0

>  <SCORE.heavy>
31

>  <SCORE.norm>
-0.627333

>  <RMSD>
0.737

$$$$
ligand
 OpenBabel11021811493D
libRbt.so/2013.1/901 2013/11/27
 31 33  0  0  0  0  0  0  0  0999 V2000
  -19.2328  -15.5401  -12.8825 C   0  0  2  0  0  0  0  0  0  0  0  0
  -19.8289  -16.2272  -13.9730 O   0  0  0  0  0  0  0  0  0  0  0  0
  -23.6369  -16.3111  -15.8878 C   0  0  2  0  0  0  0  0  0  0  0  0
  -25.0468  -16.4512  -16.0611 N   0  0  0  0  0  0  0  0  0  0  0  0
  -25.1737  -13.3623  -15.1342 C   0  0  2  0  0  0  0  0  0  0  0  0
  -17.6944  -15.3735  -13.2258 C   0  0  2  0  0  0  0  0  0  0  0  0
  -17.5567  -14.6184  -14.4799 N   0  0  0  0  0  0  0  0  0  0  0  0
  -23.0636  -17.6776  -15.3101 C   0  0  0  0  0  0  0  0  0  0  0  0
  -25.4963  -12.4367  -16.3538 C   0  0  2  0  0  0  0  0  0  0  0  0
  -25.3972  -13.2099  -17.5264 O   0  0  0  0  0  0  0  0  0  0  0  0
  -17.0165  -16.7957  -13.3460 C   0  0  0  0  0  0  0  0  0  0  0  0
  -21.4870  -17.5249  -15.1223 C   0  0  2  0  0  0  0  0  0  0  0  0
  -20.9321  -18.7884  -14.5902 N   0  0  0  0  0  0  0  0  0  0  0  0
  -24.4769  -11.2228  -16.3749 C   0  0  1  0  0  0  0  0  0  0  0  0
  -24.7698  -10.3210  -17.5460 N   0  0  0  0  0  0  0  0  0  0  0  0
  -17.5422  -17.8114  -12.2486 C   0  0  0  0  0  0  0  0  0  0  0  0
  -21.2019  -16.3442  -14.1056 C   0  0  2  0  0  0  0  0  0  0  0  0
  -24.6360  -10.3698  -14.9986 C   0  0  1  0  0  0  0  0  0  0  0  0
  -25.9278   -9.8219  -14.8300 O   0  0  0  0  0  0  0  0  0  0  0  0
  -18.6287  -17.5251  -11.4960 C   0  0  2  0  0  0  0  0  0  0  0  0
  -19.3620  -16.3040  -11.6377 O   0  0  0  0  0  0  0  0  0  0  0  0
  -21.7960  -14.9962  -14.6867 C   0  0  2  0  0  0  0  0  0  0  0  0
  -21.5428  -13.9314  -13.7551 O   0  0  0  0  0  0  0  0  0  0  0  0
  -24.3378  -11.3159  -13.7882 C   0  0  0  0  0  0  0  0  0  0  0  0
  -25.2319  -12.5528  -13.8516 O   0  0  0  0  0  0  0  0  0  0  0  0
  -19.1627  -18.4784  -10.4279 C   0  0  0  0  0  0  0  0  0  0  0  0
  -18.4908  -19.7382  -10.5812 O   0  0  0  0  0  0  0  0  0  0  0  0
  -23.3581  -15.1426  -14.8752 C   0  0  1  0  0  0  0  0  0  0  0  0
  -23.8489  -13.9243  -15.4075 O   0  0  0  0  0  0  0  0  0  0  0  0
  -23.6847   -9.1601  -14.8770 C   0  0  0  0  0  0  0  0  0  0  0  0
  -24.0472  -10.6170  -18.7998 C   0  0  0  0  0  0  0  0  0  0  0  0
  1  2  1  6  0  0  0
  1  6  1  0  0  0  0
  1 21  1  0  0  0  0
  3  4  1  1  0  0  0
  3  8  1  0  0  0  0
  3 28  1  0  0  0  0
  5  9  1  0  0  0  0
  5 25  1  0  0  0  0
  5 29  1  6  0  0  0
  6  7  1  6  0  0  0
  6 11  1  0  0  0  0
  8 12  1  0  0  0  0
  9 10  1  6  0  0  0
  9 14  1  0  0  0  0
 11 16  1  0  0  0  0
 12 13  1  1  0  0  0
 12 17  1  0  0  0  0
 14 15  1  6  0  0  0
 14 18  1  0  0  0  0
 15 31  1  0  0  0  0
 16 20  1  0  0  0  0
 17  2  1  6  0  0  0
 17 22  1  0  0  0  0
 18 19  1  1  0  0  0
 18 24  1  0  0  0  0
 18 30  1  0  0  0  0
 20 21  1  0  0  0  0
 20 26  1  1  0  0  0
 22 23  1  1  0  0  0
 22 28  1  0  0  0  0
 24 25  1  0  0  0  0
 26 27  1  0  0  0  0
 28 29  1  6  0  0  0
M  END
>  <CHROM.1>
-169.04450591,-155.60922731,-91.33908550,-162.02743449,-10.91443498,93.90912911
-22.06369888,-14.62223907,-14.44471118,-0.70734151,-0.54304550,0.00994181

>  <Name>
ligand

>  <RI>
0

>  <Rbt.Current_Directory>
/home/itssahil/PROJECTS/Mol_Feturizer/New_Systems/rnas/4GPW

>  <Rbt.Executable>
rbdock ($Id: //depot/dev/client3/rdock/2013.1/src/exe/rbdock.cxx#4 $)

>  <Rbt.Library>
libRbt.so (2013.1, Build901 2013/11/27)

>  <Rbt.Parameter_File>
/export/apps/rDock/src/rDock_2013.1_src/data/scripts/dock_solv.prm

>  <Rbt.Receptor>
prm/pocket_docking_5.prm

>  <SCORE>
-19.598

>  <SCORE.INTER>
-16.5196

>  <SCORE.INTER.CONST>
1

>  <SCORE.INTER.POLAR>
0

>  <SCORE.INTER.ROT>
6

>  <SCORE.INTER.SOLV>
16.309

>  <SCORE.INTER.VDW>
-24.0494

>  <SCORE.INTER.norm>
-0.532891

>  <SCORE.INTRA>
-3.07841

>  <SCORE.INTRA.DIHEDRAL>
-7.83073

>  <SCORE.INTRA.DIHEDRAL.0>
19.2558

>  <SCORE.INTRA.POLAR>
0

>  <SCORE.INTRA.POLAR.0>
0

>  <SCORE.INTRA.REPUL>
0

>  <SCORE.INTRA.REPUL.0>
0

>  <SCORE.INTRA.SOLV>
-1.63185

>  <SCORE.INTRA.SOLV.lig_0>
-64.5929

>  <SCORE.INTRA.VDW>
1.65287

>  <SCORE.INTRA.VDW.0>
-4.40538

>  <SCORE.INTRA.norm>
-0.0993037

>  <SCORE.RESTR>
0

>  <SCORE.RESTR.CAVITY>
0

>  <SCORE.RESTR.norm>
0

>  <SCORE.SYSTEM>
0

>  <SCORE.SYSTEM.CONST>
0

>  <SCORE.SYSTEM.DIHEDRAL>
0

>  <SCORE.SYSTEM.SOLV>
0

>  <SCORE.SYSTEM.norm>
0

>  <SCORE.heavy>
31

>  <SCORE.norm>
-0.632195

>  <RMSD>
0.740

$$$$
ligand
 OpenBabel11021811493D
libRbt.so/2013.1/901 2013/11/27
 31 33  0  0  0  0  0  0  0  0999 V2000
  -19.1949  -15.5770  -12.8744 C   0  0  2  0  0  0  0  0  0  0  0  0
  -19.8067  -16.2397  -13.9713 O   0  0  0  0  0  0  0  0  0  0  0  0
  -23.6269  -16.2980  -15.8627 C   0  0  2  0  0  0  0  0  0  0  0  0
  -25.0394  -16.4222  -16.0261 N   0  0  0  0  0  0  0  0  0  0  0  0
  -25.1409  -13.3474  -15.1779 C   0  0  2  0  0  0  0  0  0  0  0  0
  -17.6528  -15.4441  -13.2158 C   0  0  2  0  0  0  0  0  0  0  0  0
  -17.4966  -14.6810  -14.4629 N   0  0  0  0  0  0  0  0  0  0  0  0
  -23.0675  -17.6648  -15.2719 C   0  0  0  0  0  0  0  0  0  0  0  0
  -25.4267  -12.4168  -16.4029 C   0  0  2  0  0  0  0  0  0  0  0  0
  -25.2860  -13.1837  -17.5754 O   0  0  0  0  0  0  0  0  0  0  0  0
  -17.0090  -16.8809  -13.3488 C   0  0  0  0  0  0  0  0  0  0  0  0
  -21.4880  -17.5299  -15.0951 C   0  0  2  0  0  0  0  0  0  0  0  0
  -20.9460  -18.7939  -14.5510 N   0  0  0  0  0  0  0  0  0  0  0  0
  -24.4117  -11.1991  -16.3844 C   0  0  1  0  0  0  0  0  0  0  0  0
  -24.6693  -10.2924  -17.5600 N   0  0  0  0  0  0  0  0  0  0  0  0
  -17.5593  -17.8937  -12.2608 C   0  0  0  0  0  0  0  0  0  0  0  0
  -21.1819  -16.3407  -14.0945 C   0  0  2  0  0  0  0  0  0  0  0  0
  -24.6194  -10.3537  -15.0098 C   0  0  1  0  0  0  0  0  0  0  0  0
  -25.9181   -9.8114  -14.8812 O   0  0  0  0  0  0  0  0  0  0  0  0
  -18.6390  -17.5884  -11.5060 C   0  0  2  0  0  0  0  0  0  0  0  0
  -19.3429  -16.3489  -11.6366 O   0  0  0  0  0  0  0  0  0  0  0  0
  -21.7623  -14.9924  -14.6884 C   0  0  2  0  0  0  0  0  0  0  0  0
  -21.4901  -13.9198  -13.7712 O   0  0  0  0  0  0  0  0  0  0  0  0
  -24.3577  -11.3049  -13.7950 C   0  0  0  0  0  0  0  0  0  0  0  0
  -25.2445  -12.5446  -13.8940 O   0  0  0  0  0  0  0  0  0  0  0  0
  -19.1962  -18.5384  -10.4467 C   0  0  0  0  0  0  0  0  0  0  0  0
  -18.4455  -19.7611  -10.5080 O   0  0  0  0  0  0  0  0  0  0  0  0
  -23.3272  -15.1212  -14.8661 C   0  0  1  0  0  0  0  0  0  0  0  0
  -23.8058  -13.9032  -15.4101 O   0  0  0  0  0  0  0  0  0  0  0  0
  -23.6773   -9.1411  -14.8509 C   0  0  0  0  0  0  0  0  0  0  0  0
  -23.9548  -10.6195  -18.8107 C   0  0  0  0  0  0  0  0  0  0  0  0
  1  2  1  6  0  0  0
  1  6  1  0  0  0  0
  1 21  1  0  0  0  0
  3  4  1  1  0  0  0
  3  8  1  0  0  0  0
  3 28  1  0  0  0  0
  5  9  1  0  0  0  0
  5 25  1  0  0  0  0
  5 29  1  6  0  0  0
  6  7  1  6  0  0  0
  6 11  1  0  0  0  0
  8 12  1  0  0  0  0
  9 10  1  6  0  0  0
  9 14  1  0  0  0  0
 11 16  1  0  0  0  0
 12 13  1  1  0  0  0
 12 17  1  0  0  0  0
 14 15  1  6  0  0  0
 14 18  1  0  0  0  0
 15 31  1  0  0  0  0
 16 20  1  0  0  0  0
 17  2  1  6  0  0  0
 17 22  1  0  0  0  0
 18 19  1  1  0  0  0
 18 24  1  0  0  0  0
 18 30  1  0  0  0  0
 20 21  1  0  0  0  0
 20 26  1  1  0  0  0
 22 23  1  1  0  0  0
 22 28  1  0  0  0  0
 24 25  1  0  0  0  0
 26 27  1  0  0  0  0
 28 29  1  6  0  0  0
M  END
>  <CHROM.1>
-170.07445125,-155.73274050,-88.43140030,-160.36159847,-4.25055693,91.37306066
-22.03668482,-14.63040127,-14.44590941,-0.72229923,-0.53578547,-0.00708632

>  <Name>
ligand

>  <RI>
0

>  <Rbt.Current_Directory>
/home/itssahil/PROJECTS/Mol_Feturizer/New_Systems/rnas/4GPW

>  <Rbt.Executable>
rbdock ($Id: //depot/dev/client3/rdock/2013.1/src/exe/rbdock.cxx#4 $)

>  <Rbt.Library>
libRbt.so (2013.1, Build901 2013/11/27)

>  <Rbt.Parameter_File>
/export/apps/rDock/src/rDock_2013.1_src/data/scripts/dock_solv.prm

>  <Rbt.Receptor>
prm/pocket_docking_5.prm

>  <SCORE>
-19.4298

>  <SCORE.INTER>
-16.2233

>  <SCORE.INTER.CONST>
1

>  <SCORE.INTER.POLAR>
0

>  <SCORE.INTER.ROT>
6

>  <SCORE.INTER.SOLV>
16.1965

>  <SCORE.INTER.VDW>
-23.8144

>  <SCORE.INTER.norm>
-0.523331

>  <SCORE.INTRA>
-3.20648

>  <SCORE.INTRA.DIHEDRAL>
-8.38492

>  <SCORE.INTRA.DIHEDRAL.0>
19.2558

>  <SCORE.INTRA.POLAR>
0

>  <SCORE.INTRA.POLAR.0>
0

>  <SCORE.INTRA.REPUL>
0

>  <SCORE.INTRA.REPUL.0>
0

>  <SCORE.INTRA.SOLV>
-1.5143

>  <SCORE.INTRA.SOLV.lig_0>
-64.5929

>  <SCORE.INTRA.VDW>
1.74312

>  <SCORE.INTRA.VDW.0>
-4.40538

>  <SCORE.INTRA.norm>
-0.103435

>  <SCORE.RESTR>
0

>  <SCORE.RESTR.CAVITY>
0

>  <SCORE.RESTR.norm>
0

>  <SCORE.SYSTEM>
0

>  <SCORE.SYSTEM.CONST>
0

>  <SCORE.SYSTEM.DIHEDRAL>
0

>  <SCORE.SYSTEM.SOLV>
0

>  <SCORE.SYSTEM.norm>
0

>  <SCORE.heavy>
31

>  <SCORE.norm>
-0.626766

>  <RMSD>
0.741

$$$$
ligand
 OpenBabel11021811493D
libRbt.so/2013.1/901 2013/11/27
 31 33  0  0  0  0  0  0  0  0999 V2000
  -19.1732  -15.5955  -12.8730 C   0  0  2  0  0  0  0  0  0  0  0  0
  -19.7881  -16.2687  -13.9617 O   0  0  0  0  0  0  0  0  0  0  0  0
  -23.6154  -16.2602  -15.8395 C   0  0  2  0  0  0  0  0  0  0  0  0
  -25.0285  -16.3789  -16.0018 N   0  0  0  0  0  0  0  0  0  0  0  0
  -25.1170  -13.3231  -15.0196 C   0  0  2  0  0  0  0  0  0  0  0  0
  -17.6311  -15.4708  -13.2175 C   0  0  2  0  0  0  0  0  0  0  0  0
  -17.4740  -14.7224  -14.4733 N   0  0  0  0  0  0  0  0  0  0  0  0
  -23.0535  -17.6471  -15.3003 C   0  0  0  0  0  0  0  0  0  0  0  0
  -25.4561  -12.4131  -16.2464 C   0  0  2  0  0  0  0  0  0  0  0  0
  -25.3663  -13.1996  -17.4108 O   0  0  0  0  0  0  0  0  0  0  0  0
  -16.9915  -16.9109  -13.3349 C   0  0  0  0  0  0  0  0  0  0  0  0
  -21.4734  -17.5182  -15.1248 C   0  0  2  0  0  0  0  0  0  0  0  0
  -20.9291  -18.8008  -14.6286 N   0  0  0  0  0  0  0  0  0  0  0  0
  -24.4417  -11.1957  -16.2925 C   0  0  1  0  0  0  0  0  0  0  0  0
  -24.7505  -10.3087  -17.4708 N   0  0  0  0  0  0  0  0  0  0  0  0
  -17.5436  -17.9098  -12.2350 C   0  0  0  0  0  0  0  0  0  0  0  0
  -21.1637  -16.3657  -14.0832 C   0  0  2  0  0  0  0  0  0  0  0  0
  -24.5897  -10.3272  -14.9246 C   0  0  1  0  0  0  0  0  0  0  0  0
  -25.8817   -9.7823  -14.7488 O   0  0  0  0  0  0  0  0  0  0  0  0
  -18.6216  -17.5929  -11.4825 C   0  0  2  0  0  0  0  0  0  0  0  0
  -19.3220  -16.3529  -11.6264 O   0  0  0  0  0  0  0  0  0  0  0  0
  -21.7466  -14.9970  -14.6260 C   0  0  2  0  0  0  0  0  0  0  0  0
  -21.4711  -13.9581  -13.6718 O   0  0  0  0  0  0  0  0  0  0  0  0
  -24.2750  -11.2580  -13.7065 C   0  0  0  0  0  0  0  0  0  0  0  0
  -25.1649  -12.4989  -13.7460 O   0  0  0  0  0  0  0  0  0  0  0  0
  -19.1803  -18.5292  -10.4120 C   0  0  0  0  0  0  0  0  0  0  0  0
  -18.4330  -19.7545  -10.4600 O   0  0  0  0  0  0  0  0  0  0  0  0
  -23.3122  -15.1199  -14.8022 C   0  0  1  0  0  0  0  0  0  0  0  0
  -23.7930  -13.8832  -15.3002 O   0  0  0  0  0  0  0  0  0  0  0  0
  -23.6419   -9.1125  -14.8272 C   0  0  0  0  0  0  0  0  0  0  0  0
  -24.0339  -10.6117  -18.7265 C   0  0  0  0  0  0  0  0  0  0  0  0
  1  2  1  6  0  0  0
  1  6  1  0  0  0  0
  1 21  1  0  0  0  0
  3  4  1  1  0  0  0
  3  8  1  0  0  0  0
  3 28  1  0  0  0  0
  5  9  1  0  0  0  0
  5 25  1  0  0  0  0
  5 29  1  6  0  0  0
  6  7  1  6  0  0  0
  6 11  1  0  0  0  0
  8 12  1  0  0  0  0
  9 10  1  6  0  0  0
  9 14  1  0  0  0  0
 11 16  1  0  0  0  0
 12 13  1  1  0  0  0
 12 17  1  0  0  0  0
 14 15  1  6  0  0  0
 14 18  1  0  0  0  0
 15 31  1  0  0  0  0
 16 20  1  0  0  0  0
 17  2  1  6  0  0  0
 17 22  1  0  0  0  0
 18 19  1  1  0  0  0
 18 24  1  0  0  0  0
 18 30  1  0  0  0  0
 20 21  1  0  0  0  0
 20 26  1  1  0  0  0
 22 23  1  1  0  0  0
 22 28  1  0  0  0  0
 24 25  1  0  0  0  0
 26 27  1  0  0  0  0
 28 29  1  6  0  0  0
M  END
>  <CHROM.1>
-169.98999160,-152.91680994,-91.69027113,-163.12698554,-4.23446790,92.75927275
-22.02635824,-14.62763540,-14.39187889,-0.70981990,-0.54598099,0.02431471

>  <Name>
ligand

>  <RI>
0

>  <Rbt.Current_Directory>
/home/itssahil/PROJECTS/Mol_Feturizer/New_Systems/rnas/4GPW

>  <Rbt.Executable>
rbdock ($Id: //depot/dev/client3/rdock/2013.1/src/exe/rbdock.cxx#4 $)

>  <Rbt.Library>
libRbt.so (2013.1, Build901 2013/11/27)

>  <Rbt.Parameter_File>
/export/apps/rDock/src/rDock_2013.1_src/data/scripts/dock_solv.prm

>  <Rbt.Receptor>
prm/pocket_docking_4.prm

>  <SCORE>
-19.4554

>  <SCORE.INTER>
-16.4227

>  <SCORE.INTER.CONST>
1

>  <SCORE.INTER.POLAR>
0

>  <SCORE.INTER.ROT>
6

>  <SCORE.INTER.SOLV>
16.4915

>  <SCORE.INTER.VDW>
-24.0456

>  <SCORE.INTER.norm>
-0.529765

>  <SCORE.INTRA>
-3.03268

>  <SCORE.INTRA.DIHEDRAL>
-7.92404

>  <SCORE.INTRA.DIHEDRAL.0>
19.2558

>  <SCORE.INTRA.POLAR>
0

>  <SCORE.INTRA.POLAR.0>
0

>  <SCORE.INTRA.REPUL>
0

>  <SCORE.INTRA.REPUL.0>
0

>  <SCORE.INTRA.SOLV>
-1.64235

>  <SCORE.INTRA.SOLV.lig_0>
-64.5929

>  <SCORE.INTRA.VDW>
1.75051

>  <SCORE.INTRA.VDW.0>
-4.40538

>  <SCORE.INTRA.norm>
-0.0978285

>  <SCORE.RESTR>
0

>  <SCORE.RESTR.CAVITY>
0

>  <SCORE.RESTR.norm>
0

>  <SCORE.SYSTEM>
0

>  <SCORE.SYSTEM.CONST>
0

>  <SCORE.SYSTEM.DIHEDRAL>
0

>  <SCORE.SYSTEM.SOLV>
0

>  <SCORE.SYSTEM.norm>
0

>  <SCORE.heavy>
31

>  <SCORE.norm>
-0.627593

>  <RMSD>
0.743

$$$$
ligand
 OpenBabel11021811493D
libRbt.so/2013.1/901 2013/11/27
 31 33  0  0  0  0  0  0  0  0999 V2000
  -19.2258  -15.5303  -12.7925 C   0  0  2  0  0  0  0  0  0  0  0  0
  -19.8135  -16.1546  -13.9245 O   0  0  0  0  0  0  0  0  0  0  0  0
  -23.6137  -16.3000  -15.8513 C   0  0  2  0  0  0  0  0  0  0  0  0
  -25.0212  -16.4577  -16.0279 N   0  0  0  0  0  0  0  0  0  0  0  0
  -25.1778  -13.3502  -15.1139 C   0  0  2  0  0  0  0  0  0  0  0  0
  -17.6813  -15.3620  -13.1067 C   0  0  2  0  0  0  0  0  0  0  0  0
  -17.5195  -14.5452  -14.3185 N   0  0  0  0  0  0  0  0  0  0  0  0
  -23.0270  -17.6544  -15.2584 C   0  0  0  0  0  0  0  0  0  0  0  0
  -25.5112  -12.4304  -16.3350 C   0  0  2  0  0  0  0  0  0  0  0  0
  -25.4197  -13.2086  -17.5050 O   0  0  0  0  0  0  0  0  0  0  0  0
  -17.0154  -16.7830  -13.2907 C   0  0  0  0  0  0  0  0  0  0  0  0
  -21.4529  -17.4821  -15.0667 C   0  0  2  0  0  0  0  0  0  0  0  0
  -20.8856  -18.7340  -14.5205 N   0  0  0  0  0  0  0  0  0  0  0  0
  -24.4939  -11.2150  -16.3692 C   0  0  1  0  0  0  0  0  0  0  0  0
  -24.7972  -10.3188  -17.5419 N   0  0  0  0  0  0  0  0  0  0  0  0
  -17.5656  -17.8481  -12.2538 C   0  0  0  0  0  0  0  0  0  0  0  0
  -21.1846  -16.2884  -14.0606 C   0  0  2  0  0  0  0  0  0  0  0  0
  -24.6440  -10.3563  -14.9953 C   0  0  1  0  0  0  0  0  0  0  0  0
  -25.9353   -9.8098  -14.8193 O   0  0  0  0  0  0  0  0  0  0  0  0
  -18.6594  -17.5896  -11.5018 C   0  0  2  0  0  0  0  0  0  0  0  0
  -19.3791  -16.3555  -11.5902 O   0  0  0  0  0  0  0  0  0  0  0  0
  -21.7919  -14.9528  -14.6568 C   0  0  2  0  0  0  0  0  0  0  0  0
  -21.5540  -13.8763  -13.7347 O   0  0  0  0  0  0  0  0  0  0  0  0
  -24.3350  -11.2967  -13.7832 C   0  0  0  0  0  0  0  0  0  0  0  0
  -25.2276  -12.5353  -13.8345 O   0  0  0  0  0  0  0  0  0  0  0  0
  -19.2169  -18.5908  -10.4910 C   0  0  0  0  0  0  0  0  0  0  0  0
  -18.2653  -19.6571  -10.3511 O   0  0  0  0  0  0  0  0  0  0  0  0
  -23.3515  -15.1188  -14.8492 C   0  0  1  0  0  0  0  0  0  0  0  0
  -23.8542  -13.9113  -15.3949 O   0  0  0  0  0  0  0  0  0  0  0  0
  -23.6938   -9.1446  -14.8862 C   0  0  0  0  0  0  0  0  0  0  0  0
  -24.0776  -10.6140  -18.7976 C   0  0  0  0  0  0  0  0  0  0  0  0
  1  2  1  6  0  0  0
  1  6  1  0  0  0  0
  1 21  1  0  0  0  0
  3  4  1  1  0  0  0
  3  8  1  0  0  0  0
  3 28  1  0  0  0  0
  5  9  1  0  0  0  0
  5 25  1  0  0  0  0
  5 29  1  6  0  0  0
  6  7  1  6  0  0  0
  6 11  1  0  0  0  0
  8 12  1  0  0  0  0
  9 10  1  6  0  0  0
  9 14  1  0  0  0  0
 11 16  1  0  0  0  0
 12 13  1  1  0  0  0
 12 17  1  0  0  0  0
 14 15  1  6  0  0  0
 14 18  1  0  0  0  0
 15 31  1  0  0  0  0
 16 20  1  0  0  0  0
 17  2  1  6  0  0  0
 17 22  1  0  0  0  0
 18 19  1  1  0  0  0
 18 24  1  0  0  0  0
 18 30  1  0  0  0  0
 20 21  1  0  0  0  0
 20 26  1  1  0  0  0
 22 23  1  1  0  0  0
 22 28  1  0  0  0  0
 24 25  1  0  0  0  0
 26 27  1  0  0  0  0
 28 29  1  6  0  0  0
M  END
>  <CHROM.1>
-171.13511125,-156.36766100,-91.69686529,-157.62657831,9.84080330,94.98901512
-22.05607769,-14.60824102,-14.40697543,-0.70437966,-0.54585469,0.00683147

>  <Name>
ligand

>  <RI>
0

>  <Rbt.Current_Directory>
/home/itssahil/PROJECTS/Mol_Feturizer/New_Systems/rnas/4GPW

>  <Rbt.Executable>
rbdock ($Id: //depot/dev/client3/rdock/2013.1/src/exe/rbdock.cxx#4 $)

>  <Rbt.Library>
libRbt.so (2013.1, Build901 2013/11/27)

>  <Rbt.Parameter_File>
/export/apps/rDock/src/rDock_2013.1_src/data/scripts/dock_solv.prm

>  <Rbt.Receptor>
prm/pocket_docking_4.prm

>  <SCORE>
-19.3765

>  <SCORE.INTER>
-16.6342

>  <SCORE.INTER.CONST>
1

>  <SCORE.INTER.POLAR>
0

>  <SCORE.INTER.ROT>
6

>  <SCORE.INTER.SOLV>
16.6591

>  <SCORE.INTER.VDW>
-24.2425

>  <SCORE.INTER.norm>
-0.536586

>  <SCORE.INTRA>
-2.74231

>  <SCORE.INTRA.DIHEDRAL>
-7.26263

>  <SCORE.INTRA.DIHEDRAL.0>
19.2558

>  <SCORE.INTRA.POLAR>
0

>  <SCORE.INTRA.POLAR.0>
0

>  <SCORE.INTRA.REPUL>
0

>  <SCORE.INTRA.REPUL.0>
0

>  <SCORE.INTRA.SOLV>
-1.33368

>  <SCORE.INTRA.SOLV.lig_0>
-64.5929

>  <SCORE.INTRA.VDW>
1.55584

>  <SCORE.INTRA.VDW.0>
-4.40538

>  <SCORE.INTRA.norm>
-0.0884617

>  <SCORE.RESTR>
0

>  <SCORE.RESTR.CAVITY>
0

>  <SCORE.RESTR.norm>
0

>  <SCORE.SYSTEM>
0

>  <SCORE.SYSTEM.CONST>
0

>  <SCORE.SYSTEM.DIHEDRAL>
0

>  <SCORE.SYSTEM.SOLV>
0

>  <SCORE.SYSTEM.norm>
0

>  <SCORE.heavy>
31

>  <SCORE.norm>
-0.625047

>  <RMSD>
0.743

$$$$
ligand
 OpenBabel11021811493D
libRbt.so/2013.1/901 2013/11/27
 31 33  0  0  0  0  0  0  0  0999 V2000
  -19.1982  -15.5464  -12.8757 C   0  0  2  0  0  0  0  0  0  0  0  0
  -19.7977  -16.2177  -13.9742 O   0  0  0  0  0  0  0  0  0  0  0  0
  -23.6071  -16.3199  -15.8852 C   0  0  2  0  0  0  0  0  0  0  0  0
  -25.0175  -16.4586  -16.0555 N   0  0  0  0  0  0  0  0  0  0  0  0
  -25.1379  -13.3594  -15.1811 C   0  0  2  0  0  0  0  0  0  0  0  0
  -17.6562  -15.3963  -13.2107 C   0  0  2  0  0  0  0  0  0  0  0  0
  -17.5035  -14.6333  -14.4582 N   0  0  0  0  0  0  0  0  0  0  0  0
  -23.0373  -17.6791  -15.2872 C   0  0  0  0  0  0  0  0  0  0  0  0
  -25.4370  -12.4179  -16.3945 C   0  0  2  0  0  0  0  0  0  0  0  0
  -25.3243  -13.1780  -17.5744 O   0  0  0  0  0  0  0  0  0  0  0  0
  -16.9954  -16.8258  -13.3387 C   0  0  0  0  0  0  0  0  0  0  0  0
  -21.4601  -17.5280  -15.1027 C   0  0  2  0  0  0  0  0  0  0  0  0
  -20.9084  -18.7848  -14.5519 N   0  0  0  0  0  0  0  0  0  0  0  0
  -24.4109  -11.2095  -16.3861 C   0  0  1  0  0  0  0  0  0  0  0  0
  -24.6812  -10.2925  -17.5508 N   0  0  0  0  0  0  0  0  0  0  0  0
  -17.5387  -17.8434  -12.2517 C   0  0  0  0  0  0  0  0  0  0  0  0
  -21.1711  -16.3328  -14.1042 C   0  0  2  0  0  0  0  0  0  0  0  0
  -24.5862  -10.3717  -15.0024 C   0  0  1  0  0  0  0  0  0  0  0  0
  -25.8774   -9.8187  -14.8469 O   0  0  0  0  0  0  0  0  0  0  0  0
  -18.6251  -17.5494  -11.5019 C   0  0  2  0  0  0  0  0  0  0  0  0
  -19.3426  -16.3182  -11.6374 O   0  0  0  0  0  0  0  0  0  0  0  0
  -21.7618  -14.9921  -14.7053 C   0  0  2  0  0  0  0  0  0  0  0  0
  -21.5050  -13.9141  -13.7900 O   0  0  0  0  0  0  0  0  0  0  0  0
  -24.3114  -11.3335  -13.7988 C   0  0  0  0  0  0  0  0  0  0  0  0
  -25.2111  -12.5646  -13.8902 O   0  0  0  0  0  0  0  0  0  0  0  0
  -19.1758  -18.5042  -10.4436 C   0  0  0  0  0  0  0  0  0  0  0  0
  -18.3758  -19.6966  -10.4620 O   0  0  0  0  0  0  0  0  0  0  0  0
  -23.3244  -15.1370  -14.8906 C   0  0  1  0  0  0  0  0  0  0  0  0
  -23.8122  -13.9255  -15.4410 O   0  0  0  0  0  0  0  0  0  0  0  0
  -23.6304   -9.1688  -14.8524 C   0  0  0  0  0  0  0  0  0  0  0  0
  -24.0109  -10.6313  -18.8227 C   0  0  0  0  0  0  0  0  0  0  0  0
  1  2  1  6  0  0  0
  1  6  1  0  0  0  0
  1 21  1  0  0  0  0
  3  4  1  1  0  0  0
  3  8  1  0  0  0  0
  3 28  1  0  0  0  0
  5  9  1  0  0  0  0
  5 25  1  0  0  0  0
  5 29  1  6  0  0  0
  6  7  1  6  0  0  0
  6 11  1  0  0  0  0
  8 12  1  0  0  0  0
  9 10  1  6  0  0  0
  9 14  1  0  0  0  0
 11 16  1  0  0  0  0
 12 13  1  1  0  0  0
 12 17  1  0  0  0  0
 14 15  1  6  0  0  0
 14 18  1  0  0  0  0
 15 31  1  0  0  0  0
 16 20  1  0  0  0  0
 17  2  1  6  0  0  0
 17 22  1  0  0  0  0
 18 19  1  1  0  0  0
 18 24  1  0  0  0  0
 18 30  1  0  0  0  0
 20 21  1  0  0  0  0
 20 26  1  1  0  0  0
 22 23  1  1  0  0  0
 22 28  1  0  0  0  0
 24 25  1  0  0  0  0
 26 27  1  0  0  0  0
 28 29  1  6  0  0  0
M  END
>  <CHROM.1>
-169.96727026,-157.17376853,-87.38327596,-160.31545650,-1.89977122,93.56338405
-22.02534663,-14.62367138,-14.44750205,-0.71048278,-0.54554343,0.00424749

>  <Name>
ligand

>  <RI>
0

>  <Rbt.Current_Directory>
/home/itssahil/PROJECTS/Mol_Feturizer/New_Systems/rnas/4GPW

>  <Rbt.Executable>
rbdock ($Id: //depot/dev/client3/rdock/2013.1/src/exe/rbdock.cxx#4 $)

>  <Rbt.Library>
libRbt.so (2013.1, Build901 2013/11/27)

>  <Rbt.Parameter_File>
/export/apps/rDock/src/rDock_2013.1_src/data/scripts/dock_solv.prm

>  <Rbt.Receptor>
prm/pocket_docking_2.prm

>  <SCORE>
-19.5138

>  <SCORE.INTER>
-16.3647

>  <SCORE.INTER.CONST>
1

>  <SCORE.INTER.POLAR>
0

>  <SCORE.INTER.ROT>
6

>  <SCORE.INTER.SOLV>
16.2071

>  <SCORE.INTER.VDW>
-23.9122

>  <SCORE.INTER.norm>
-0.527895

>  <SCORE.INTRA>
-3.14902

>  <SCORE.INTRA.DIHEDRAL>
-8.26733

>  <SCORE.INTRA.DIHEDRAL.0>
19.2558

>  <SCORE.INTRA.POLAR>
0

>  <SCORE.INTRA.POLAR.0>
0

>  <SCORE.INTRA.REPUL>
0

>  <SCORE.INTRA.REPUL.0>
0

>  <SCORE.INTRA.SOLV>
-1.54987

>  <SCORE.INTRA.SOLV.lig_0>
-64.5929

>  <SCORE.INTRA.VDW>
1.75958

>  <SCORE.INTRA.VDW.0>
-4.40538

>  <SCORE.INTRA.norm>
-0.101581

>  <SCORE.RESTR>
0

>  <SCORE.RESTR.CAVITY>
0

>  <SCORE.RESTR.norm>
0

>  <SCORE.SYSTEM>
0

>  <SCORE.SYSTEM.CONST>
0

>  <SCORE.SYSTEM.DIHEDRAL>
0

>  <SCORE.SYSTEM.SOLV>
0

>  <SCORE.SYSTEM.norm>
0

>  <SCORE.heavy>
31

>  <SCORE.norm>
-0.629476

>  <RMSD>
0.746

$$$$
ligand
 OpenBabel11021811493D
libRbt.so/2013.1/901 2013/11/27
 31 33  0  0  0  0  0  0  0  0999 V2000
  -19.2166  -15.5234  -12.8526 C   0  0  2  0  0  0  0  0  0  0  0  0
  -19.8072  -16.1754  -13.9674 O   0  0  0  0  0  0  0  0  0  0  0  0
  -23.6119  -16.2972  -15.8869 C   0  0  2  0  0  0  0  0  0  0  0  0
  -25.0203  -16.4494  -16.0615 N   0  0  0  0  0  0  0  0  0  0  0  0
  -25.1675  -13.3501  -15.1323 C   0  0  2  0  0  0  0  0  0  0  0  0
  -17.6748  -15.3540  -13.1790 C   0  0  2  0  0  0  0  0  0  0  0  0
  -17.5240  -14.5632  -14.4093 N   0  0  0  0  0  0  0  0  0  0  0  0
  -23.0281  -17.6570  -15.3037 C   0  0  0  0  0  0  0  0  0  0  0  0
  -25.4956  -12.4171  -16.3448 C   0  0  2  0  0  0  0  0  0  0  0  0
  -25.4019  -13.1833  -17.5225 O   0  0  0  0  0  0  0  0  0  0  0  0
  -17.0023  -16.7752  -13.3355 C   0  0  0  0  0  0  0  0  0  0  0  0
  -21.4531  -17.4908  -15.1143 C   0  0  2  0  0  0  0  0  0  0  0  0
  -20.8886  -18.7478  -14.5771 N   0  0  0  0  0  0  0  0  0  0  0  0
  -24.4761  -11.2032  -16.3634 C   0  0  1  0  0  0  0  0  0  0  0  0
  -24.7743  -10.2943  -17.5276 N   0  0  0  0  0  0  0  0  0  0  0  0
  -17.5412  -17.8202  -12.2725 C   0  0  0  0  0  0  0  0  0  0  0  0
  -21.1790  -16.3042  -14.1014 C   0  0  2  0  0  0  0  0  0  0  0  0
  -24.6288  -10.3585  -14.9812 C   0  0  1  0  0  0  0  0  0  0  0  0
  -25.9197   -9.8116  -14.8034 O   0  0  0  0  0  0  0  0  0  0  0  0
  -18.6323  -17.5509  -11.5203 C   0  0  2  0  0  0  0  0  0  0  0  0
  -19.3590  -16.3228  -11.6317 O   0  0  0  0  0  0  0  0  0  0  0  0
  -21.7834  -14.9631  -14.6880 C   0  0  2  0  0  0  0  0  0  0  0  0
  -21.5402  -13.8931  -13.7597 O   0  0  0  0  0  0  0  0  0  0  0  0
  -24.3251  -11.3120  -13.7779 C   0  0  0  0  0  0  0  0  0  0  0  0
  -25.2197  -12.5484  -13.8447 O   0  0  0  0  0  0  0  0  0  0  0  0
  -19.1789  -18.5326  -10.4847 C   0  0  0  0  0  0  0  0  0  0  0  0
  -18.3225  -19.6851  -10.4701 O   0  0  0  0  0  0  0  0  0  0  0  0
  -23.3439  -15.1230  -14.8780 C   0  0  1  0  0  0  0  0  0  0  0  0
  -23.8440  -13.9106  -15.4151 O   0  0  0  0  0  0  0  0  0  0  0  0
  -23.6768   -9.1497  -14.8566 C   0  0  0  0  0  0  0  0  0  0  0  0
  -24.1231  -10.6337  -18.8093 C   0  0  0  0  0  0  0  0  0  0  0  0
  1  2  1  6  0  0  0
  1  6  1  0  0  0  0
  1 21  1  0  0  0  0
  3  4  1  1  0  0  0
  3  8  1  0  0  0  0
  3 28  1  0  0  0  0
  5  9  1  0  0  0  0
  5 25  1  0  0  0  0
  5 29  1  6  0  0  0
  6  7  1  6  0  0  0
  6 11  1  0  0  0  0
  8 12  1  0  0  0  0
  9 10  1  6  0  0  0
  9 14  1  0  0  0  0
 11 16  1  0  0  0  0
 12 13  1  1  0  0  0
 12 17  1  0  0  0  0
 14 15  1  6  0  0  0
 14 18  1  0  0  0  0
 15 31  1  0  0  0  0
 16 20  1  0  0  0  0
 17  2  1  6  0  0  0
 17 22  1  0  0  0  0
 18 19  1  1  0  0  0
 18 24  1  0  0  0  0
 18 30  1  0  0  0  0
 20 21  1  0  0  0  0
 20 26  1  1  0  0  0
 22 23  1  1  0  0  0
 22 28  1  0  0  0  0
 24 25  1  0  0  0  0
 26 27  1  0  0  0  0
 28 29  1  6  0  0  0
M  END
>  <CHROM.1>
-170.28531662,-156.52154984,-87.61298211,-159.61134506,1.45993535,94.71237932
-22.04891526,-14.60622760,-14.43445917,-0.69929147,-0.54876650,0.01929981

>  <Name>
ligand

>  <RI>
0

>  <Rbt.Current_Directory>
/home/itssahil/PROJECTS/Mol_Feturizer/New_Systems/rnas/4GPW

>  <Rbt.Executable>
rbdock ($Id: //depot/dev/client3/rdock/2013.1/src/exe/rbdock.cxx#4 $)

>  <Rbt.Library>
libRbt.so (2013.1, Build901 2013/11/27)

>  <Rbt.Parameter_File>
/export/apps/rDock/src/rDock_2013.1_src/data/scripts/dock_solv.prm

>  <Rbt.Receptor>
prm/pocket_docking_4.prm

>  <SCORE>
-19.4972

>  <SCORE.INTER>
-16.5602

>  <SCORE.INTER.CONST>
1

>  <SCORE.INTER.POLAR>
0

>  <SCORE.INTER.ROT>
6

>  <SCORE.INTER.SOLV>
16.3456

>  <SCORE.INTER.VDW>
-24.0886

>  <SCORE.INTER.norm>
-0.534199

>  <SCORE.INTRA>
-2.93699

>  <SCORE.INTRA.DIHEDRAL>
-7.85098

>  <SCORE.INTRA.DIHEDRAL.0>
19.2558

>  <SCORE.INTRA.POLAR>
0

>  <SCORE.INTRA.POLAR.0>
0

>  <SCORE.INTRA.REPUL>
0

>  <SCORE.INTRA.REPUL.0>
0

>  <SCORE.INTRA.SOLV>
-1.47489

>  <SCORE.INTRA.SOLV.lig_0>
-64.5929

>  <SCORE.INTRA.VDW>
1.72595

>  <SCORE.INTRA.VDW.0>
-4.40538

>  <SCORE.INTRA.norm>
-0.0947416

>  <SCORE.RESTR>
0

>  <SCORE.RESTR.CAVITY>
0

>  <SCORE.RESTR.norm>
0

>  <SCORE.SYSTEM>
0

>  <SCORE.SYSTEM.CONST>
0

>  <SCORE.SYSTEM.DIHEDRAL>
0

>  <SCORE.SYSTEM.SOLV>
0

>  <SCORE.SYSTEM.norm>
0

>  <SCORE.heavy>
31

>  <SCORE.norm>
-0.62894

>  <RMSD>
0.746

$$$$
ligand
 OpenBabel11021811493D
libRbt.so/2013.1/901 2013/11/27
 31 33  0  0  0  0  0  0  0  0999 V2000
  -19.2254  -15.5720  -12.8710 C   0  0  2  0  0  0  0  0  0  0  0  0
  -19.8258  -16.2522  -13.9634 O   0  0  0  0  0  0  0  0  0  0  0  0
  -23.6319  -16.2834  -15.8837 C   0  0  2  0  0  0  0  0  0  0  0  0
  -25.0427  -16.4094  -16.0601 N   0  0  0  0  0  0  0  0  0  0  0  0
  -25.1537  -13.3419  -15.1236 C   0  0  2  0  0  0  0  0  0  0  0  0
  -17.6852  -15.4178  -13.2120 C   0  0  2  0  0  0  0  0  0  0  0  0
  -17.5396  -14.6617  -14.4646 N   0  0  0  0  0  0  0  0  0  0  0  0
  -23.0714  -17.6607  -15.3191 C   0  0  0  0  0  0  0  0  0  0  0  0
  -25.4624  -12.4158  -16.3464 C   0  0  2  0  0  0  0  0  0  0  0  0
  -25.3452  -13.1874  -17.5184 O   0  0  0  0  0  0  0  0  0  0  0  0
  -17.0191  -16.8454  -13.3338 C   0  0  0  0  0  0  0  0  0  0  0  0
  -21.4937  -17.5237  -15.1278 C   0  0  2  0  0  0  0  0  0  0  0  0
  -20.9506  -18.7973  -14.6078 N   0  0  0  0  0  0  0  0  0  0  0  0
  -24.4462  -11.1990  -16.3524 C   0  0  1  0  0  0  0  0  0  0  0  0
  -24.7259  -10.2967  -17.5263 N   0  0  0  0  0  0  0  0  0  0  0  0
  -17.5548  -17.8586  -12.2388 C   0  0  0  0  0  0  0  0  0  0  0  0
  -21.1996  -16.3558  -14.0989 C   0  0  2  0  0  0  0  0  0  0  0  0
  -24.6264  -10.3480  -14.9774 C   0  0  1  0  0  0  0  0  0  0  0  0
  -25.9219   -9.8041  -14.8257 O   0  0  0  0  0  0  0  0  0  0  0  0
  -18.6397  -17.5644  -11.4871 C   0  0  2  0  0  0  0  0  0  0  0  0
  -19.3626  -16.3369  -11.6276 O   0  0  0  0  0  0  0  0  0  0  0  0
  -21.7812  -14.9968  -14.6671 C   0  0  2  0  0  0  0  0  0  0  0  0
  -21.5199  -13.9438  -13.7244 O   0  0  0  0  0  0  0  0  0  0  0  0
  -24.3419  -11.2947  -13.7641 C   0  0  0  0  0  0  0  0  0  0  0  0
  -25.2316  -12.5341  -13.8410 O   0  0  0  0  0  0  0  0  0  0  0  0
  -19.1832  -18.5150  -10.4213 C   0  0  0  0  0  0  0  0  0  0  0  0
  -18.3593  -19.6911  -10.4138 O   0  0  0  0  0  0  0  0  0  0  0  0
  -23.3442  -15.1277  -14.8590 C   0  0  1  0  0  0  0  0  0  0  0  0
  -23.8237  -13.8998  -15.3795 O   0  0  0  0  0  0  0  0  0  0  0  0
  -23.6804   -9.1358  -14.8415 C   0  0  0  0  0  0  0  0  0  0  0  0
  -24.0290  -10.6240  -18.7869 C   0  0  0  0  0  0  0  0  0  0  0  0
  1  2  1  6  0  0  0
  1  6  1  0  0  0  0
  1 21  1  0  0  0  0
  3  4  1  1  0  0  0
  3  8  1  0  0  0  0
  3 28  1  0  0  0  0
  5  9  1  0  0  0  0
  5 25  1  0  0  0  0
  5 29  1  6  0  0  0
  6  7  1  6  0  0  0
  6 11  1  0  0  0  0
  8 12  1  0  0  0  0
  9 10  1  6  0  0  0
  9 14  1  0  0  0  0
 11 16  1  0  0  0  0
 12 13  1  1  0  0  0
 12 17  1  0  0  0  0
 14 15  1  6  0  0  0
 14 18  1  0  0  0  0
 15 31  1  0  0  0  0
 16 20  1  0  0  0  0
 17  2  1  6  0  0  0
 17 22  1  0  0  0  0
 18 19  1  1  0  0  0
 18 24  1  0  0  0  0
 18 30  1  0  0  0  0
 20 21  1  0  0  0  0
 20 26  1  1  0  0  0
 22 23  1  1  0  0  0
 22 28  1  0  0  0  0
 24 25  1  0  0  0  0
 26 27  1  0  0  0  0
 28 29  1  6  0  0  0
M  END
>  <CHROM.1>
-168.95484267,-154.55859112,-88.82730580,-162.54999115,-0.57281566,92.63058959
-22.05040235,-14.62202208,-14.42728119,-0.70302954,-0.55473269,0.02295087

>  <Name>
ligand

>  <RI>
0

>  <Rbt.Current_Directory>
/home/itssahil/PROJECTS/Mol_Feturizer/New_Systems/rnas/4GPW

>  <Rbt.Executable>
rbdock ($Id: //depot/dev/client3/rdock/2013.1/src/exe/rbdock.cxx#4 $)

>  <Rbt.Library>
libRbt.so (2013.1, Build901 2013/11/27)

>  <Rbt.Parameter_File>
/export/apps/rDock/src/rDock_2013.1_src/data/scripts/dock_solv.prm

>  <Rbt.Receptor>
prm/pocket_docking_2.prm

>  <SCORE>
-19.5354

>  <SCORE.INTER>
-16.4204

>  <SCORE.INTER.CONST>
1

>  <SCORE.INTER.POLAR>
0

>  <SCORE.INTER.ROT>
6

>  <SCORE.INTER.SOLV>
16.5119

>  <SCORE.INTER.VDW>
-24.0509

>  <SCORE.INTER.norm>
-0.529689

>  <SCORE.INTRA>
-3.11499

>  <SCORE.INTRA.DIHEDRAL>
-8.17754

>  <SCORE.INTRA.DIHEDRAL.0>
19.2558

>  <SCORE.INTRA.POLAR>
0

>  <SCORE.INTRA.POLAR.0>
0

>  <SCORE.INTRA.REPUL>
0

>  <SCORE.INTRA.REPUL.0>
0

>  <SCORE.INTRA.SOLV>
-1.63179

>  <SCORE.INTRA.SOLV.lig_0>
-64.5929

>  <SCORE.INTRA.VDW>
1.78968

>  <SCORE.INTRA.VDW.0>
-4.40538

>  <SCORE.INTRA.norm>
-0.100484

>  <SCORE.RESTR>
0

>  <SCORE.RESTR.CAVITY>
0

>  <SCORE.RESTR.norm>
0

>  <SCORE.SYSTEM>
0

>  <SCORE.SYSTEM.CONST>
0

>  <SCORE.SYSTEM.DIHEDRAL>
0

>  <SCORE.SYSTEM.SOLV>
0

>  <SCORE.SYSTEM.norm>
0

>  <SCORE.heavy>
31

>  <SCORE.norm>
-0.630173

>  <RMSD>
0.747

$$$$
ligand
 OpenBabel11021811493D
libRbt.so/2013.1/901 2013/11/27
 31 33  0  0  0  0  0  0  0  0999 V2000
  -19.1660  -15.5771  -12.8167 C   0  0  2  0  0  0  0  0  0  0  0  0
  -19.7678  -16.2268  -13.9268 O   0  0  0  0  0  0  0  0  0  0  0  0
  -23.5808  -16.2468  -15.8333 C   0  0  2  0  0  0  0  0  0  0  0  0
  -24.9917  -16.3767  -16.0064 N   0  0  0  0  0  0  0  0  0  0  0  0
  -25.1103  -13.3204  -15.0158 C   0  0  2  0  0  0  0  0  0  0  0  0
  -17.6210  -15.4395  -13.1428 C   0  0  2  0  0  0  0  0  0  0  0  0
  -17.4540  -14.6617  -14.3793 N   0  0  0  0  0  0  0  0  0  0  0  0
  -23.0117  -17.6299  -15.2919 C   0  0  0  0  0  0  0  0  0  0  0  0
  -25.4495  -12.4096  -16.2420 C   0  0  2  0  0  0  0  0  0  0  0  0
  -25.3501  -13.1930  -17.4079 O   0  0  0  0  0  0  0  0  0  0  0  0
  -16.9753  -16.8744  -13.2871 C   0  0  0  0  0  0  0  0  0  0  0  0
  -21.4340  -17.4883  -15.1044 C   0  0  2  0  0  0  0  0  0  0  0  0
  -20.8830  -18.7671  -14.6059 N   0  0  0  0  0  0  0  0  0  0  0  0
  -24.4421  -11.1862  -16.2811 C   0  0  1  0  0  0  0  0  0  0  0  0
  -24.7511  -10.2984  -17.4588 N   0  0  0  0  0  0  0  0  0  0  0  0
  -17.5349  -17.9004  -12.2162 C   0  0  0  0  0  0  0  0  0  0  0  0
  -21.1416  -16.3349  -14.0588 C   0  0  2  0  0  0  0  0  0  0  0  0
  -24.6011  -10.3217  -14.9119 C   0  0  1  0  0  0  0  0  0  0  0  0
  -25.8971   -9.7848  -14.7404 O   0  0  0  0  0  0  0  0  0  0  0  0
  -18.6213  -17.6044  -11.4674 C   0  0  2  0  0  0  0  0  0  0  0  0
  -19.3246  -16.3637  -11.5896 O   0  0  0  0  0  0  0  0  0  0  0  0
  -21.7316  -14.9702  -14.6041 C   0  0  2  0  0  0  0  0  0  0  0  0
  -21.4717  -13.9304  -13.6463 O   0  0  0  0  0  0  0  0  0  0  0  0
  -24.2862  -11.2533  -13.6945 C   0  0  0  0  0  0  0  0  0  0  0  0
  -25.1686  -12.4994  -13.7406 O   0  0  0  0  0  0  0  0  0  0  0  0
  -19.1875  -18.5671  -10.4245 C   0  0  0  0  0  0  0  0  0  0  0  0
  -18.3476  -19.7316  -10.3931 O   0  0  0  0  0  0  0  0  0  0  0  0
  -23.2947  -15.1055  -14.7922 C   0  0  1  0  0  0  0  0  0  0  0  0
  -23.7819  -13.8721  -15.2921 O   0  0  0  0  0  0  0  0  0  0  0  0
  -23.6610   -9.1017  -14.8077 C   0  0  0  0  0  0  0  0  0  0  0  0
  -24.0895  -10.6442  -18.7333 C   0  0  0  0  0  0  0  0  0  0  0  0
  1  2  1  6  0  0  0
  1  6  1  0  0  0  0
  1 21  1  0  0  0  0
  3  4  1  1  0  0  0
  3  8  1  0  0  0  0
  3 28  1  0  0  0  0
  5  9  1  0  0  0  0
  5 25  1  0  0  0  0
  5 29  1  6  0  0  0
  6  7  1  6  0  0  0
  6 11  1  0  0  0  0
  8 12  1  0  0  0  0
  9 10  1  6  0  0  0
  9 14  1  0  0  0  0
 11 16  1  0  0  0  0
 12 13  1  1  0  0  0
 12 17  1  0  0  0  0
 14 15  1  6  0  0  0
 14 18  1  0  0  0  0
 15 31  1  0  0  0  0
 16 20  1  0  0  0  0
 17  2  1  6  0  0  0
 17 22  1  0  0  0  0
 18 19  1  1  0  0  0
 18 24  1  0  0  0  0
 18 30  1  0  0  0  0
 20 21  1  0  0  0  0
 20 26  1  1  0  0  0
 22 23  1  1  0  0  0
 22 28  1  0  0  0  0
 24 25  1  0  0  0  0
 26 27  1  0  0  0  0
 28 29  1  6  0  0  0
M  END
>  <CHROM.1>
-170.52427121,-153.07458401,-88.11880494,-161.64221118,1.85340550,93.04133755
-22.01568584,-14.61534248,-14.37052941,-0.69971595,-0.55581675,0.03537425

>  <Name>
ligand

>  <RI>
0

>  <Rbt.Current_Directory>
/home/itssahil/PROJECTS/Mol_Feturizer/New_Systems/rnas/4GPW

>  <Rbt.Executable>
rbdock ($Id: //depot/dev/client3/rdock/2013.1/src/exe/rbdock.cxx#4 $)

>  <Rbt.Library>
libRbt.so (2013.1, Build901 2013/11/27)

>  <Rbt.Parameter_File>
/export/apps/rDock/src/rDock_2013.1_src/data/scripts/dock_solv.prm

>  <Rbt.Receptor>
prm/pocket_docking_3.prm

>  <SCORE>
-19.4434

>  <SCORE.INTER>
-16.5401

>  <SCORE.INTER.CONST>
1

>  <SCORE.INTER.POLAR>
0

>  <SCORE.INTER.ROT>
6

>  <SCORE.INTER.SOLV>
16.5905

>  <SCORE.INTER.VDW>
-24.1569

>  <SCORE.INTER.norm>
-0.533551

>  <SCORE.INTRA>
-2.90328

>  <SCORE.INTRA.DIHEDRAL>
-7.85877

>  <SCORE.INTRA.DIHEDRAL.0>
19.2558

>  <SCORE.INTRA.POLAR>
0

>  <SCORE.INTRA.POLAR.0>
0

>  <SCORE.INTRA.REPUL>
0

>  <SCORE.INTRA.REPUL.0>
0

>  <SCORE.INTRA.SOLV>
-1.52663

>  <SCORE.INTRA.SOLV.lig_0>
-64.5929

>  <SCORE.INTRA.VDW>
1.78942

>  <SCORE.INTRA.VDW.0>
-4.40538

>  <SCORE.INTRA.norm>
-0.0936542

>  <SCORE.RESTR>
0

>  <SCORE.RESTR.CAVITY>
0

>  <SCORE.RESTR.norm>
0

>  <SCORE.SYSTEM>
0

>  <SCORE.SYSTEM.CONST>
0

>  <SCORE.SYSTEM.DIHEDRAL>
0

>  <SCORE.SYSTEM.SOLV>
0

>  <SCORE.SYSTEM.norm>
0

>  <SCORE.heavy>
31

>  <SCORE.norm>
-0.627205

>  <RMSD>
0.747

$$$$
ligand
 OpenBabel11021811493D
libRbt.so/2013.1/901 2013/11/27
 31 33  0  0  0  0  0  0  0  0999 V2000
  -19.1766  -15.5812  -12.9195 C   0  0  2  0  0  0  0  0  0  0  0  0
  -19.7724  -16.2853  -13.9993 O   0  0  0  0  0  0  0  0  0  0  0  0
  -23.5984  -16.4116  -15.8755 C   0  0  2  0  0  0  0  0  0  0  0  0
  -25.0077  -16.5722  -16.0355 N   0  0  0  0  0  0  0  0  0  0  0  0
  -25.1656  -13.4845  -15.0631 C   0  0  2  0  0  0  0  0  0  0  0  0
  -17.6388  -15.4167  -13.2667 C   0  0  2  0  0  0  0  0  0  0  0  0
  -17.5038  -14.6799  -14.5318 N   0  0  0  0  0  0  0  0  0  0  0  0
  -22.9979  -17.7742  -15.3164 C   0  0  0  0  0  0  0  0  0  0  0  0
  -25.5365  -12.5755  -16.2814 C   0  0  2  0  0  0  0  0  0  0  0  0
  -25.4630  -13.3594  -17.4488 O   0  0  0  0  0  0  0  0  0  0  0  0
  -16.9583  -16.8393  -13.3665 C   0  0  0  0  0  0  0  0  0  0  0  0
  -21.4220  -17.5984  -15.1434 C   0  0  2  0  0  0  0  0  0  0  0  0
  -20.8419  -18.8578  -14.6288 N   0  0  0  0  0  0  0  0  0  0  0  0
  -24.5336  -11.3494  -16.3454 C   0  0  1  0  0  0  0  0  0  0  0  0
  -24.8730  -10.4633  -17.5160 N   0  0  0  0  0  0  0  0  0  0  0  0
  -17.4812  -17.8398  -12.2538 C   0  0  0  0  0  0  0  0  0  0  0  0
  -21.1447  -16.4227  -14.1188 C   0  0  2  0  0  0  0  0  0  0  0  0
  -24.6619  -10.4844  -14.9734 C   0  0  1  0  0  0  0  0  0  0  0  0
  -25.9548   -9.9508  -14.7712 O   0  0  0  0  0  0  0  0  0  0  0  0
  -18.5675  -17.5444  -11.5046 C   0  0  2  0  0  0  0  0  0  0  0  0
  -19.3032  -16.3269  -11.6635 O   0  0  0  0  0  0  0  0  0  0  0  0
  -21.7659  -15.0789  -14.6813 C   0  0  2  0  0  0  0  0  0  0  0  0
  -21.5197  -14.0188  -13.7424 O   0  0  0  0  0  0  0  0  0  0  0  0
  -24.3154  -11.4143  -13.7633 C   0  0  0  0  0  0  0  0  0  0  0  0
  -25.1954  -12.6627  -13.7874 O   0  0  0  0  0  0  0  0  0  0  0  0
  -19.0988  -18.4829  -10.4220 C   0  0  0  0  0  0  0  0  0  0  0  0
  -20.2602  -19.1483  -10.9423 O   0  0  0  0  0  0  0  0  0  0  0  0
  -23.3273  -15.2482  -14.8550 C   0  0  1  0  0  0  0  0  0  0  0  0
  -23.8427  -14.0329  -15.3708 O   0  0  0  0  0  0  0  0  0  0  0  0
  -23.7228   -9.2619  -14.8926 C   0  0  0  0  0  0  0  0  0  0  0  0
  -24.1079  -10.6942  -18.7581 C   0  0  0  0  0  0  0  0  0  0  0  0
  1  2  1  6  0  0  0
  1  6  1  0  0  0  0
  1 21  1  0  0  0  0
  3  4  1  1  0  0  0
  3  8  1  0  0  0  0
  3 28  1  0  0  0  0
  5  9  1  0  0  0  0
  5 25  1  0  0  0  0
  5 29  1  6  0  0  0
  6  7  1  6  0  0  0
  6 11  1  0  0  0  0
  8 12  1  0  0  0  0
  9 10  1  6  0  0  0
  9 14  1  0  0  0  0
 11 16  1  0  0  0  0
 12 13  1  1  0  0  0
 12 17  1  0  0  0  0
 14 15  1  6  0  0  0
 14 18  1  0  0  0  0
 15 31  1  0  0  0  0
 16 20  1  0  0  0  0
 17  2  1  6  0  0  0
 17 22  1  0  0  0  0
 18 19  1  1  0  0  0
 18 24  1  0  0  0  0
 18 30  1  0  0  0  0
 20 21  1  0  0  0  0
 20 26  1  1  0  0  0
 22 23  1  1  0  0  0
 22 28  1  0  0  0  0
 24 25  1  0  0  0  0
 26 27  1  0  0  0  0
 28 29  1  6  0  0  0
M  END
>  <CHROM.1>
-169.96104310,-154.76136731,-96.00219417,-163.02144655,-103.08515857,94.86033894
-22.10876137,-14.68308692,-14.44756763,-0.72089370,-0.50548190,-0.02322632

>  <Name>
ligand

>  <RI>
0

>  <Rbt.Current_Directory>
/home/itssahil/PROJECTS/Mol_Feturizer/New_Systems/rnas/4GPW

>  <Rbt.Executable>
rbdock ($Id: //depot/dev/client3/rdock/2013.1/src/exe/rbdock.cxx#4 $)

>  <Rbt.Library>
libRbt.so (2013.1, Build901 2013/11/27)

>  <Rbt.Parameter_File>
/export/apps/rDock/src/rDock_2013.1_src/data/scripts/dock_solv.prm

>  <Rbt.Receptor>
prm/pocket_docking_3.prm

>  <SCORE>
-20.1512

>  <SCORE.INTER>
-16.2418

>  <SCORE.INTER.CONST>
1

>  <SCORE.INTER.POLAR>
0

>  <SCORE.INTER.ROT>
6

>  <SCORE.INTER.SOLV>
16.8079

>  <SCORE.INTER.VDW>
-24.0305

>  <SCORE.INTER.norm>
-0.523928

>  <SCORE.INTRA>
-3.90942

>  <SCORE.INTRA.DIHEDRAL>
-7.39933

>  <SCORE.INTRA.DIHEDRAL.0>
19.2558

>  <SCORE.INTRA.POLAR>
0

>  <SCORE.INTRA.POLAR.0>
0

>  <SCORE.INTRA.REPUL>
0

>  <SCORE.INTRA.REPUL.0>
0

>  <SCORE.INTRA.SOLV>
-1.23359

>  <SCORE.INTRA.SOLV.lig_0>
-64.5929

>  <SCORE.INTRA.VDW>
0.407035

>  <SCORE.INTRA.VDW.0>
-4.40538

>  <SCORE.INTRA.norm>
-0.12611

>  <SCORE.RESTR>
0

>  <SCORE.RESTR.CAVITY>
0

>  <SCORE.RESTR.norm>
0

>  <SCORE.SYSTEM>
0

>  <SCORE.SYSTEM.CONST>
0

>  <SCORE.SYSTEM.DIHEDRAL>
0

>  <SCORE.SYSTEM.SOLV>
0

>  <SCORE.SYSTEM.norm>
0

>  <SCORE.heavy>
31

>  <SCORE.norm>
-0.650038

>  <RMSD>
0.748

$$$$
ligand
 OpenBabel11021811493D
libRbt.so/2013.1/901 2013/11/27
 31 33  0  0  0  0  0  0  0  0999 V2000
  -19.0938  -15.5560  -12.8478 C   0  0  2  0  0  0  0  0  0  0  0  0
  -19.7132  -16.2093  -13.9461 O   0  0  0  0  0  0  0  0  0  0  0  0
  -23.5497  -16.1846  -15.8049 C   0  0  2  0  0  0  0  0  0  0  0  0
  -24.9634  -16.3035  -15.9617 N   0  0  0  0  0  0  0  0  0  0  0  0
  -25.0633  -13.2745  -14.9703 C   0  0  2  0  0  0  0  0  0  0  0  0
  -17.5462  -15.4634  -13.1774 C   0  0  2  0  0  0  0  0  0  0  0  0
  -17.3610  -14.7115  -14.4273 N   0  0  0  0  0  0  0  0  0  0  0  0
  -22.9832  -17.5769  -15.2848 C   0  0  0  0  0  0  0  0  0  0  0  0
  -25.4095  -12.3814  -16.2075 C   0  0  2  0  0  0  0  0  0  0  0  0
  -25.2983  -13.1767  -17.3642 O   0  0  0  0  0  0  0  0  0  0  0  0
  -16.9373  -16.9165  -13.2975 C   0  0  0  0  0  0  0  0  0  0  0  0
  -21.4024  -17.4477  -15.1155 C   0  0  2  0  0  0  0  0  0  0  0  0
  -20.8538  -18.7351  -14.6370 N   0  0  0  0  0  0  0  0  0  0  0  0
  -24.4158  -11.1472  -16.2579 C   0  0  1  0  0  0  0  0  0  0  0  0
  -24.7316  -10.2763  -17.4462 N   0  0  0  0  0  0  0  0  0  0  0  0
  -17.5214  -17.9093  -12.2086 C   0  0  0  0  0  0  0  0  0  0  0  0
  -21.0892  -16.3070  -14.0620 C   0  0  2  0  0  0  0  0  0  0  0  0
  -24.5879  -10.2693  -14.8989 C   0  0  1  0  0  0  0  0  0  0  0  0
  -25.8903   -9.7451  -14.7366 O   0  0  0  0  0  0  0  0  0  0  0  0
  -18.5991  -17.5730  -11.4641 C   0  0  2  0  0  0  0  0  0  0  0  0
  -19.2708  -16.3171  -11.6071 O   0  0  0  0  0  0  0  0  0  0  0  0
  -21.6768  -14.9329  -14.5859 C   0  0  2  0  0  0  0  0  0  0  0  0
  -21.3981  -13.9048  -13.6210 O   0  0  0  0  0  0  0  0  0  0  0  0
  -24.2658  -11.1836  -13.6703 C   0  0  0  0  0  0  0  0  0  0  0  0
  -25.1340  -12.4399  -13.7046 O   0  0  0  0  0  0  0  0  0  0  0  0
  -19.1882  -18.5029  -10.4043 C   0  0  0  0  0  0  0  0  0  0  0  0
  -18.4750  -19.7480  -10.4603 O   0  0  0  0  0  0  0  0  0  0  0  0
  -23.2430  -15.0560  -14.7559 C   0  0  1  0  0  0  0  0  0  0  0  0
  -23.7280  -13.8143  -15.2371 O   0  0  0  0  0  0  0  0  0  0  0  0
  -23.6618   -9.0377  -14.8061 C   0  0  0  0  0  0  0  0  0  0  0  0
  -24.0190  -10.5932  -18.7006 C   0  0  0  0  0  0  0  0  0  0  0  0
  1  2  1  6  0  0  0
  1  6  1  0  0  0  0
  1 21  1  0  0  0  0
  3  4  1  1  0  0  0
  3  8  1  0  0  0  0
  3 28  1  0  0  0  0
  5  9  1  0  0  0  0
  5 25  1  0  0  0  0
  5 29  1  6  0  0  0
  6  7  1  6  0  0  0
  6 11  1  0  0  0  0
  8 12  1  0  0  0  0
  9 10  1  6  0  0  0
  9 14  1  0  0  0  0
 11 16  1  0  0  0  0
 12 13  1  1  0  0  0
 12 17  1  0  0  0  0
 14 15  1  6  0  0  0
 14 18  1  0  0  0  0
 15 31  1  0  0  0  0
 16 20  1  0  0  0  0
 17  2  1  6  0  0  0
 17 22  1  0  0  0  0
 18 19  1  1  0  0  0
 18 24  1  0  0  0  0
 18 30  1  0  0  0  0
 20 21  1  0  0  0  0
 20 26  1  1  0  0  0
 22 23  1  1  0  0  0
 22 28  1  0  0  0  0
 24 25  1  0  0  0  0
 26 27  1  0  0  0  0
 28 29  1  6  0  0  0
M  END
>  <CHROM.1>
-171.78562319,-151.02063025,-90.65231021,-162.68135865,-4.71080447,91.18286225
-21.98206345,-14.58354690,-14.36271447,-0.70887315,-0.54495492,0.02943451

>  <Name>
ligand

>  <RI>
0

>  <Rbt.Current_Directory>
/home/itssahil/PROJECTS/Mol_Feturizer/New_Systems/rnas/4GPW

>  <Rbt.Executable>
rbdock ($Id: //depot/dev/client3/rdock/2013.1/src/exe/rbdock.cxx#4 $)

>  <Rbt.Library>
libRbt.so (2013.1, Build901 2013/11/27)

>  <Rbt.Parameter_File>
/export/apps/rDock/src/rDock_2013.1_src/data/scripts/dock_solv.prm

>  <Rbt.Receptor>
prm/pocket_docking_3.prm

>  <SCORE>
-19.4353

>  <SCORE.INTER>
-16.4224

>  <SCORE.INTER.CONST>
1

>  <SCORE.INTER.POLAR>
0

>  <SCORE.INTER.ROT>
6

>  <SCORE.INTER.SOLV>
16.4053

>  <SCORE.INTER.VDW>
-24.0167

>  <SCORE.INTER.norm>
-0.529753

>  <SCORE.INTRA>
-3.01291

>  <SCORE.INTRA.DIHEDRAL>
-7.98001

>  <SCORE.INTRA.DIHEDRAL.0>
19.2558

>  <SCORE.INTRA.POLAR>
0

>  <SCORE.INTRA.POLAR.0>
0

>  <SCORE.INTRA.REPUL>
0

>  <SCORE.INTRA.REPUL.0>
0

>  <SCORE.INTRA.SOLV>
-1.56677

>  <SCORE.INTRA.SOLV.lig_0>
-64.5929

>  <SCORE.INTRA.VDW>
1.76048

>  <SCORE.INTRA.VDW.0>
-4.40538

>  <SCORE.INTRA.norm>
-0.0971906

>  <SCORE.RESTR>
0

>  <SCORE.RESTR.CAVITY>
0

>  <SCORE.RESTR.norm>
0

>  <SCORE.SYSTEM>
0

>  <SCORE.SYSTEM.CONST>
0

>  <SCORE.SYSTEM.DIHEDRAL>
0

>  <SCORE.SYSTEM.SOLV>
0

>  <SCORE.SYSTEM.norm>
0

>  <SCORE.heavy>
31

>  <SCORE.norm>
-0.626944

>  <RMSD>
0.750

$$$$
ligand
 OpenBabel11021811493D
libRbt.so/2013.1/901 2013/11/27
 31 33  0  0  0  0  0  0  0  0999 V2000
  -19.1885  -15.5108  -12.8565 C   0  0  2  0  0  0  0  0  0  0  0  0
  -19.7840  -16.1737  -13.9622 O   0  0  0  0  0  0  0  0  0  0  0  0
  -23.5962  -16.2841  -15.8673 C   0  0  2  0  0  0  0  0  0  0  0  0
  -25.0055  -16.4334  -16.0369 N   0  0  0  0  0  0  0  0  0  0  0  0
  -25.1512  -13.3462  -15.1165 C   0  0  2  0  0  0  0  0  0  0  0  0
  -17.6444  -15.3631  -13.1823 C   0  0  2  0  0  0  0  0  0  0  0  0
  -17.4827  -14.5932  -14.4245 N   0  0  0  0  0  0  0  0  0  0  0  0
  -23.0128  -17.6463  -15.2895 C   0  0  0  0  0  0  0  0  0  0  0  0
  -25.4813  -12.4247  -16.3372 C   0  0  2  0  0  0  0  0  0  0  0  0
  -25.3763  -13.1987  -17.5088 O   0  0  0  0  0  0  0  0  0  0  0  0
  -16.9869  -16.7937  -13.3153 C   0  0  0  0  0  0  0  0  0  0  0  0
  -21.4367  -17.4834  -15.1058 C   0  0  2  0  0  0  0  0  0  0  0  0
  -20.8725  -18.7427  -14.5736 N   0  0  0  0  0  0  0  0  0  0  0  0
  -24.4714  -11.2029  -16.3601 C   0  0  1  0  0  0  0  0  0  0  0  0
  -24.7717  -10.3049  -17.5323 N   0  0  0  0  0  0  0  0  0  0  0  0
  -17.5390  -17.8161  -12.2372 C   0  0  0  0  0  0  0  0  0  0  0  0
  -21.1565  -16.2996  -14.0912 C   0  0  2  0  0  0  0  0  0  0  0  0
  -24.6370  -10.3494  -14.9848 C   0  0  1  0  0  0  0  0  0  0  0  0
  -25.9330   -9.8115  -14.8167 O   0  0  0  0  0  0  0  0  0  0  0  0
  -18.6285  -17.5235  -11.4916 C   0  0  2  0  0  0  0  0  0  0  0  0
  -19.3418  -16.2895  -11.6236 O   0  0  0  0  0  0  0  0  0  0  0  0
  -21.7606  -14.9561  -14.6724 C   0  0  2  0  0  0  0  0  0  0  0  0
  -21.5119  -13.8887  -13.7426 O   0  0  0  0  0  0  0  0  0  0  0  0
  -24.3312  -11.2916  -13.7733 C   0  0  0  0  0  0  0  0  0  0  0  0
  -25.2156  -12.5356  -13.8349 O   0  0  0  0  0  0  0  0  0  0  0  0
  -19.1877  -18.4829  -10.4419 C   0  0  0  0  0  0  0  0  0  0  0  0
  -18.4080  -19.6881  -10.4819 O   0  0  0  0  0  0  0  0  0  0  0  0
  -23.3222  -15.1127  -14.8569 C   0  0  1  0  0  0  0  0  0  0  0  0
  -23.8221  -13.8981  -15.3893 O   0  0  0  0  0  0  0  0  0  0  0  0
  -23.6952   -9.1321  -14.8650 C   0  0  0  0  0  0  0  0  0  0  0  0
  -24.0684  -10.6145  -18.7938 C   0  0  0  0  0  0  0  0  0  0  0  0
  1  2  1  6  0  0  0
  1  6  1  0  0  0  0
  1 21  1  0  0  0  0
  3  4  1  1  0  0  0
  3  8  1  0  0  0  0
  3 28  1  0  0  0  0
  5  9  1  0  0  0  0
  5 25  1  0  0  0  0
  5 29  1  6  0  0  0
  6  7  1  6  0  0  0
  6 11  1  0  0  0  0
  8 12  1  0  0  0  0
  9 10  1  6  0  0  0
  9 14  1  0  0  0  0
 11 16  1  0  0  0  0
 12 13  1  1  0  0  0
 12 17  1  0  0  0  0
 14 15  1  6  0  0  0
 14 18  1  0  0  0  0
 15 31  1  0  0  0  0
 16 20  1  0  0  0  0
 17  2  1  6  0  0  0
 17 22  1  0  0  0  0
 18 19  1  1  0  0  0
 18 24  1  0  0  0  0
 18 30  1  0  0  0  0
 20 21  1  0  0  0  0
 20 26  1  1  0  0  0
 22 23  1  1  0  0  0
 22 28  1  0  0  0  0
 24 25  1  0  0  0  0
 26 27  1  0  0  0  0
 28 29  1  6  0  0  0
M  END
>  <CHROM.1>
-170.84236513,-155.52885864,-90.09177640,-160.40841267,-3.05316571,93.72004271
-22.03833065,-14.59946721,-14.42468344,-0.70260115,-0.54473627,0.01345558

>  <Name>
ligand

>  <RI>
0

>  <Rbt.Current_Directory>
/home/itssahil/PROJECTS/Mol_Feturizer/New_Systems/rnas/4GPW

>  <Rbt.Executable>
rbdock ($Id: //depot/dev/client3/rdock/2013.1/src/exe/rbdock.cxx#4 $)

>  <Rbt.Library>
libRbt.so (2013.1, Build901 2013/11/27)

>  <Rbt.Parameter_File>
/export/apps/rDock/src/rDock_2013.1_src/data/scripts/dock_solv.prm

>  <Rbt.Receptor>
prm/pocket_docking_6.prm

>  <SCORE>
-19.4873

>  <SCORE.INTER>
-16.4457

>  <SCORE.INTER.CONST>
1

>  <SCORE.INTER.POLAR>
0

>  <SCORE.INTER.ROT>
6

>  <SCORE.INTER.SOLV>
16.3879

>  <SCORE.INTER.VDW>
-24.0264

>  <SCORE.INTER.norm>
-0.530506

>  <SCORE.INTRA>
-3.04165

>  <SCORE.INTRA.DIHEDRAL>
-7.94736

>  <SCORE.INTRA.DIHEDRAL.0>
19.2558

>  <SCORE.INTRA.POLAR>
0

>  <SCORE.INTRA.POLAR.0>
0

>  <SCORE.INTRA.REPUL>
0

>  <SCORE.INTRA.REPUL.0>
0

>  <SCORE.INTRA.SOLV>
-1.519

>  <SCORE.INTRA.SOLV.lig_0>
-64.5929

>  <SCORE.INTRA.VDW>
1.69153

>  <SCORE.INTRA.VDW.0>
-4.40538

>  <SCORE.INTRA.norm>
-0.0981178

>  <SCORE.RESTR>
0

>  <SCORE.RESTR.CAVITY>
0

>  <SCORE.RESTR.norm>
0

>  <SCORE.SYSTEM>
0

>  <SCORE.SYSTEM.CONST>
0

>  <SCORE.SYSTEM.DIHEDRAL>
0

>  <SCORE.SYSTEM.SOLV>
0

>  <SCORE.SYSTEM.norm>
0

>  <SCORE.heavy>
31

>  <SCORE.norm>
-0.628623

>  <RMSD>
0.750

$$$$
ligand
 OpenBabel11021811493D
libRbt.so/2013.1/901 2013/11/27
 31 33  0  0  0  0  0  0  0  0999 V2000
  -19.1583  -15.5616  -12.9077 C   0  0  2  0  0  0  0  0  0  0  0  0
  -19.7732  -16.2337  -13.9970 O   0  0  0  0  0  0  0  0  0  0  0  0
  -23.6059  -16.2997  -15.8628 C   0  0  2  0  0  0  0  0  0  0  0  0
  -25.0187  -16.4311  -16.0175 N   0  0  0  0  0  0  0  0  0  0  0  0
  -25.1294  -13.3592  -15.1357 C   0  0  2  0  0  0  0  0  0  0  0  0
  -17.6141  -15.4476  -13.2465 C   0  0  2  0  0  0  0  0  0  0  0  0
  -17.4474  -14.7034  -14.5035 N   0  0  0  0  0  0  0  0  0  0  0  0
  -23.0343  -17.6678  -15.2869 C   0  0  0  0  0  0  0  0  0  0  0  0
  -25.4360  -12.4253  -16.3531 C   0  0  2  0  0  0  0  0  0  0  0  0
  -25.3100  -13.1877  -17.5302 O   0  0  0  0  0  0  0  0  0  0  0  0
  -16.9832  -16.8920  -13.3578 C   0  0  0  0  0  0  0  0  0  0  0  0
  -21.4544  -17.5249  -15.1199 C   0  0  2  0  0  0  0  0  0  0  0  0
  -20.9012  -18.7899  -14.5898 N   0  0  0  0  0  0  0  0  0  0  0  0
  -24.4249  -11.2044  -16.3452 C   0  0  1  0  0  0  0  0  0  0  0  0
  -24.7027  -10.2945  -17.5138 N   0  0  0  0  0  0  0  0  0  0  0  0
  -17.5458  -17.8846  -12.2575 C   0  0  0  0  0  0  0  0  0  0  0  0
  -21.1485  -16.3421  -14.1116 C   0  0  2  0  0  0  0  0  0  0  0  0
  -24.6153  -10.3643  -14.9648 C   0  0  1  0  0  0  0  0  0  0  0  0
  -25.9137   -9.8268  -14.8154 O   0  0  0  0  0  0  0  0  0  0  0  0
  -18.6246  -17.5590  -11.5100 C   0  0  2  0  0  0  0  0  0  0  0  0
  -19.3167  -16.3150  -11.6598 O   0  0  0  0  0  0  0  0  0  0  0  0
  -21.7411  -14.9924  -14.6905 C   0  0  2  0  0  0  0  0  0  0  0  0
  -21.4690  -13.9258  -13.7664 O   0  0  0  0  0  0  0  0  0  0  0  0
  -24.3327  -11.3188  -13.7573 C   0  0  0  0  0  0  0  0  0  0  0  0
  -25.2168  -12.5612  -13.8476 O   0  0  0  0  0  0  0  0  0  0  0  0
  -19.1934  -18.4890  -10.4393 C   0  0  0  0  0  0  0  0  0  0  0  0
  -18.5435  -19.7632  -10.5673 O   0  0  0  0  0  0  0  0  0  0  0  0
  -23.3064  -15.1292  -14.8585 C   0  0  1  0  0  0  0  0  0  0  0  0
  -23.7959  -13.9097  -15.3893 O   0  0  0  0  0  0  0  0  0  0  0  0
  -23.6749   -9.1492  -14.8155 C   0  0  0  0  0  0  0  0  0  0  0  0
  -23.9876  -10.6012  -18.7694 C   0  0  0  0  0  0  0  0  0  0  0  0
  1  2  1  6  0  0  0
  1  6  1  0  0  0  0
  1 21  1  0  0  0  0
  3  4  1  1  0  0  0
  3  8  1  0  0  0  0
  3 28  1  0  0  0  0
  5  9  1  0  0  0  0
  5 25  1  0  0  0  0
  5 29  1  6  0  0  0
  6  7  1  6  0  0  0
  6 11  1  0  0  0  0
  8 12  1  0  0  0  0
  9 10  1  6  0  0  0
  9 14  1  0  0  0  0
 11 16  1  0  0  0  0
 12 13  1  1  0  0  0
 12 17  1  0  0  0  0
 14 15  1  6  0  0  0
 14 18  1  0  0  0  0
 15 31  1  0  0  0  0
 16 20  1  0  0  0  0
 17  2  1  6  0  0  0
 17 22  1  0  0  0  0
 18 19  1  1  0  0  0
 18 24  1  0  0  0  0
 18 30  1  0  0  0  0
 20 21  1  0  0  0  0
 20 26  1  1  0  0  0
 22 23  1  1  0  0  0
 22 28  1  0  0  0  0
 24 25  1  0  0  0  0
 26 27  1  0  0  0  0
 28 29  1  6  0  0  0
M  END
>  <CHROM.1>
-171.11599237,-155.60726424,-89.44323077,-161.17806460,-9.77288583,91.83447716
-22.02560299,-14.63042470,-14.43855295,-0.71770184,-0.53280873,0.00223570

>  <Name>
ligand

>  <RI>
0

>  <Rbt.Current_Directory>
/home/itssahil/PROJECTS/Mol_Feturizer/New_Systems/rnas/4GPW

>  <Rbt.Executable>
rbdock ($Id: //depot/dev/client3/rdock/2013.1/src/exe/rbdock.cxx#4 $)

>  <Rbt.Library>
libRbt.so (2013.1, Build901 2013/11/27)

>  <Rbt.Parameter_File>
/export/apps/rDock/src/rDock_2013.1_src/data/scripts/dock_solv.prm

>  <Rbt.Receptor>
prm/pocket_docking_2.prm

>  <SCORE>
-19.5053

>  <SCORE.INTER>
-16.223

>  <SCORE.INTER.CONST>
1

>  <SCORE.INTER.POLAR>
0

>  <SCORE.INTER.ROT>
6

>  <SCORE.INTER.SOLV>
16.138

>  <SCORE.INTER.VDW>
-23.7947

>  <SCORE.INTER.norm>
-0.523324

>  <SCORE.INTRA>
-3.28231

>  <SCORE.INTRA.DIHEDRAL>
-8.36713

>  <SCORE.INTRA.DIHEDRAL.0>
19.2558

>  <SCORE.INTRA.POLAR>
0

>  <SCORE.INTRA.POLAR.0>
0

>  <SCORE.INTRA.REPUL>
0

>  <SCORE.INTRA.REPUL.0>
0

>  <SCORE.INTRA.SOLV>
-1.58956

>  <SCORE.INTRA.SOLV.lig_0>
-64.5929

>  <SCORE.INTRA.VDW>
1.69604

>  <SCORE.INTRA.VDW.0>
-4.40538

>  <SCORE.INTRA.norm>
-0.105881

>  <SCORE.RESTR>
0

>  <SCORE.RESTR.CAVITY>
0

>  <SCORE.RESTR.norm>
0

>  <SCORE.SYSTEM>
0

>  <SCORE.SYSTEM.CONST>
0

>  <SCORE.SYSTEM.DIHEDRAL>
0

>  <SCORE.SYSTEM.SOLV>
0

>  <SCORE.SYSTEM.norm>
0

>  <SCORE.heavy>
31

>  <SCORE.norm>
-0.629205

>  <RMSD>
0.751

$$$$
ligand
 OpenBabel11021811493D
libRbt.so/2013.1/901 2013/11/27
 31 33  0  0  0  0  0  0  0  0999 V2000
  -19.2047  -15.5523  -12.9087 C   0  0  2  0  0  0  0  0  0  0  0  0
  -19.8125  -16.2387  -13.9931 O   0  0  0  0  0  0  0  0  0  0  0  0
  -23.6300  -16.3073  -15.8895 C   0  0  2  0  0  0  0  0  0  0  0  0
  -25.0419  -16.4358  -16.0548 N   0  0  0  0  0  0  0  0  0  0  0  0
  -25.1469  -13.3516  -15.1866 C   0  0  2  0  0  0  0  0  0  0  0  0
  -17.6630  -15.4187  -13.2514 C   0  0  2  0  0  0  0  0  0  0  0  0
  -17.5093  -14.6790  -14.5128 N   0  0  0  0  0  0  0  0  0  0  0  0
  -23.0671  -17.6728  -15.2993 C   0  0  0  0  0  0  0  0  0  0  0  0
  -25.4376  -12.4098  -16.4018 C   0  0  2  0  0  0  0  0  0  0  0  0
  -25.3116  -13.1684  -17.5814 O   0  0  0  0  0  0  0  0  0  0  0  0
  -17.0123  -16.8547  -13.3563 C   0  0  0  0  0  0  0  0  0  0  0  0
  -21.4883  -17.5332  -15.1204 C   0  0  2  0  0  0  0  0  0  0  0  0
  -20.9430  -18.7959  -14.5769 N   0  0  0  0  0  0  0  0  0  0  0  0
  -24.4152  -11.1983  -16.3827 C   0  0  1  0  0  0  0  0  0  0  0  0
  -24.6775  -10.2810  -17.5490 N   0  0  0  0  0  0  0  0  0  0  0  0
  -17.5588  -17.8491  -12.2495 C   0  0  0  0  0  0  0  0  0  0  0  0
  -21.1872  -16.3440  -14.1182 C   0  0  2  0  0  0  0  0  0  0  0  0
  -24.6060  -10.3624  -14.9999 C   0  0  1  0  0  0  0  0  0  0  0  0
  -25.9003   -9.8135  -14.8559 O   0  0  0  0  0  0  0  0  0  0  0  0
  -18.6405  -17.5344  -11.5015 C   0  0  2  0  0  0  0  0  0  0  0  0
  -19.3501  -16.3010  -11.6564 O   0  0  0  0  0  0  0  0  0  0  0  0
  -21.7711  -14.9969  -14.7115 C   0  0  2  0  0  0  0  0  0  0  0  0
  -21.5035  -13.9244  -13.7928 O   0  0  0  0  0  0  0  0  0  0  0  0
  -24.3395  -11.3245  -13.7948 C   0  0  0  0  0  0  0  0  0  0  0  0
  -25.2346  -12.5583  -13.8957 O   0  0  0  0  0  0  0  0  0  0  0  0
  -19.1941  -18.4665  -10.4246 C   0  0  0  0  0  0  0  0  0  0  0  0
  -18.4159  -19.6733  -10.4391 O   0  0  0  0  0  0  0  0  0  0  0  0
  -23.3354  -15.1305  -14.8912 C   0  0  1  0  0  0  0  0  0  0  0  0
  -23.8171  -13.9134  -15.4347 O   0  0  0  0  0  0  0  0  0  0  0  0
  -23.6553   -9.1567  -14.8398 C   0  0  0  0  0  0  0  0  0  0  0  0
  -23.9702  -10.5985  -18.8063 C   0  0  0  0  0  0  0  0  0  0  0  0
  1  2  1  6  0  0  0
  1  6  1  0  0  0  0
  1 21  1  0  0  0  0
  3  4  1  1  0  0  0
  3  8  1  0  0  0  0
  3 28  1  0  0  0  0
  5  9  1  0  0  0  0
  5 25  1  0  0  0  0
  5 29  1  6  0  0  0
  6  7  1  6  0  0  0
  6 11  1  0  0  0  0
  8 12  1  0  0  0  0
  9 10  1  6  0  0  0
  9 14  1  0  0  0  0
 11 16  1  0  0  0  0
 12 13  1  1  0  0  0
 12 17  1  0  0  0  0
 14 15  1  6  0  0  0
 14 18  1  0  0  0  0
 15 31  1  0  0  0  0
 16 20  1  0  0  0  0
 17  2  1  6  0  0  0
 17 22  1  0  0  0  0
 18 19  1  1  0  0  0
 18 24  1  0  0  0  0
 18 30  1  0  0  0  0
 20 21  1  0  0  0  0
 20 26  1  1  0  0  0
 22 23  1  1  0  0  0
 22 28  1  0  0  0  0
 24 25  1  0  0  0  0
 26 27  1  0  0  0  0
 28 29  1  6  0  0  0
M  END
>  <CHROM.1>
-169.81157532,-156.53425686,-88.73983989,-161.64326110,-2.82085659,92.39029358
-22.03838502,-14.62012591,-14.45397727,-0.71269254,-0.54436615,0.00405036

>  <Name>
ligand

>  <RI>
0

>  <Rbt.Current_Directory>
/home/itssahil/PROJECTS/Mol_Feturizer/New_Systems/rnas/4GPW

>  <Rbt.Executable>
rbdock ($Id: //depot/dev/client3/rdock/2013.1/src/exe/rbdock.cxx#4 $)

>  <Rbt.Library>
libRbt.so (2013.1, Build901 2013/11/27)

>  <Rbt.Parameter_File>
/export/apps/rDock/src/rDock_2013.1_src/data/scripts/dock_solv.prm

>  <Rbt.Receptor>
prm/pocket_docking_8.prm

>  <SCORE>
-19.5747

>  <SCORE.INTER>
-16.2651

>  <SCORE.INTER.CONST>
1

>  <SCORE.INTER.POLAR>
0

>  <SCORE.INTER.ROT>
6

>  <SCORE.INTER.SOLV>
16.3057

>  <SCORE.INTER.VDW>
-23.8786

>  <SCORE.INTER.norm>
-0.524679

>  <SCORE.INTRA>
-3.30966

>  <SCORE.INTRA.DIHEDRAL>
-8.51908

>  <SCORE.INTRA.DIHEDRAL.0>
19.2558

>  <SCORE.INTRA.POLAR>
0

>  <SCORE.INTRA.POLAR.0>
0

>  <SCORE.INTRA.REPUL>
0

>  <SCORE.INTRA.REPUL.0>
0

>  <SCORE.INTRA.SOLV>
-1.63754

>  <SCORE.INTRA.SOLV.lig_0>
-64.5929

>  <SCORE.INTRA.VDW>
1.76865

>  <SCORE.INTRA.VDW.0>
-4.40538

>  <SCORE.INTRA.norm>
-0.106763

>  <SCORE.RESTR>
0

>  <SCORE.RESTR.CAVITY>
0

>  <SCORE.RESTR.norm>
0

>  <SCORE.SYSTEM>
0

>  <SCORE.SYSTEM.CONST>
0

>  <SCORE.SYSTEM.DIHEDRAL>
0

>  <SCORE.SYSTEM.SOLV>
0

>  <SCORE.SYSTEM.norm>
0

>  <SCORE.heavy>
31

>  <SCORE.norm>
-0.631443

>  <RMSD>
0.751

$$$$
ligand
 OpenBabel11021811493D
libRbt.so/2013.1/901 2013/11/27
 31 33  0  0  0  0  0  0  0  0999 V2000
  -19.2098  -15.5417  -12.8882 C   0  0  2  0  0  0  0  0  0  0  0  0
  -19.8071  -16.2137  -13.9874 O   0  0  0  0  0  0  0  0  0  0  0  0
  -23.6162  -16.3118  -15.8995 C   0  0  2  0  0  0  0  0  0  0  0  0
  -25.0261  -16.4532  -16.0709 N   0  0  0  0  0  0  0  0  0  0  0  0
  -25.1522  -13.3571  -15.1663 C   0  0  2  0  0  0  0  0  0  0  0  0
  -17.6682  -15.3872  -13.2227 C   0  0  2  0  0  0  0  0  0  0  0  0
  -17.5171  -14.6229  -14.4696 N   0  0  0  0  0  0  0  0  0  0  0  0
  -23.0426  -17.6741  -15.3119 C   0  0  0  0  0  0  0  0  0  0  0  0
  -25.4607  -12.4132  -16.3755 C   0  0  2  0  0  0  0  0  0  0  0  0
  -25.3558  -13.1707  -17.5579 O   0  0  0  0  0  0  0  0  0  0  0  0
  -17.0034  -16.8148  -13.3515 C   0  0  0  0  0  0  0  0  0  0  0  0
  -21.4659  -17.5200  -15.1261 C   0  0  2  0  0  0  0  0  0  0  0  0
  -20.9107  -18.7795  -14.5849 N   0  0  0  0  0  0  0  0  0  0  0  0
  -24.4355  -11.2040  -16.3718 C   0  0  1  0  0  0  0  0  0  0  0  0
  -24.7148  -10.2848  -17.5326 N   0  0  0  0  0  0  0  0  0  0  0  0
  -17.5444  -17.8346  -12.2653 C   0  0  0  0  0  0  0  0  0  0  0  0
  -21.1802  -16.3317  -14.1184 C   0  0  2  0  0  0  0  0  0  0  0  0
  -24.6017  -10.3693  -14.9851 C   0  0  1  0  0  0  0  0  0  0  0  0
  -25.8922   -9.8177  -14.8193 O   0  0  0  0  0  0  0  0  0  0  0  0
  -18.6317  -17.5441  -11.5157 C   0  0  2  0  0  0  0  0  0  0  0  0
  -19.3525  -16.3148  -11.6505 O   0  0  0  0  0  0  0  0  0  0  0  0
  -21.7746  -14.9880  -14.7092 C   0  0  2  0  0  0  0  0  0  0  0  0
  -21.5209  -13.9164  -13.7856 O   0  0  0  0  0  0  0  0  0  0  0  0
  -24.3176  -11.3335  -13.7856 C   0  0  0  0  0  0  0  0  0  0  0  0
  -25.2169  -12.5651  -13.8732 O   0  0  0  0  0  0  0  0  0  0  0  0
  -19.1802  -18.5011  -10.4583 C   0  0  0  0  0  0  0  0  0  0  0  0
  -18.3217  -19.6513  -10.4125 O   0  0  0  0  0  0  0  0  0  0  0  0
  -23.3368  -15.1359  -14.8958 C   0  0  1  0  0  0  0  0  0  0  0  0
  -23.8279  -13.9215  -15.4368 O   0  0  0  0  0  0  0  0  0  0  0  0
  -23.6458   -9.1659  -14.8393 C   0  0  0  0  0  0  0  0  0  0  0  0
  -24.0862  -10.6432  -18.8203 C   0  0  0  0  0  0  0  0  0  0  0  0
  1  2  1  6  0  0  0
  1  6  1  0  0  0  0
  1 21  1  0  0  0  0
  3  4  1  1  0  0  0
  3  8  1  0  0  0  0
  3 28  1  0  0  0  0
  5  9  1  0  0  0  0
  5 25  1  0  0  0  0
  5 29  1  6  0  0  0
  6  7  1  6  0  0  0
  6 11  1  0  0  0  0
  8 12  1  0  0  0  0
  9 10  1  6  0  0  0
  9 14  1  0  0  0  0
 11 16  1  0  0  0  0
 12 13  1  1  0  0  0
 12 17  1  0  0  0  0
 14 15  1  6  0  0  0
 14 18  1  0  0  0  0
 15 31  1  0  0  0  0
 16 20  1  0  0  0  0
 17  2  1  6  0  0  0
 17 22  1  0  0  0  0
 18 19  1  1  0  0  0
 18 24  1  0  0  0  0
 18 30  1  0  0  0  0
 20 21  1  0  0  0  0
 20 26  1  1  0  0  0
 22 23  1  1  0  0  0
 22 28  1  0  0  0  0
 24 25  1  0  0  0  0
 26 27  1  0  0  0  0
 28 29  1  6  0  0  0
M  END
>  <CHROM.1>
-169.92203023,-156.97116167,-85.58676697,-160.73830326,2.04583231,93.95107092
-22.03766610,-14.61824067,-14.44765268,-0.70043666,-0.55252937,0.01932241

>  <Name>
ligand

>  <RI>
0

>  <Rbt.Current_Directory>
/home/itssahil/PROJECTS/Mol_Feturizer/New_Systems/rnas/4GPW

>  <Rbt.Executable>
rbdock ($Id: //depot/dev/client3/rdock/2013.1/src/exe/rbdock.cxx#4 $)

>  <Rbt.Library>
libRbt.so (2013.1, Build901 2013/11/27)

>  <Rbt.Parameter_File>
/export/apps/rDock/src/rDock_2013.1_src/data/scripts/dock_solv.prm

>  <Rbt.Receptor>
prm/pocket_docking_2.prm

>  <SCORE>
-19.4648

>  <SCORE.INTER>
-16.3555

>  <SCORE.INTER.CONST>
1

>  <SCORE.INTER.POLAR>
0

>  <SCORE.INTER.ROT>
6

>  <SCORE.INTER.SOLV>
16.3281

>  <SCORE.INTER.VDW>
-23.9464

>  <SCORE.INTER.norm>
-0.527597

>  <SCORE.INTRA>
-3.10929

>  <SCORE.INTRA.DIHEDRAL>
-8.27875

>  <SCORE.INTRA.DIHEDRAL.0>
19.2558

>  <SCORE.INTRA.POLAR>
0

>  <SCORE.INTRA.POLAR.0>
0

>  <SCORE.INTRA.REPUL>
0

>  <SCORE.INTRA.REPUL.0>
0

>  <SCORE.INTRA.SOLV>
-1.57059

>  <SCORE.INTRA.SOLV.lig_0>
-64.5929

>  <SCORE.INTRA.VDW>
1.81538

>  <SCORE.INTRA.VDW.0>
-4.40538

>  <SCORE.INTRA.norm>
-0.1003

>  <SCORE.RESTR>
0

>  <SCORE.RESTR.CAVITY>
0

>  <SCORE.RESTR.norm>
0

>  <SCORE.SYSTEM>
0

>  <SCORE.SYSTEM.CONST>
0

>  <SCORE.SYSTEM.DIHEDRAL>
0

>  <SCORE.SYSTEM.SOLV>
0

>  <SCORE.SYSTEM.norm>
0

>  <SCORE.heavy>
31

>  <SCORE.norm>
-0.627896

>  <RMSD>
0.754

$$$$
ligand
 OpenBabel11021811493D
libRbt.so/2013.1/901 2013/11/27
 31 33  0  0  0  0  0  0  0  0999 V2000
  -19.1093  -15.5536  -12.8484 C   0  0  2  0  0  0  0  0  0  0  0  0
  -19.7256  -16.2011  -13.9518 O   0  0  0  0  0  0  0  0  0  0  0  0
  -23.5615  -16.2241  -15.8118 C   0  0  2  0  0  0  0  0  0  0  0  0
  -24.9746  -16.3527  -15.9672 N   0  0  0  0  0  0  0  0  0  0  0  0
  -25.0886  -13.3072  -15.0165 C   0  0  2  0  0  0  0  0  0  0  0  0
  -17.5604  -15.4614  -13.1721 C   0  0  2  0  0  0  0  0  0  0  0  0
  -17.3699  -14.7040  -14.4178 N   0  0  0  0  0  0  0  0  0  0  0  0
  -22.9880  -17.6055  -15.2707 C   0  0  0  0  0  0  0  0  0  0  0  0
  -25.4252  -12.4019  -16.2475 C   0  0  2  0  0  0  0  0  0  0  0  0
  -25.3076  -13.1864  -17.4108 O   0  0  0  0  0  0  0  0  0  0  0  0
  -16.9529  -16.9147  -13.2967 C   0  0  0  0  0  0  0  0  0  0  0  0
  -21.4079  -17.4656  -15.1030 C   0  0  2  0  0  0  0  0  0  0  0  0
  -20.8528  -18.7428  -14.6052 N   0  0  0  0  0  0  0  0  0  0  0  0
  -24.4293  -11.1689  -16.2796 C   0  0  1  0  0  0  0  0  0  0  0  0
  -24.7359  -10.2863  -17.4618 N   0  0  0  0  0  0  0  0  0  0  0  0
  -17.5421  -17.9118  -12.2144 C   0  0  0  0  0  0  0  0  0  0  0  0
  -21.1010  -16.3076  -14.0666 C   0  0  2  0  0  0  0  0  0  0  0  0
  -24.6091  -10.3035  -14.9136 C   0  0  1  0  0  0  0  0  0  0  0  0
  -25.9117   -9.7788  -14.7550 O   0  0  0  0  0  0  0  0  0  0  0  0
  -18.6220  -17.5775  -11.4723 C   0  0  2  0  0  0  0  0  0  0  0  0
  -19.2916  -16.3202  -11.6118 O   0  0  0  0  0  0  0  0  0  0  0  0
  -21.6956  -14.9446  -14.6111 C   0  0  2  0  0  0  0  0  0  0  0  0
  -21.4226  -13.9007  -13.6616 O   0  0  0  0  0  0  0  0  0  0  0  0
  -24.2964  -11.2299  -13.6916 C   0  0  0  0  0  0  0  0  0  0  0  0
  -25.1664  -12.4844  -13.7434 O   0  0  0  0  0  0  0  0  0  0  0  0
  -19.2160  -18.5116  -10.4188 C   0  0  0  0  0  0  0  0  0  0  0  0
  -18.4272  -19.7113  -10.3938 O   0  0  0  0  0  0  0  0  0  0  0  0
  -23.2611  -15.0784  -14.7796 C   0  0  1  0  0  0  0  0  0  0  0  0
  -23.7524  -13.8466  -15.2795 O   0  0  0  0  0  0  0  0  0  0  0  0
  -23.6816   -9.0744  -14.8031 C   0  0  0  0  0  0  0  0  0  0  0  0
  -24.0251  -10.6006  -18.7179 C   0  0  0  0  0  0  0  0  0  0  0  0
  1  2  1  6  0  0  0
  1  6  1  0  0  0  0
  1 21  1  0  0  0  0
  3  4  1  1  0  0  0
  3  8  1  0  0  0  0
  3 28  1  0  0  0  0
  5  9  1  0  0  0  0
  5 25  1  0  0  0  0
  5 29  1  6  0  0  0
  6  7  1  6  0  0  0
  6 11  1  0  0  0  0
  8 12  1  0  0  0  0
  9 10  1  6  0  0  0
  9 14  1  0  0  0  0
 11 16  1  0  0  0  0
 12 13  1  1  0  0  0
 12 17  1  0  0  0  0
 14 15  1  6  0  0  0
 14 18  1  0  0  0  0
 15 31  1  0  0  0  0
 16 20  1  0  0  0  0
 17  2  1  6  0  0  0
 17 22  1  0  0  0  0
 18 19  1  1  0  0  0
 18 24  1  0  0  0  0
 18 30  1  0  0  0  0
 20 21  1  0  0  0  0
 20 26  1  1  0  0  0
 22 23  1  1  0  0  0
 22 28  1  0  0  0  0
 24 25  1  0  0  0  0
 26 27  1  0  0  0  0
 28 29  1  6  0  0  0
M  END
>  <CHROM.1>
-172.41563841,-152.65558542,-90.08701374,-161.27835721,0.45280365,91.45740947
-21.99612020,-14.59823010,-14.37329075,-0.70784810,-0.54370871,0.02273869

>  <Name>
ligand

>  <RI>
0

>  <Rbt.Current_Directory>
/home/itssahil/PROJECTS/Mol_Feturizer/New_Systems/rnas/4GPW

>  <Rbt.Executable>
rbdock ($Id: //depot/dev/client3/rdock/2013.1/src/exe/rbdock.cxx#4 $)

>  <Rbt.Library>
libRbt.so (2013.1, Build901 2013/11/27)

>  <Rbt.Parameter_File>
/export/apps/rDock/src/rDock_2013.1_src/data/scripts/dock_solv.prm

>  <Rbt.Receptor>
prm/pocket_docking_3.prm

>  <SCORE>
-19.4429

>  <SCORE.INTER>
-16.3751

>  <SCORE.INTER.CONST>
1

>  <SCORE.INTER.POLAR>
0

>  <SCORE.INTER.ROT>
6

>  <SCORE.INTER.SOLV>
16.5146

>  <SCORE.INTER.VDW>
-24.0216

>  <SCORE.INTER.norm>
-0.528228

>  <SCORE.INTRA>
-3.0678

>  <SCORE.INTRA.DIHEDRAL>
-8.11592

>  <SCORE.INTRA.DIHEDRAL.0>
19.2558

>  <SCORE.INTRA.POLAR>
0

>  <SCORE.INTRA.POLAR.0>
0

>  <SCORE.INTRA.REPUL>
0

>  <SCORE.INTRA.REPUL.0>
0

>  <SCORE.INTRA.SOLV>
-1.51561

>  <SCORE.INTRA.SOLV.lig_0>
-64.5929

>  <SCORE.INTRA.VDW>
1.74797

>  <SCORE.INTRA.VDW.0>
-4.40538

>  <SCORE.INTRA.norm>
-0.0989612

>  <SCORE.RESTR>
0

>  <SCORE.RESTR.CAVITY>
0

>  <SCORE.RESTR.norm>
0

>  <SCORE.SYSTEM>
0

>  <SCORE.SYSTEM.CONST>
0

>  <SCORE.SYSTEM.DIHEDRAL>
0

>  <SCORE.SYSTEM.SOLV>
0

>  <SCORE.SYSTEM.norm>
0

>  <SCORE.heavy>
31

>  <SCORE.norm>
-0.627189

>  <RMSD>
0.759

$$$$
ligand
 OpenBabel11021811493D
libRbt.so/2013.1/901 2013/11/27
 31 33  0  0  0  0  0  0  0  0999 V2000
  -19.1336  -15.5132  -12.8915 C   0  0  2  0  0  0  0  0  0  0  0  0
  -19.7589  -16.1703  -13.9840 O   0  0  0  0  0  0  0  0  0  0  0  0
  -23.6080  -16.3527  -15.8077 C   0  0  2  0  0  0  0  0  0  0  0  0
  -25.0217  -16.4973  -15.9419 N   0  0  0  0  0  0  0  0  0  0  0  0
  -25.1347  -13.3789  -15.2261 C   0  0  2  0  0  0  0  0  0  0  0  0
  -17.5927  -15.3940  -13.2436 C   0  0  2  0  0  0  0  0  0  0  0  0
  -17.4385  -14.6323  -14.4918 N   0  0  0  0  0  0  0  0  0  0  0  0
  -23.0258  -17.6848  -15.1625 C   0  0  0  0  0  0  0  0  0  0  0  0
  -25.4138  -12.4306  -16.4389 C   0  0  2  0  0  0  0  0  0  0  0  0
  -25.2782  -13.1833  -17.6212 O   0  0  0  0  0  0  0  0  0  0  0  0
  -16.9627  -16.8364  -13.3811 C   0  0  0  0  0  0  0  0  0  0  0  0
  -21.4451  -17.5274  -15.0182 C   0  0  2  0  0  0  0  0  0  0  0  0
  -20.8820  -18.7593  -14.4243 N   0  0  0  0  0  0  0  0  0  0  0  0
  -24.3905  -11.2203  -16.4046 C   0  0  1  0  0  0  0  0  0  0  0  0
  -24.6416  -10.2968  -17.5685 N   0  0  0  0  0  0  0  0  0  0  0  0
  -17.5144  -17.8444  -12.2893 C   0  0  0  0  0  0  0  0  0  0  0  0
  -21.1348  -16.2896  -14.0797 C   0  0  2  0  0  0  0  0  0  0  0  0
  -24.5926  -10.3913  -15.0193 C   0  0  1  0  0  0  0  0  0  0  0  0
  -25.8876   -9.8418  -14.8839 O   0  0  0  0  0  0  0  0  0  0  0  0
  -18.5860  -17.5295  -11.5269 C   0  0  2  0  0  0  0  0  0  0  0  0
  -19.2797  -16.2838  -11.6526 O   0  0  0  0  0  0  0  0  0  0  0  0
  -21.7379  -14.9761  -14.7268 C   0  0  2  0  0  0  0  0  0  0  0  0
  -21.4617  -13.8590  -13.8656 O   0  0  0  0  0  0  0  0  0  0  0  0
  -24.3377  -11.3599  -13.8168 C   0  0  0  0  0  0  0  0  0  0  0  0
  -25.2330  -12.5922  -13.9319 O   0  0  0  0  0  0  0  0  0  0  0  0
  -19.1442  -18.4745  -10.4637 C   0  0  0  0  0  0  0  0  0  0  0  0
  -18.3720  -19.6848  -10.4961 O   0  0  0  0  0  0  0  0  0  0  0  0
  -23.3041  -15.1274  -14.8725 C   0  0  1  0  0  0  0  0  0  0  0  0
  -23.8033  -13.9408  -15.4653 O   0  0  0  0  0  0  0  0  0  0  0  0
  -23.6422   -9.1874  -14.8446 C   0  0  0  0  0  0  0  0  0  0  0  0
  -23.9002  -10.5905  -18.8118 C   0  0  0  0  0  0  0  0  0  0  0  0
  1  2  1  6  0  0  0
  1  6  1  0  0  0  0
  1 21  1  0  0  0  0
  3  4  1  1  0  0  0
  3  8  1  0  0  0  0
  3 28  1  0  0  0  0
  5  9  1  0  0  0  0
  5 25  1  0  0  0  0
  5 29  1  6  0  0  0
  6  7  1  6  0  0  0
  6 11  1  0  0  0  0
  8 12  1  0  0  0  0
  9 10  1  6  0  0  0
  9 14  1  0  0  0  0
 11 16  1  0  0  0  0
 12 13  1  1  0  0  0
 12 17  1  0  0  0  0
 14 15  1  6  0  0  0
 14 18  1  0  0  0  0
 15 31  1  0  0  0  0
 16 20  1  0  0  0  0
 17  2  1  6  0  0  0
 17 22  1  0  0  0  0
 18 19  1  1  0  0  0
 18 24  1  0  0  0  0
 18 30  1  0  0  0  0
 20 21  1  0  0  0  0
 20 26  1  1  0  0  0
 22 23  1  1  0  0  0
 22 28  1  0  0  0  0
 24 25  1  0  0  0  0
 26 27  1  0  0  0  0
 28 29  1  6  0  0  0
M  END
>  <CHROM.1>
-171.80032868,-159.77937683,-90.08394702,-156.89061872,-2.10807477,92.08863988
-22.00035541,-14.62016118,-14.45137913,-0.73264801,-0.50620838,-0.04537272

>  <Name>
ligand

>  <RI>
0

>  <Rbt.Current_Directory>
/home/itssahil/PROJECTS/Mol_Feturizer/New_Systems/rnas/4GPW

>  <Rbt.Executable>
rbdock ($Id: //depot/dev/client3/rdock/2013.1/src/exe/rbdock.cxx#4 $)

>  <Rbt.Library>
libRbt.so (2013.1, Build901 2013/11/27)

>  <Rbt.Parameter_File>
/export/apps/rDock/src/rDock_2013.1_src/data/scripts/dock_solv.prm

>  <Rbt.Receptor>
prm/pocket_docking_4.prm

>  <SCORE>
-19.2744

>  <SCORE.INTER>
-15.9462

>  <SCORE.INTER.CONST>
1

>  <SCORE.INTER.POLAR>
0

>  <SCORE.INTER.ROT>
6

>  <SCORE.INTER.SOLV>
16.1211

>  <SCORE.INTER.VDW>
-23.6045

>  <SCORE.INTER.norm>
-0.514394

>  <SCORE.INTRA>
-3.32818

>  <SCORE.INTRA.DIHEDRAL>
-8.47779

>  <SCORE.INTRA.DIHEDRAL.0>
19.2558

>  <SCORE.INTRA.POLAR>
0

>  <SCORE.INTRA.POLAR.0>
0

>  <SCORE.INTRA.REPUL>
0

>  <SCORE.INTRA.REPUL.0>
0

>  <SCORE.INTRA.SOLV>
-1.39607

>  <SCORE.INTRA.SOLV.lig_0>
-64.5929

>  <SCORE.INTRA.VDW>
1.60875

>  <SCORE.INTRA.VDW.0>
-4.40538

>  <SCORE.INTRA.norm>
-0.107361

>  <SCORE.RESTR>
0

>  <SCORE.RESTR.CAVITY>
0

>  <SCORE.RESTR.norm>
0

>  <SCORE.SYSTEM>
0

>  <SCORE.SYSTEM.CONST>
0

>  <SCORE.SYSTEM.DIHEDRAL>
0

>  <SCORE.SYSTEM.SOLV>
0

>  <SCORE.SYSTEM.norm>
0

>  <SCORE.heavy>
31

>  <SCORE.norm>
-0.621755

>  <RMSD>
0.760

$$$$
ligand
 OpenBabel11021811493D
libRbt.so/2013.1/901 2013/11/27
 31 33  0  0  0  0  0  0  0  0999 V2000
  -19.0496  -15.5788  -12.8925 C   0  0  2  0  0  0  0  0  0  0  0  0
  -19.6645  -16.2071  -14.0077 O   0  0  0  0  0  0  0  0  0  0  0  0
  -23.4979  -15.9844  -15.8598 C   0  0  2  0  0  0  0  0  0  0  0  0
  -24.9112  -16.0874  -16.0313 N   0  0  0  0  0  0  0  0  0  0  0  0
  -25.0369  -13.2066  -14.7674 C   0  0  2  0  0  0  0  0  0  0  0  0
  -17.4970  -15.5027  -13.2022 C   0  0  2  0  0  0  0  0  0  0  0  0
  -17.2866  -14.7348  -14.4383 N   0  0  0  0  0  0  0  0  0  0  0  0
  -22.9301  -17.4245  -15.4940 C   0  0  0  0  0  0  0  0  0  0  0  0
  -25.4655  -12.4239  -16.0526 C   0  0  2  0  0  0  0  0  0  0  0  0
  -25.3404  -13.2922  -17.1541 O   0  0  0  0  0  0  0  0  0  0  0  0
  -16.9066  -16.9621  -13.3370 C   0  0  0  0  0  0  0  0  0  0  0  0
  -21.3498  -17.3124  -15.3087 C   0  0  2  0  0  0  0  0  0  0  0  0
  -20.8000  -18.6437  -14.9728 N   0  0  0  0  0  0  0  0  0  0  0  0
  -24.5446  -11.1443  -16.2189 C   0  0  1  0  0  0  0  0  0  0  0  0
  -24.9403  -10.3786  -17.4548 N   0  0  0  0  0  0  0  0  0  0  0  0
  -17.5172  -17.9629  -12.2702 C   0  0  0  0  0  0  0  0  0  0  0  0
  -21.0402  -16.2933  -14.1361 C   0  0  2  0  0  0  0  0  0  0  0  0
  -24.7298  -10.1826  -14.9196 C   0  0  1  0  0  0  0  0  0  0  0  0
  -26.0549   -9.7197  -14.7548 O   0  0  0  0  0  0  0  0  0  0  0  0
  -18.5991  -17.6229  -11.5336 C   0  0  2  0  0  0  0  0  0  0  0  0
  -19.2519  -16.3559  -11.6656 O   0  0  0  0  0  0  0  0  0  0  0  0
  -21.6290  -14.8710  -14.5077 C   0  0  2  0  0  0  0  0  0  0  0  0
  -21.3536  -13.9542  -13.4356 O   0  0  0  0  0  0  0  0  0  0  0  0
  -24.3242  -10.9883  -13.6409 C   0  0  0  0  0  0  0  0  0  0  0  0
  -25.1210  -12.2892  -13.5612 O   0  0  0  0  0  0  0  0  0  0  0  0
  -19.2136  -18.5603  -10.4951 C   0  0  0  0  0  0  0  0  0  0  0  0
  -20.3714  -19.1749  -11.0816 O   0  0  0  0  0  0  0  0  0  0  0  0
  -23.1947  -14.9769  -14.6930 C   0  0  1  0  0  0  0  0  0  0  0  0
  -23.6809  -13.6908  -15.0364 O   0  0  0  0  0  0  0  0  0  0  0  0
  -23.8724   -8.8991  -14.9410 C   0  0  0  0  0  0  0  0  0  0  0  0
  -24.2589  -10.7584  -18.7091 C   0  0  0  0  0  0  0  0  0  0  0  0
  1  2  1  6  0  0  0
  1  6  1  0  0  0  0
  1 21  1  0  0  0  0
  3  4  1  1  0  0  0
  3  8  1  0  0  0  0
  3 28  1  0  0  0  0
  5  9  1  0  0  0  0
  5 25  1  0  0  0  0
  5 29  1  6  0  0  0
  6  7  1  6  0  0  0
  6 11  1  0  0  0  0
  8 12  1  0  0  0  0
  9 10  1  6  0  0  0
  9 14  1  0  0  0  0
 11 16  1  0  0  0  0
 12 13  1  1  0  0  0
 12 17  1  0  0  0  0
 14 15  1  6  0  0  0
 14 18  1  0  0  0  0
 15 31  1  0  0  0  0
 16 20  1  0  0  0  0
 17  2  1  6  0  0  0
 17 22  1  0  0  0  0
 18 19  1  1  0  0  0
 18 24  1  0  0  0  0
 18 30  1  0  0  0  0
 20 21  1  0  0  0  0
 20 26  1  1  0  0  0
 22 23  1  1  0  0  0
 22 28  1  0  0  0  0
 24 25  1  0  0  0  0
 26 27  1  0  0  0  0
 28 29  1  6  0  0  0
M  END
>  <CHROM.1>
-172.31010486,-138.72554940,-89.77337947,-167.90413851,-100.69232350,88.31249047
-22.06695440,-14.53370304,-14.39204819,-0.69939311,-0.53925879,0.06410551

>  <Name>
ligand

>  <RI>
0

>  <Rbt.Current_Directory>
/home/itssahil/PROJECTS/Mol_Feturizer/New_Systems/rnas/4GPW

>  <Rbt.Executable>
rbdock ($Id: //depot/dev/client3/rdock/2013.1/src/exe/rbdock.cxx#4 $)

>  <Rbt.Library>
libRbt.so (2013.1, Build901 2013/11/27)

>  <Rbt.Parameter_File>
/export/apps/rDock/src/rDock_2013.1_src/data/scripts/dock_solv.prm

>  <Rbt.Receptor>
prm/pocket_docking_6.prm

>  <SCORE>
-19.9592

>  <SCORE.INTER>
-16.6799

>  <SCORE.INTER.CONST>
1

>  <SCORE.INTER.POLAR>
0

>  <SCORE.INTER.ROT>
6

>  <SCORE.INTER.SOLV>
16.3623

>  <SCORE.INTER.VDW>
-24.174

>  <SCORE.INTER.norm>
-0.538061

>  <SCORE.INTRA>
-3.27927

>  <SCORE.INTRA.DIHEDRAL>
-6.65305

>  <SCORE.INTRA.DIHEDRAL.0>
19.2558

>  <SCORE.INTRA.POLAR>
0

>  <SCORE.INTRA.POLAR.0>
0

>  <SCORE.INTRA.REPUL>
0

>  <SCORE.INTRA.REPUL.0>
0

>  <SCORE.INTRA.SOLV>
-1.21603

>  <SCORE.INTRA.SOLV.lig_0>
-64.5929

>  <SCORE.INTRA.VDW>
0.655269

>  <SCORE.INTRA.VDW.0>
-4.40538

>  <SCORE.INTRA.norm>
-0.105783

>  <SCORE.RESTR>
0

>  <SCORE.RESTR.CAVITY>
0

>  <SCORE.RESTR.norm>
0

>  <SCORE.SYSTEM>
0

>  <SCORE.SYSTEM.CONST>
0

>  <SCORE.SYSTEM.DIHEDRAL>
0

>  <SCORE.SYSTEM.SOLV>
0

>  <SCORE.SYSTEM.norm>
0

>  <SCORE.heavy>
31

>  <SCORE.norm>
-0.643844

>  <RMSD>
0.760

$$$$
ligand
 OpenBabel11021811493D
libRbt.so/2013.1/901 2013/11/27
 31 33  0  0  0  0  0  0  0  0999 V2000
  -19.1403  -15.5595  -12.8107 C   0  0  2  0  0  0  0  0  0  0  0  0
  -19.7389  -16.2187  -13.9169 O   0  0  0  0  0  0  0  0  0  0  0  0
  -23.5467  -16.1838  -15.8336 C   0  0  2  0  0  0  0  0  0  0  0  0
  -24.9572  -16.3077  -16.0140 N   0  0  0  0  0  0  0  0  0  0  0  0
  -25.0852  -13.2910  -14.9653 C   0  0  2  0  0  0  0  0  0  0  0  0
  -17.5940  -15.4265  -13.1327 C   0  0  2  0  0  0  0  0  0  0  0  0
  -17.4220  -14.6601  -14.3756 N   0  0  0  0  0  0  0  0  0  0  0  0
  -22.9804  -17.5815  -15.3277 C   0  0  0  0  0  0  0  0  0  0  0  0
  -25.4452  -12.4222  -16.2158 C   0  0  2  0  0  0  0  0  0  0  0  0
  -25.3333  -13.2362  -17.3593 O   0  0  0  0  0  0  0  0  0  0  0  0
  -16.9493  -16.8632  -13.2617 C   0  0  0  0  0  0  0  0  0  0  0  0
  -21.4031  -17.4467  -15.1321 C   0  0  2  0  0  0  0  0  0  0  0  0
  -20.8548  -18.7389  -14.6664 N   0  0  0  0  0  0  0  0  0  0  0  0
  -24.4621  -11.1809  -16.2926 C   0  0  1  0  0  0  0  0  0  0  0  0
  -24.7913  -10.3331  -17.4940 N   0  0  0  0  0  0  0  0  0  0  0  0
  -17.5135  -17.8788  -12.1835 C   0  0  0  0  0  0  0  0  0  0  0  0
  -21.1124  -16.3218  -14.0554 C   0  0  2  0  0  0  0  0  0  0  0  0
  -24.6346  -10.2811  -14.9480 C   0  0  1  0  0  0  0  0  0  0  0  0
  -25.9405   -9.7650  -14.7879 O   0  0  0  0  0  0  0  0  0  0  0  0
  -18.6023  -17.5751  -11.4411 C   0  0  2  0  0  0  0  0  0  0  0  0
  -19.3038  -16.3348  -11.5770 O   0  0  0  0  0  0  0  0  0  0  0  0
  -21.6995  -14.9424  -14.5657 C   0  0  2  0  0  0  0  0  0  0  0  0
  -21.4413  -13.9288  -13.5800 O   0  0  0  0  0  0  0  0  0  0  0  0
  -24.2985  -11.1715  -13.7057 C   0  0  0  0  0  0  0  0  0  0  0  0
  -25.1564  -12.4354  -13.7137 O   0  0  0  0  0  0  0  0  0  0  0  0
  -19.1729  -18.5277  -10.3915 C   0  0  0  0  0  0  0  0  0  0  0  0
  -18.3550  -19.7078  -10.3716 O   0  0  0  0  0  0  0  0  0  0  0  0
  -23.2623  -15.0710  -14.7617 C   0  0  1  0  0  0  0  0  0  0  0  0
  -23.7469  -13.8242  -15.2299 O   0  0  0  0  0  0  0  0  0  0  0  0
  -23.7183   -9.0405  -14.8812 C   0  0  0  0  0  0  0  0  0  0  0  0
  -24.1058  -10.6853  -18.7541 C   0  0  0  0  0  0  0  0  0  0  0  0
  1  2  1  6  0  0  0
  1  6  1  0  0  0  0
  1 21  1  0  0  0  0
  3  4  1  1  0  0  0
  3  8  1  0  0  0  0
  3 28  1  0  0  0  0
  5  9  1  0  0  0  0
  5 25  1  0  0  0  0
  5 29  1  6  0  0  0
  6  7  1  6  0  0  0
  6 11  1  0  0  0  0
  8 12  1  0  0  0  0
  9 10  1  6  0  0  0
  9 14  1  0  0  0  0
 11 16  1  0  0  0  0
 12 13  1  1  0  0  0
 12 17  1  0  0  0  0
 14 15  1  6  0  0  0
 14 18  1  0  0  0  0
 15 31  1  0  0  0  0
 16 20  1  0  0  0  0
 17  2  1  6  0  0  0
 17 22  1  0  0  0  0
 18 19  1  1  0  0  0
 18 24  1  0  0  0  0
 18 30  1  0  0  0  0
 20 21  1  0  0  0  0
 20 26  1  1  0  0  0
 22 23  1  1  0  0  0
 22 28  1  0  0  0  0
 24 25  1  0  0  0  0
 26 27  1  0  0  0  0
 28 29  1  6  0  0  0
M  END
>  <CHROM.1>
-170.24905344,-149.11650155,-89.29177934,-163.82245098,0.35058341,91.72546936
-22.00430015,-14.59178693,-14.36470032,-0.68673394,-0.56707738,0.05310862

>  <Name>
ligand

>  <RI>
0

>  <Rbt.Current_Directory>
/home/itssahil/PROJECTS/Mol_Feturizer/New_Systems/rnas/4GPW

>  <Rbt.Executable>
rbdock ($Id: //depot/dev/client3/rdock/2013.1/src/exe/rbdock.cxx#4 $)

>  <Rbt.Library>
libRbt.so (2013.1, Build901 2013/11/27)

>  <Rbt.Parameter_File>
/export/apps/rDock/src/rDock_2013.1_src/data/scripts/dock_solv.prm

>  <Rbt.Receptor>
prm/pocket_docking_5.prm

>  <SCORE>
-19.3983

>  <SCORE.INTER>
-16.6248

>  <SCORE.INTER.CONST>
1

>  <SCORE.INTER.POLAR>
0

>  <SCORE.INTER.ROT>
6

>  <SCORE.INTER.SOLV>
16.6544

>  <SCORE.INTER.VDW>
-24.2347

>  <SCORE.INTER.norm>
-0.536285

>  <SCORE.INTRA>
-2.7734

>  <SCORE.INTRA.DIHEDRAL>
-7.62555

>  <SCORE.INTRA.DIHEDRAL.0>
19.2558

>  <SCORE.INTRA.POLAR>
0

>  <SCORE.INTRA.POLAR.0>
0

>  <SCORE.INTRA.REPUL>
0

>  <SCORE.INTRA.REPUL.0>
0

>  <SCORE.INTRA.SOLV>
-1.56726

>  <SCORE.INTRA.SOLV.lig_0>
-64.5929

>  <SCORE.INTRA.VDW>
1.823

>  <SCORE.INTRA.VDW.0>
-4.40538

>  <SCORE.INTRA.norm>
-0.0894646

>  <SCORE.RESTR>
0

>  <SCORE.RESTR.CAVITY>
0

>  <SCORE.RESTR.norm>
0

>  <SCORE.SYSTEM>
0

>  <SCORE.SYSTEM.CONST>
0

>  <SCORE.SYSTEM.DIHEDRAL>
0

>  <SCORE.SYSTEM.SOLV>
0

>  <SCORE.SYSTEM.norm>
0

>  <SCORE.heavy>
31

>  <SCORE.norm>
-0.62575

>  <RMSD>
0.762

$$$$
ligand
 OpenBabel11021811493D
libRbt.so/2013.1/901 2013/11/27
 31 33  0  0  0  0  0  0  0  0999 V2000
  -19.2128  -15.5892  -12.8388 C   0  0  2  0  0  0  0  0  0  0  0  0
  -19.8010  -16.2610  -13.9430 O   0  0  0  0  0  0  0  0  0  0  0  0
  -23.6083  -16.3490  -15.8591 C   0  0  2  0  0  0  0  0  0  0  0  0
  -25.0164  -16.5019  -16.0353 N   0  0  0  0  0  0  0  0  0  0  0  0
  -25.1727  -13.4264  -15.0286 C   0  0  2  0  0  0  0  0  0  0  0  0
  -17.6691  -15.4316  -13.1619 C   0  0  2  0  0  0  0  0  0  0  0  0
  -17.5104  -14.6656  -14.4069 N   0  0  0  0  0  0  0  0  0  0  0  0
  -23.0188  -17.7207  -15.3106 C   0  0  0  0  0  0  0  0  0  0  0  0
  -25.5436  -12.5320  -16.2577 C   0  0  2  0  0  0  0  0  0  0  0  0
  -25.4668  -13.3290  -17.4160 O   0  0  0  0  0  0  0  0  0  0  0  0
  -17.0009  -16.8579  -13.2877 C   0  0  0  0  0  0  0  0  0  0  0  0
  -21.4441  -17.5535  -15.1196 C   0  0  2  0  0  0  0  0  0  0  0  0
  -20.8742  -18.8214  -14.6144 N   0  0  0  0  0  0  0  0  0  0  0  0
  -24.5430  -11.3047  -16.3341 C   0  0  1  0  0  0  0  0  0  0  0  0
  -24.8825  -10.4327  -17.5151 N   0  0  0  0  0  0  0  0  0  0  0  0
  -17.5478  -17.8799  -12.2066 C   0  0  0  0  0  0  0  0  0  0  0  0
  -21.1726  -16.3913  -14.0780 C   0  0  2  0  0  0  0  0  0  0  0  0
  -24.6751  -10.4245  -14.9721 C   0  0  1  0  0  0  0  0  0  0  0  0
  -25.9694   -9.8912  -14.7779 O   0  0  0  0  0  0  0  0  0  0  0  0
  -18.6411  -17.5922  -11.4644 C   0  0  2  0  0  0  0  0  0  0  0  0
  -19.3630  -16.3640  -11.6030 O   0  0  0  0  0  0  0  0  0  0  0  0
  -21.7826  -15.0384  -14.6304 C   0  0  2  0  0  0  0  0  0  0  0  0
  -21.5417  -13.9907  -13.6763 O   0  0  0  0  0  0  0  0  0  0  0  0
  -24.3285  -11.3400  -13.7511 C   0  0  0  0  0  0  0  0  0  0  0  0
  -25.2060  -12.5903  -13.7624 O   0  0  0  0  0  0  0  0  0  0  0  0
  -19.1955  -18.5514  -10.4121 C   0  0  0  0  0  0  0  0  0  0  0  0
  -18.5841  -19.8348  -10.6152 O   0  0  0  0  0  0  0  0  0  0  0  0
  -23.3429  -15.1991  -14.8219 C   0  0  1  0  0  0  0  0  0  0  0  0
  -23.8482  -13.9756  -15.3281 O   0  0  0  0  0  0  0  0  0  0  0  0
  -23.7385   -9.1992  -14.9038 C   0  0  0  0  0  0  0  0  0  0  0  0
  -24.1379  -10.6978  -18.7629 C   0  0  0  0  0  0  0  0  0  0  0  0
  1  2  1  6  0  0  0
  1  6  1  0  0  0  0
  1 21  1  0  0  0  0
  3  4  1  1  0  0  0
  3  8  1  0  0  0  0
  3 28  1  0  0  0  0
  5  9  1  0  0  0  0
  5 25  1  0  0  0  0
  5 29  1  6  0  0  0
  6  7  1  6  0  0  0
  6 11  1  0  0  0  0
  8 12  1  0  0  0  0
  9 10  1  6  0  0  0
  9 14  1  0  0  0  0
 11 16  1  0  0  0  0
 12 13  1  1  0  0  0
 12 17  1  0  0  0  0
 14 15  1  6  0  0  0
 14 18  1  0  0  0  0
 15 31  1  0  0  0  0
 16 20  1  0  0  0  0
 17  2  1  6  0  0  0
 17 22  1  0  0  0  0
 18 19  1  1  0  0  0
 18 24  1  0  0  0  0
 18 30  1  0  0  0  0
 20 21  1  0  0  0  0
 20 26  1  1  0  0  0
 22 23  1  1  0  0  0
 22 28  1  0  0  0  0
 24 25  1  0  0  0  0
 26 27  1  0  0  0  0
 28 29  1  6  0  0  0
M  END
>  <CHROM.1>
-170.49362004,-153.24110604,-94.57997629,-162.08854588,-13.94843901,94.77366054
-22.07198700,-14.68201584,-14.40306590,-0.69832443,-0.54535009,0.02341013

>  <Name>
ligand

>  <RI>
0

>  <Rbt.Current_Directory>
/home/itssahil/PROJECTS/Mol_Feturizer/New_Systems/rnas/4GPW

>  <Rbt.Executable>
rbdock ($Id: //depot/dev/client3/rdock/2013.1/src/exe/rbdock.cxx#4 $)

>  <Rbt.Library>
libRbt.so (2013.1, Build901 2013/11/27)

>  <Rbt.Parameter_File>
/export/apps/rDock/src/rDock_2013.1_src/data/scripts/dock_solv.prm

>  <Rbt.Receptor>
prm/pocket_docking_2.prm

>  <SCORE>
-19.3171

>  <SCORE.INTER>
-16.4979

>  <SCORE.INTER.CONST>
1

>  <SCORE.INTER.POLAR>
0

>  <SCORE.INTER.ROT>
6

>  <SCORE.INTER.SOLV>
16.5576

>  <SCORE.INTER.VDW>
-24.1178

>  <SCORE.INTER.norm>
-0.532192

>  <SCORE.INTRA>
-2.81919

>  <SCORE.INTRA.DIHEDRAL>
-7.19383

>  <SCORE.INTRA.DIHEDRAL.0>
19.2558

>  <SCORE.INTRA.POLAR>
0

>  <SCORE.INTRA.POLAR.0>
0

>  <SCORE.INTRA.REPUL>
0

>  <SCORE.INTRA.REPUL.0>
0

>  <SCORE.INTRA.SOLV>
-1.58224

>  <SCORE.INTRA.SOLV.lig_0>
-64.5929

>  <SCORE.INTRA.VDW>
1.56885

>  <SCORE.INTRA.VDW.0>
-4.40538

>  <SCORE.INTRA.norm>
-0.0909416

>  <SCORE.RESTR>
0

>  <SCORE.RESTR.CAVITY>
0

>  <SCORE.RESTR.norm>
0

>  <SCORE.SYSTEM>
0

>  <SCORE.SYSTEM.CONST>
0

>  <SCORE.SYSTEM.DIHEDRAL>
0

>  <SCORE.SYSTEM.SOLV>
0

>  <SCORE.SYSTEM.norm>
0

>  <SCORE.heavy>
31

>  <SCORE.norm>
-0.623133

>  <RMSD>
0.768

$$$$
ligand
 OpenBabel11021811493D
libRbt.so/2013.1/901 2013/11/27
 31 33  0  0  0  0  0  0  0  0999 V2000
  -19.0634  -15.7174  -12.7722 C   0  0  2  0  0  0  0  0  0  0  0  0
  -19.6730  -16.1789  -13.9688 O   0  0  0  0  0  0  0  0  0  0  0  0
  -23.4948  -15.9649  -15.8457 C   0  0  2  0  0  0  0  0  0  0  0  0
  -24.9068  -16.0708  -16.0262 N   0  0  0  0  0  0  0  0  0  0  0  0
  -25.0419  -13.1843  -14.7521 C   0  0  2  0  0  0  0  0  0  0  0  0
  -17.5347  -15.4587  -13.1017 C   0  0  2  0  0  0  0  0  0  0  0  0
  -17.4328  -14.4627  -14.1784 N   0  0  0  0  0  0  0  0  0  0  0  0
  -22.9266  -17.4036  -15.4753 C   0  0  0  0  0  0  0  0  0  0  0  0
  -25.4768  -12.4100  -16.0403 C   0  0  2  0  0  0  0  0  0  0  0  0
  -25.3581  -13.2858  -17.1365 O   0  0  0  0  0  0  0  0  0  0  0  0
  -16.8411  -16.8153  -13.5202 C   0  0  0  0  0  0  0  0  0  0  0  0
  -21.3477  -17.2884  -15.2799 C   0  0  2  0  0  0  0  0  0  0  0  0
  -20.7975  -18.6183  -14.9396 N   0  0  0  0  0  0  0  0  0  0  0  0
  -24.5560  -11.1321  -16.2202 C   0  0  1  0  0  0  0  0  0  0  0  0
  -24.9578  -10.3745  -17.4591 N   0  0  0  0  0  0  0  0  0  0  0  0
  -17.3308  -18.0413  -12.6430 C   0  0  0  0  0  0  0  0  0  0  0  0
  -21.0477  -16.2679  -14.1061 C   0  0  2  0  0  0  0  0  0  0  0  0
  -24.7336  -10.1615  -14.9265 C   0  0  1  0  0  0  0  0  0  0  0  0
  -26.0575   -9.6966  -14.7577 O   0  0  0  0  0  0  0  0  0  0  0  0
  -18.4050  -17.9320  -11.8289 C   0  0  2  0  0  0  0  0  0  0  0  0
  -19.1568  -16.7200  -11.7064 O   0  0  0  0  0  0  0  0  0  0  0  0
  -21.6369  -14.8470  -14.4824 C   0  0  2  0  0  0  0  0  0  0  0  0
  -21.3701  -13.9289  -13.4091 O   0  0  0  0  0  0  0  0  0  0  0  0
  -24.3217  -10.9589  -13.6445 C   0  0  0  0  0  0  0  0  0  0  0  0
  -25.1189  -12.2586  -13.5517 O   0  0  0  0  0  0  0  0  0  0  0  0
  -18.9045  -19.0910  -10.9674 C   0  0  0  0  0  0  0  0  0  0  0  0
  -19.0263  -18.6196   -9.6164 O   0  0  0  0  0  0  0  0  0  0  0  0
  -23.2012  -14.9561  -14.6777 C   0  0  1  0  0  0  0  0  0  0  0  0
  -23.6876  -13.6711  -15.0251 O   0  0  0  0  0  0  0  0  0  0  0  0
  -23.8755   -8.8787  -14.9611 C   0  0  0  0  0  0  0  0  0  0  0  0
  -24.2611  -10.7421  -18.7086 C   0  0  0  0  0  0  0  0  0  0  0  0
  1  2  1  6  0  0  0
  1  6  1  0  0  0  0
  1 21  1  0  0  0  0
  3  4  1  1  0  0  0
  3  8  1  0  0  0  0
  3 28  1  0  0  0  0
  5  9  1  0  0  0  0
  5 25  1  0  0  0  0
  5 29  1  6  0  0  0
  6  7  1  6  0  0  0
  6 11  1  0  0  0  0
  8 12  1  0  0  0  0
  9 10  1  6  0  0  0
  9 14  1  0  0  0  0
 11 16  1  0  0  0  0
 12 13  1  1  0  0  0
 12 17  1  0  0  0  0
 14 15  1  6  0  0  0
 14 18  1  0  0  0  0
 15 31  1  0  0  0  0
 16 20  1  0  0  0  0
 17  2  1  6  0  0  0
 17 22  1  0  0  0  0
 18 19  1  1  0  0  0
 18 24  1  0  0  0  0
 18 30  1  0  0  0  0
 20 21  1  0  0  0  0
 20 26  1  1  0  0  0
 22 23  1  1  0  0  0
 22 28  1  0  0  0  0
 24 25  1  0  0  0  0
 26 27  1  0  0  0  0
 28 29  1  6  0  0  0
M  END
>  <CHROM.1>
-167.91369309,-138.60785038,-91.12734519,-159.04815198,128.03615380,89.01405232
-22.00062023,-14.53022670,-14.35841633,-0.63963887,-0.59760888,0.14751775

>  <Name>
ligand

>  <RI>
0

>  <Rbt.Current_Directory>
/home/itssahil/PROJECTS/Mol_Feturizer/New_Systems/rnas/4GPW

>  <Rbt.Executable>
rbdock ($Id: //depot/dev/client3/rdock/2013.1/src/exe/rbdock.cxx#4 $)

>  <Rbt.Library>
libRbt.so (2013.1, Build901 2013/11/27)

>  <Rbt.Parameter_File>
/export/apps/rDock/src/rDock_2013.1_src/data/scripts/dock_solv.prm

>  <Rbt.Receptor>
prm/pocket_docking_3.prm

>  <SCORE>
-18.9426

>  <SCORE.INTER>
-16.5172

>  <SCORE.INTER.CONST>
1

>  <SCORE.INTER.POLAR>
0

>  <SCORE.INTER.ROT>
6

>  <SCORE.INTER.SOLV>
16.8679

>  <SCORE.INTER.VDW>
-24.2341

>  <SCORE.INTER.norm>
-0.532812

>  <SCORE.INTRA>
-2.42538

>  <SCORE.INTRA.DIHEDRAL>
-5.15992

>  <SCORE.INTRA.DIHEDRAL.0>
19.2558

>  <SCORE.INTRA.POLAR>
0

>  <SCORE.INTRA.POLAR.0>
0

>  <SCORE.INTRA.REPUL>
0

>  <SCORE.INTRA.REPUL.0>
0

>  <SCORE.INTRA.SOLV>
-0.776532

>  <SCORE.INTRA.SOLV.lig_0>
-64.5929

>  <SCORE.INTRA.VDW>
0.542851

>  <SCORE.INTRA.VDW.0>
-4.40538

>  <SCORE.INTRA.norm>
-0.0782379

>  <SCORE.RESTR>
0

>  <SCORE.RESTR.CAVITY>
0

>  <SCORE.RESTR.norm>
0

>  <SCORE.SYSTEM>
0

>  <SCORE.SYSTEM.CONST>
0

>  <SCORE.SYSTEM.DIHEDRAL>
0

>  <SCORE.SYSTEM.SOLV>
0

>  <SCORE.SYSTEM.norm>
0

>  <SCORE.heavy>
31

>  <SCORE.norm>
-0.61105

>  <RMSD>
0.775

$$$$
ligand
 OpenBabel11021811493D
libRbt.so/2013.1/901 2013/11/27
 31 33  0  0  0  0  0  0  0  0999 V2000
  -19.2114  -15.6063  -12.9167 C   0  0  2  0  0  0  0  0  0  0  0  0
  -19.8094  -16.3082  -13.9966 O   0  0  0  0  0  0  0  0  0  0  0  0
  -23.6303  -16.4156  -15.8846 C   0  0  2  0  0  0  0  0  0  0  0  0
  -25.0402  -16.5661  -16.0482 N   0  0  0  0  0  0  0  0  0  0  0  0
  -25.1870  -13.4848  -15.1167 C   0  0  2  0  0  0  0  0  0  0  0  0
  -17.6703  -15.4596  -13.2569 C   0  0  2  0  0  0  0  0  0  0  0  0
  -17.5212  -14.7292  -14.5242 N   0  0  0  0  0  0  0  0  0  0  0  0
  -23.0424  -17.7795  -15.3152 C   0  0  0  0  0  0  0  0  0  0  0  0
  -25.5092  -12.5341  -16.3169 C   0  0  2  0  0  0  0  0  0  0  0  0
  -25.3988  -13.2801  -17.5060 O   0  0  0  0  0  0  0  0  0  0  0  0
  -17.0045  -16.8897  -13.3481 C   0  0  0  0  0  0  0  0  0  0  0  0
  -21.4657  -17.6152  -15.1381 C   0  0  2  0  0  0  0  0  0  0  0  0
  -20.8973  -18.8760  -14.6139 N   0  0  0  0  0  0  0  0  0  0  0  0
  -24.4976  -11.3135  -16.3053 C   0  0  1  0  0  0  0  0  0  0  0  0
  -24.7901  -10.3875  -17.4575 N   0  0  0  0  0  0  0  0  0  0  0  0
  -17.5434  -17.8803  -12.2341 C   0  0  0  0  0  0  0  0  0  0  0  0
  -21.1824  -16.4354  -14.1198 C   0  0  2  0  0  0  0  0  0  0  0  0
  -24.6695  -10.4927  -14.9111 C   0  0  1  0  0  0  0  0  0  0  0  0
  -25.9657   -9.9570  -14.7373 O   0  0  0  0  0  0  0  0  0  0  0  0
  -18.6302  -17.5705  -11.4913 C   0  0  2  0  0  0  0  0  0  0  0  0
  -19.3521  -16.3458  -11.6584 O   0  0  0  0  0  0  0  0  0  0  0  0
  -21.7910  -15.0902  -14.6925 C   0  0  2  0  0  0  0  0  0  0  0  0
  -21.5394  -14.0264  -13.7594 O   0  0  0  0  0  0  0  0  0  0  0  0
  -24.3716  -11.4639  -13.7206 C   0  0  0  0  0  0  0  0  0  0  0  0
  -25.2573  -12.7047  -13.8166 O   0  0  0  0  0  0  0  0  0  0  0  0
  -19.1767  -18.4991  -10.4078 C   0  0  0  0  0  0  0  0  0  0  0  0
  -18.4691  -19.7458  -10.4933 O   0  0  0  0  0  0  0  0  0  0  0  0
  -23.3532  -15.2482  -14.8704 C   0  0  1  0  0  0  0  0  0  0  0  0
  -23.8572  -14.0320  -15.3953 O   0  0  0  0  0  0  0  0  0  0  0  0
  -23.7268   -9.2800  -14.7572 C   0  0  0  0  0  0  0  0  0  0  0  0
  -23.9851  -10.5855  -18.6799 C   0  0  0  0  0  0  0  0  0  0  0  0
  1  2  1  6  0  0  0
  1  6  1  0  0  0  0
  1 21  1  0  0  0  0
  3  4  1  1  0  0  0
  3  8  1  0  0  0  0
  3 28  1  0  0  0  0
  5  9  1  0  0  0  0
  5 25  1  0  0  0  0
  5 29  1  6  0  0  0
  6  7  1  6  0  0  0
  6 11  1  0  0  0  0
  8 12  1  0  0  0  0
  9 10  1  6  0  0  0
  9 14  1  0  0  0  0
 11 16  1  0  0  0  0
 12 13  1  1  0  0  0
 12 17  1  0  0  0  0
 14 15  1  6  0  0  0
 14 18  1  0  0  0  0
 15 31  1  0  0  0  0
 16 20  1  0  0  0  0
 17  2  1  6  0  0  0
 17 22  1  0  0  0  0
 18 19  1  1  0  0  0
 18 24  1  0  0  0  0
 18 30  1  0  0  0  0
 20 21  1  0  0  0  0
 20 26  1  1  0  0  0
 22 23  1  1  0  0  0
 22 28  1  0  0  0  0
 24 25  1  0  0  0  0
 26 27  1  0  0  0  0
 28 29  1  6  0  0  0
M  END
>  <CHROM.1>
-170.19267892,-156.69579354,-95.85346063,-162.78954686,-8.14436301,93.55518970
-22.06170288,-14.70914004,-14.42171769,-0.69983144,-0.53930909,0.01961390

>  <Name>
ligand

>  <RI>
0

>  <Rbt.Current_Directory>
/home/itssahil/PROJECTS/Mol_Feturizer/New_Systems/rnas/4GPW

>  <Rbt.Executable>
rbdock ($Id: //depot/dev/client3/rdock/2013.1/src/exe/rbdock.cxx#4 $)

>  <Rbt.Library>
libRbt.so (2013.1, Build901 2013/11/27)

>  <Rbt.Parameter_File>
/export/apps/rDock/src/rDock_2013.1_src/data/scripts/dock_solv.prm

>  <Rbt.Receptor>
prm/pocket_docking_2.prm

>  <SCORE>
-19.3607

>  <SCORE.INTER>
-15.9968

>  <SCORE.INTER.CONST>
1

>  <SCORE.INTER.POLAR>
0

>  <SCORE.INTER.ROT>
6

>  <SCORE.INTER.SOLV>
16.6073

>  <SCORE.INTER.VDW>
-23.8003

>  <SCORE.INTER.norm>
-0.516026

>  <SCORE.INTRA>
-3.36386

>  <SCORE.INTRA.DIHEDRAL>
-8.24401

>  <SCORE.INTRA.DIHEDRAL.0>
19.2558

>  <SCORE.INTRA.POLAR>
0

>  <SCORE.INTRA.POLAR.0>
0

>  <SCORE.INTRA.REPUL>
0

>  <SCORE.INTRA.REPUL.0>
0

>  <SCORE.INTRA.SOLV>
-1.75438

>  <SCORE.INTRA.SOLV.lig_0>
-64.5929

>  <SCORE.INTRA.VDW>
1.63534

>  <SCORE.INTRA.VDW.0>
-4.40538

>  <SCORE.INTRA.norm>
-0.108512

>  <SCORE.RESTR>
0

>  <SCORE.RESTR.CAVITY>
0

>  <SCORE.RESTR.norm>
0

>  <SCORE.SYSTEM>
0

>  <SCORE.SYSTEM.CONST>
0

>  <SCORE.SYSTEM.DIHEDRAL>
0

>  <SCORE.SYSTEM.SOLV>
0

>  <SCORE.SYSTEM.norm>
0

>  <SCORE.heavy>
31

>  <SCORE.norm>
-0.624537

>  <RMSD>
0.800

$$$$
ligand
 OpenBabel11021811493D
libRbt.so/2013.1/901 2013/11/27
 31 33  0  0  0  0  0  0  0  0999 V2000
  -19.1144  -15.5439  -12.8930 C   0  0  2  0  0  0  0  0  0  0  0  0
  -19.7155  -16.2085  -13.9946 O   0  0  0  0  0  0  0  0  0  0  0  0
  -23.5552  -16.4161  -15.8353 C   0  0  2  0  0  0  0  0  0  0  0  0
  -24.9638  -16.5959  -15.9800 N   0  0  0  0  0  0  0  0  0  0  0  0
  -25.1481  -13.4897  -15.0673 C   0  0  2  0  0  0  0  0  0  0  0  0
  -17.5636  -15.4413  -13.2046 C   0  0  2  0  0  0  0  0  0  0  0  0
  -17.3693  -14.6954  -14.4566 N   0  0  0  0  0  0  0  0  0  0  0  0
  -22.9345  -17.7602  -15.2538 C   0  0  0  0  0  0  0  0  0  0  0  0
  -25.5164  -12.5653  -16.2748 C   0  0  2  0  0  0  0  0  0  0  0  0
  -25.4360  -13.3333  -17.4523 O   0  0  0  0  0  0  0  0  0  0  0  0
  -16.9423  -16.8903  -13.3086 C   0  0  0  0  0  0  0  0  0  0  0  0
  -21.3593  -17.5632  -15.0979 C   0  0  2  0  0  0  0  0  0  0  0  0
  -20.7606  -18.8052  -14.5628 N   0  0  0  0  0  0  0  0  0  0  0  0
  -24.5164  -11.3359  -16.3181 C   0  0  1  0  0  0  0  0  0  0  0  0
  -24.8534  -10.4350  -17.4780 N   0  0  0  0  0  0  0  0  0  0  0  0
  -17.5318  -17.8811  -12.2208 C   0  0  0  0  0  0  0  0  0  0  0  0
  -21.0871  -16.3637  -14.0997 C   0  0  2  0  0  0  0  0  0  0  0  0
  -24.6527  -10.4898  -14.9351 C   0  0  1  0  0  0  0  0  0  0  0  0
  -25.9478   -9.9623  -14.7311 O   0  0  0  0  0  0  0  0  0  0  0  0
  -18.6209  -17.5488  -11.4914 C   0  0  2  0  0  0  0  0  0  0  0  0
  -19.3004  -16.2990  -11.6500 O   0  0  0  0  0  0  0  0  0  0  0  0
  -21.7282  -15.0388  -14.6839 C   0  0  2  0  0  0  0  0  0  0  0  0
  -21.4864  -13.9571  -13.7688 O   0  0  0  0  0  0  0  0  0  0  0  0
  -24.3087  -11.4351  -13.7362 C   0  0  0  0  0  0  0  0  0  0  0  0
  -25.1853  -12.6853  -13.7808 O   0  0  0  0  0  0  0  0  0  0  0  0
  -19.2155  -18.4769  -10.4331 C   0  0  0  0  0  0  0  0  0  0  0  0
  -18.7215  -19.8029  -10.6775 O   0  0  0  0  0  0  0  0  0  0  0  0
  -23.2890  -15.2292  -14.8409 C   0  0  1  0  0  0  0  0  0  0  0  0
  -23.8225  -14.0305  -15.3768 O   0  0  0  0  0  0  0  0  0  0  0  0
  -23.7171   -9.2661  -14.8339 C   0  0  0  0  0  0  0  0  0  0  0  0
  -24.1071  -10.6703  -18.7307 C   0  0  0  0  0  0  0  0  0  0  0  0
  1  2  1  6  0  0  0
  1  6  1  0  0  0  0
  1 21  1  0  0  0  0
  3  4  1  1  0  0  0
  3  8  1  0  0  0  0
  3 28  1  0  0  0  0
  5  9  1  0  0  0  0
  5 25  1  0  0  0  0
  5 29  1  6  0  0  0
  6  7  1  6  0  0  0
  6 11  1  0  0  0  0
  8 12  1  0  0  0  0
  9 10  1  6  0  0  0
  9 14  1  0  0  0  0
 11 16  1  0  0  0  0
 12 13  1  1  0  0  0
 12 17  1  0  0  0  0
 14 15  1  6  0  0  0
 14 18  1  0  0  0  0
 15 31  1  0  0  0  0
 16 20  1  0  0  0  0
 17  2  1  6  0  0  0
 17 22  1  0  0  0  0
 18 19  1  1  0  0  0
 18 24  1  0  0  0  0
 18 30  1  0  0  0  0
 20 21  1  0  0  0  0
 20 26  1  1  0  0  0
 22 23  1  1  0  0  0
 22 28  1  0  0  0  0
 24 25  1  0  0  0  0
 26 27  1  0  0  0  0
 28 29  1  6  0  0  0
M  END
>  <CHROM.1>
-174.39712734,-156.94707231,-94.47337377,-159.22047669,-18.12675674,94.97201282
-22.02901311,-14.69697064,-14.41262942,-0.70566707,-0.52092325,0.00079976

>  <Name>
ligand

>  <RI>
0

>  <Rbt.Current_Directory>
/home/itssahil/PROJECTS/Mol_Feturizer/New_Systems/rnas/4GPW

>  <Rbt.Executable>
rbdock ($Id: //depot/dev/client3/rdock/2013.1/src/exe/rbdock.cxx#4 $)

>  <Rbt.Library>
libRbt.so (2013.1, Build901 2013/11/27)

>  <Rbt.Parameter_File>
/export/apps/rDock/src/rDock_2013.1_src/data/scripts/dock_solv.prm

>  <Rbt.Receptor>
prm/pocket_docking_5.prm

>  <SCORE>
-19.3832

>  <SCORE.INTER>
-16.266

>  <SCORE.INTER.CONST>
1

>  <SCORE.INTER.POLAR>
0

>  <SCORE.INTER.ROT>
6

>  <SCORE.INTER.SOLV>
16.2493

>  <SCORE.INTER.VDW>
-23.8604

>  <SCORE.INTER.norm>
-0.524708

>  <SCORE.INTRA>
-3.11728

>  <SCORE.INTRA.DIHEDRAL>
-7.50263

>  <SCORE.INTRA.DIHEDRAL.0>
19.2558

>  <SCORE.INTRA.POLAR>
0

>  <SCORE.INTRA.POLAR.0>
0

>  <SCORE.INTRA.REPUL>
0

>  <SCORE.INTRA.REPUL.0>
0

>  <SCORE.INTRA.SOLV>
-1.52591

>  <SCORE.INTRA.SOLV.lig_0>
-64.5929

>  <SCORE.INTRA.VDW>
1.39699

>  <SCORE.INTRA.VDW.0>
-4.40538

>  <SCORE.INTRA.norm>
-0.100558

>  <SCORE.RESTR>
0

>  <SCORE.RESTR.CAVITY>
0

>  <SCORE.RESTR.norm>
0

>  <SCORE.SYSTEM>
0

>  <SCORE.SYSTEM.CONST>
0

>  <SCORE.SYSTEM.DIHEDRAL>
0

>  <SCORE.SYSTEM.SOLV>
0

>  <SCORE.SYSTEM.norm>
0

>  <SCORE.heavy>
31

>  <SCORE.norm>
-0.625266

>  <RMSD>
0.803

$$$$
ligand
 OpenBabel11021811493D
libRbt.so/2013.1/901 2013/11/27
 31 33  0  0  0  0  0  0  0  0999 V2000
  -19.1963  -15.6054  -12.7979 C   0  0  2  0  0  0  0  0  0  0  0  0
  -19.7785  -16.2469  -13.9232 O   0  0  0  0  0  0  0  0  0  0  0  0
  -23.5850  -16.5051  -15.8255 C   0  0  2  0  0  0  0  0  0  0  0  0
  -24.9900  -16.6941  -15.9912 N   0  0  0  0  0  0  0  0  0  0  0  0
  -25.1904  -13.5547  -15.1110 C   0  0  2  0  0  0  0  0  0  0  0  0
  -17.6489  -15.4494  -13.1035 C   0  0  2  0  0  0  0  0  0  0  0  0
  -17.4745  -14.6547  -14.3282 N   0  0  0  0  0  0  0  0  0  0  0  0
  -22.9684  -17.8358  -15.2097 C   0  0  0  0  0  0  0  0  0  0  0  0
  -25.5431  -12.6301  -16.3230 C   0  0  2  0  0  0  0  0  0  0  0  0
  -25.4684  -13.4032  -17.4975 O   0  0  0  0  0  0  0  0  0  0  0  0
  -16.9879  -16.8763  -13.2577 C   0  0  0  0  0  0  0  0  0  0  0  0
  -21.3971  -17.6287  -15.0302 C   0  0  2  0  0  0  0  0  0  0  0  0
  -20.8022  -18.8582  -14.4629 N   0  0  0  0  0  0  0  0  0  0  0  0
  -24.5277  -11.4135  -16.3673 C   0  0  1  0  0  0  0  0  0  0  0  0
  -24.8495  -10.5125  -17.5315 N   0  0  0  0  0  0  0  0  0  0  0  0
  -17.5505  -17.9207  -12.2064 C   0  0  0  0  0  0  0  0  0  0  0  0
  -21.1474  -16.4104  -14.0490 C   0  0  2  0  0  0  0  0  0  0  0  0
  -24.6579  -10.5608  -14.9877 C   0  0  1  0  0  0  0  0  0  0  0  0
  -25.9470  -10.0164  -14.7899 O   0  0  0  0  0  0  0  0  0  0  0  0
  -18.6487  -17.6443  -11.4673 C   0  0  2  0  0  0  0  0  0  0  0  0
  -19.3622  -16.4088  -11.5826 O   0  0  0  0  0  0  0  0  0  0  0  0
  -21.7841  -15.0991  -14.6676 C   0  0  2  0  0  0  0  0  0  0  0  0
  -21.5629  -14.0003  -13.7680 O   0  0  0  0  0  0  0  0  0  0  0  0
  -24.3297  -11.5060  -13.7844 C   0  0  0  0  0  0  0  0  0  0  0  0
  -25.2217  -12.7453  -13.8275 O   0  0  0  0  0  0  0  0  0  0  0  0
  -19.2181  -18.6252  -10.4433 C   0  0  0  0  0  0  0  0  0  0  0  0
  -18.5638  -19.8900  -10.6285 O   0  0  0  0  0  0  0  0  0  0  0  0
  -23.3412  -15.2996  -14.8480 C   0  0  1  0  0  0  0  0  0  0  0  0
  -23.8706  -14.1132  -15.4143 O   0  0  0  0  0  0  0  0  0  0  0  0
  -23.7074   -9.3485  -14.8878 C   0  0  0  0  0  0  0  0  0  0  0  0
  -24.0245  -10.6865  -18.7443 C   0  0  0  0  0  0  0  0  0  0  0  0
  1  2  1  6  0  0  0
  1  6  1  0  0  0  0
  1 21  1  0  0  0  0
  3  4  1  1  0  0  0
  3  8  1  0  0  0  0
  3 28  1  0  0  0  0
  5  9  1  0  0  0  0
  5 25  1  0  0  0  0
  5 29  1  6  0  0  0
  6  7  1  6  0  0  0
  6 11  1  0  0  0  0
  8 12  1  0  0  0  0
  9 10  1  6  0  0  0
  9 14  1  0  0  0  0
 11 16  1  0  0  0  0
 12 13  1  1  0  0  0
 12 17  1  0  0  0  0
 14 15  1  6  0  0  0
 14 18  1  0  0  0  0
 15 31  1  0  0  0  0
 16 20  1  0  0  0  0
 17  2  1  6  0  0  0
 17 22  1  0  0  0  0
 18 19  1  1  0  0  0
 18 24  1  0  0  0  0
 18 30  1  0  0  0  0
 20 21  1  0  0  0  0
 20 26  1  1  0  0  0
 22 23  1  1  0  0  0
 22 28  1  0  0  0  0
 24 25  1  0  0  0  0
 26 27  1  0  0  0  0
 28 29  1  6  0  0  0
M  END
>  <CHROM.1>
-172.98899149,-158.53792477,-99.40964712,-156.74015046,-11.12308732,96.62737386
-22.05624278,-14.75922243,-14.40311020,-0.71291213,-0.52259618,-0.01825583

>  <Name>
ligand

>  <RI>
0

>  <Rbt.Current_Directory>
/home/itssahil/PROJECTS/Mol_Feturizer/New_Systems/rnas/4GPW

>  <Rbt.Executable>
rbdock ($Id: //depot/dev/client3/rdock/2013.1/src/exe/rbdock.cxx#4 $)

>  <Rbt.Library>
libRbt.so (2013.1, Build901 2013/11/27)

>  <Rbt.Parameter_File>
/export/apps/rDock/src/rDock_2013.1_src/data/scripts/dock_solv.prm

>  <Rbt.Receptor>
prm/pocket_docking_6.prm

>  <SCORE>
-19.2671

>  <SCORE.INTER>
-16.3957

>  <SCORE.INTER.CONST>
1

>  <SCORE.INTER.POLAR>
0

>  <SCORE.INTER.ROT>
6

>  <SCORE.INTER.SOLV>
16.4605

>  <SCORE.INTER.VDW>
-24.0173

>  <SCORE.INTER.norm>
-0.528894

>  <SCORE.INTRA>
-2.87137

>  <SCORE.INTRA.DIHEDRAL>
-7.06725

>  <SCORE.INTRA.DIHEDRAL.0>
19.2558

>  <SCORE.INTRA.POLAR>
0

>  <SCORE.INTRA.POLAR.0>
0

>  <SCORE.INTRA.REPUL>
0

>  <SCORE.INTRA.REPUL.0>
0

>  <SCORE.INTRA.SOLV>
-1.37163

>  <SCORE.INTRA.SOLV.lig_0>
-64.5929

>  <SCORE.INTRA.VDW>
1.34807

>  <SCORE.INTRA.VDW.0>
-4.40538

>  <SCORE.INTRA.norm>
-0.092625

>  <SCORE.RESTR>
0

>  <SCORE.RESTR.CAVITY>
0

>  <SCORE.RESTR.norm>
0

>  <SCORE.SYSTEM>
0

>  <SCORE.SYSTEM.CONST>
0

>  <SCORE.SYSTEM.DIHEDRAL>
0

>  <SCORE.SYSTEM.SOLV>
0

>  <SCORE.SYSTEM.norm>
0

>  <SCORE.heavy>
31

>  <SCORE.norm>
-0.621519

>  <RMSD>
0.803

$$$$
ligand
 OpenBabel11021811493D
libRbt.so/2013.1/901 2013/11/27
 31 33  0  0  0  0  0  0  0  0999 V2000
  -19.1669  -15.5807  -12.8179 C   0  0  2  0  0  0  0  0  0  0  0  0
  -19.7542  -16.2364  -13.9322 O   0  0  0  0  0  0  0  0  0  0  0  0
  -23.5671  -16.3869  -15.8332 C   0  0  2  0  0  0  0  0  0  0  0  0
  -24.9743  -16.5559  -16.0023 N   0  0  0  0  0  0  0  0  0  0  0  0
  -25.1571  -13.4689  -15.0352 C   0  0  2  0  0  0  0  0  0  0  0  0
  -17.6188  -15.4392  -13.1273 C   0  0  2  0  0  0  0  0  0  0  0  0
  -17.4407  -14.6654  -14.3647 N   0  0  0  0  0  0  0  0  0  0  0  0
  -22.9622  -17.7454  -15.2689 C   0  0  0  0  0  0  0  0  0  0  0  0
  -25.5330  -12.5790  -16.2660 C   0  0  2  0  0  0  0  0  0  0  0  0
  -25.4494  -13.3771  -17.4231 O   0  0  0  0  0  0  0  0  0  0  0  0
  -16.9670  -16.8725  -13.2591 C   0  0  0  0  0  0  0  0  0  0  0  0
  -21.3886  -17.5603  -15.0858 C   0  0  2  0  0  0  0  0  0  0  0  0
  -20.8045  -18.8158  -14.5661 N   0  0  0  0  0  0  0  0  0  0  0  0
  -24.5411  -11.3448  -16.3433 C   0  0  1  0  0  0  0  0  0  0  0  0
  -24.8855  -10.4769  -17.5259 N   0  0  0  0  0  0  0  0  0  0  0  0
  -17.5350  -17.8964  -12.1908 C   0  0  0  0  0  0  0  0  0  0  0  0
  -21.1249  -16.3819  -14.0605 C   0  0  2  0  0  0  0  0  0  0  0  0
  -24.6808  -10.4634  -14.9828 C   0  0  1  0  0  0  0  0  0  0  0  0
  -25.9790   -9.9391  -14.7907 O   0  0  0  0  0  0  0  0  0  0  0  0
  -18.6307  -17.6013  -11.4552 C   0  0  2  0  0  0  0  0  0  0  0  0
  -19.3366  -16.3633  -11.5897 O   0  0  0  0  0  0  0  0  0  0  0  0
  -21.7501  -15.0424  -14.6284 C   0  0  2  0  0  0  0  0  0  0  0  0
  -21.5163  -13.9800  -13.6890 O   0  0  0  0  0  0  0  0  0  0  0  0
  -24.3291  -11.3746  -13.7600 C   0  0  0  0  0  0  0  0  0  0  0  0
  -25.1976  -12.6312  -13.7703 O   0  0  0  0  0  0  0  0  0  0  0  0
  -19.2052  -18.5621  -10.4151 C   0  0  0  0  0  0  0  0  0  0  0  0
  -18.3695  -19.7293  -10.3794 O   0  0  0  0  0  0  0  0  0  0  0  0
  -23.3094  -15.2209  -14.8122 C   0  0  1  0  0  0  0  0  0  0  0  0
  -23.8285  -14.0092  -15.3326 O   0  0  0  0  0  0  0  0  0  0  0  0
  -23.7530   -9.2315  -14.9154 C   0  0  0  0  0  0  0  0  0  0  0  0
  -24.0758  -10.6765  -18.7450 C   0  0  0  0  0  0  0  0  0  0  0  0
  1  2  1  6  0  0  0
  1  6  1  0  0  0  0
  1 21  1  0  0  0  0
  3  4  1  1  0  0  0
  3  8  1  0  0  0  0
  3 28  1  0  0  0  0
  5  9  1  0  0  0  0
  5 25  1  0  0  0  0
  5 29  1  6  0  0  0
  6  7  1  6  0  0  0
  6 11  1  0  0  0  0
  8 12  1  0  0  0  0
  9 10  1  6  0  0  0
  9 14  1  0  0  0  0
 11 16  1  0  0  0  0
 12 13  1  1  0  0  0
 12 17  1  0  0  0  0
 14 15  1  6  0  0  0
 14 18  1  0  0  0  0
 15 31  1  0  0  0  0
 16 20  1  0  0  0  0
 17  2  1  6  0  0  0
 17 22  1  0  0  0  0
 18 19  1  1  0  0  0
 18 24  1  0  0  0  0
 18 30  1  0  0  0  0
 20 21  1  0  0  0  0
 20 26  1  1  0  0  0
 22 23  1  1  0  0  0
 22 28  1  0  0  0  0
 24 25  1  0  0  0  0
 26 27  1  0  0  0  0
 28 29  1  6  0  0  0
M  END
>  <CHROM.1>
-172.34724885,-153.98413879,-98.56336463,-160.09057088,1.29920451,94.79048497
-22.03892779,-14.69656231,-14.38551295,-0.69320583,-0.54291328,0.01530963

>  <Name>
ligand

>  <RI>
0

>  <Rbt.Current_Directory>
/home/itssahil/PROJECTS/Mol_Feturizer/New_Systems/rnas/4GPW

>  <Rbt.Executable>
rbdock ($Id: //depot/dev/client3/rdock/2013.1/src/exe/rbdock.cxx#4 $)

>  <Rbt.Library>
libRbt.so (2013.1, Build901 2013/11/27)

>  <Rbt.Parameter_File>
/export/apps/rDock/src/rDock_2013.1_src/data/scripts/dock_solv.prm

>  <Rbt.Receptor>
prm/pocket_docking_3.prm

>  <SCORE>
-19.3838

>  <SCORE.INTER>
-16.5468

>  <SCORE.INTER.CONST>
1

>  <SCORE.INTER.POLAR>
0

>  <SCORE.INTER.ROT>
6

>  <SCORE.INTER.SOLV>
16.8897

>  <SCORE.INTER.VDW>
-24.2611

>  <SCORE.INTER.norm>
-0.533767

>  <SCORE.INTRA>
-2.83698

>  <SCORE.INTRA.DIHEDRAL>
-7.29139

>  <SCORE.INTRA.DIHEDRAL.0>
19.2558

>  <SCORE.INTRA.POLAR>
0

>  <SCORE.INTRA.POLAR.0>
0

>  <SCORE.INTRA.REPUL>
0

>  <SCORE.INTRA.REPUL.0>
0

>  <SCORE.INTRA.SOLV>
-1.47788

>  <SCORE.INTRA.SOLV.lig_0>
-64.5929

>  <SCORE.INTRA.VDW>
1.54765

>  <SCORE.INTRA.VDW.0>
-4.40538

>  <SCORE.INTRA.norm>
-0.0915155

>  <SCORE.RESTR>
0

>  <SCORE.RESTR.CAVITY>
0

>  <SCORE.RESTR.norm>
0

>  <SCORE.SYSTEM>
0

>  <SCORE.SYSTEM.CONST>
0

>  <SCORE.SYSTEM.DIHEDRAL>
0

>  <SCORE.SYSTEM.SOLV>
0

>  <SCORE.SYSTEM.norm>
0

>  <SCORE.heavy>
31

>  <SCORE.norm>
-0.625282

>  <RMSD>
0.807

$$$$
ligand
 OpenBabel11021811493D
libRbt.so/2013.1/901 2013/11/27
 31 33  0  0  0  0  0  0  0  0999 V2000
  -19.0896  -15.8293  -12.8232 C   0  0  2  0  0  0  0  0  0  0  0  0
  -19.7243  -16.2841  -14.0094 O   0  0  0  0  0  0  0  0  0  0  0  0
  -23.5446  -15.7747  -15.8317 C   0  0  2  0  0  0  0  0  0  0  0  0
  -24.9604  -15.8119  -16.0086 N   0  0  0  0  0  0  0  0  0  0  0  0
  -24.9979  -13.0522  -14.5684 C   0  0  2  0  0  0  0  0  0  0  0  0
  -17.5423  -15.7065  -13.1443 C   0  0  2  0  0  0  0  0  0  0  0  0
  -17.3513  -14.7623  -14.2550 N   0  0  0  0  0  0  0  0  0  0  0  0
  -23.0303  -17.2591  -15.5826 C   0  0  0  0  0  0  0  0  0  0  0  0
  -25.4363  -12.3228  -15.8815 C   0  0  2  0  0  0  0  0  0  0  0  0
  -25.3210  -13.2361  -16.9470 O   0  0  0  0  0  0  0  0  0  0  0  0
  -16.9569  -17.1289  -13.5057 C   0  0  0  0  0  0  0  0  0  0  0  0
  -21.4472  -17.2201  -15.3914 C   0  0  2  0  0  0  0  0  0  0  0  0
  -20.9470  -18.5931  -15.1634 N   0  0  0  0  0  0  0  0  0  0  0  0
  -24.5156  -11.0523  -16.1080 C   0  0  1  0  0  0  0  0  0  0  0  0
  -24.9208  -10.3379  -17.3713 N   0  0  0  0  0  0  0  0  0  0  0  0
  -17.5513  -18.2785  -12.5905 C   0  0  0  0  0  0  0  0  0  0  0  0
  -21.1021  -16.3095  -14.1421 C   0  0  2  0  0  0  0  0  0  0  0  0
  -24.6894  -10.0374  -14.8482 C   0  0  1  0  0  0  0  0  0  0  0  0
  -26.0126   -9.5664  -14.6919 O   0  0  0  0  0  0  0  0  0  0  0  0
  -18.6201  -18.0533  -11.7932 C   0  0  2  0  0  0  0  0  0  0  0  0
  -19.2727  -16.7813  -11.7232 O   0  0  0  0  0  0  0  0  0  0  0  0
  -21.6379  -14.8415  -14.3984 C   0  0  2  0  0  0  0  0  0  0  0  0
  -21.3305  -14.0236  -13.2572 O   0  0  0  0  0  0  0  0  0  0  0  0
  -24.2740  -10.7900  -13.5405 C   0  0  0  0  0  0  0  0  0  0  0  0
  -25.0712  -12.0855  -13.4006 O   0  0  0  0  0  0  0  0  0  0  0  0
  -19.2187  -19.1359  -10.8963 C   0  0  0  0  0  0  0  0  0  0  0  0
  -19.0827  -18.7078   -9.5323 O   0  0  0  0  0  0  0  0  0  0  0  0
  -23.2063  -14.8750  -14.5890 C   0  0  1  0  0  0  0  0  0  0  0  0
  -23.6446  -13.5487  -14.8283 O   0  0  0  0  0  0  0  0  0  0  0  0
  -23.8310   -8.7569  -14.9297 C   0  0  0  0  0  0  0  0  0  0  0  0
  -24.1747  -10.6939  -18.5954 C   0  0  0  0  0  0  0  0  0  0  0  0
  1  2  1  6  0  0  0
  1  6  1  0  0  0  0
  1 21  1  0  0  0  0
  3  4  1  1  0  0  0
  3  8  1  0  0  0  0
  3 28  1  0  0  0  0
  5  9  1  0  0  0  0
  5 25  1  0  0  0  0
  5 29  1  6  0  0  0
  6  7  1  6  0  0  0
  6 11  1  0  0  0  0
  8 12  1  0  0  0  0
  9 10  1  6  0  0  0
  9 14  1  0  0  0  0
 11 16  1  0  0  0  0
 12 13  1  1  0  0  0
 12 17  1  0  0  0  0
 14 15  1  6  0  0  0
 14 18  1  0  0  0  0
 15 31  1  0  0  0  0
 16 20  1  0  0  0  0
 17  2  1  6  0  0  0
 17 22  1  0  0  0  0
 18 19  1  1  0  0  0
 18 24  1  0  0  0  0
 18 30  1  0  0  0  0
 20 21  1  0  0  0  0
 20 26  1  1  0  0  0
 22 23  1  1  0  0  0
 22 28  1  0  0  0  0
 24 25  1  0  0  0  0
 26 27  1  0  0  0  0
 28 29  1  6  0  0  0
M  END
>  <CHROM.1>
-170.12643396,-130.32935048,-94.48894948,-164.81081177,117.36443011,85.76727063
-22.03048432,-14.52117403,-14.31185947,-0.62054831,-0.65181891,0.23479046

>  <Name>
ligand

>  <RI>
0

>  <Rbt.Current_Directory>
/home/itssahil/PROJECTS/Mol_Feturizer/New_Systems/rnas/4GPW

>  <Rbt.Executable>
rbdock ($Id: //depot/dev/client3/rdock/2013.1/src/exe/rbdock.cxx#4 $)

>  <Rbt.Library>
libRbt.so (2013.1, Build901 2013/11/27)

>  <Rbt.Parameter_File>
/export/apps/rDock/src/rDock_2013.1_src/data/scripts/dock_solv.prm

>  <Rbt.Receptor>
prm/pocket_docking_4.prm

>  <SCORE>
-18.838

>  <SCORE.INTER>
-16.1311

>  <SCORE.INTER.CONST>
1

>  <SCORE.INTER.POLAR>
0

>  <SCORE.INTER.ROT>
6

>  <SCORE.INTER.SOLV>
16.8537

>  <SCORE.INTER.VDW>
-23.972

>  <SCORE.INTER.norm>
-0.520359

>  <SCORE.INTRA>
-2.70683

>  <SCORE.INTRA.DIHEDRAL>
-5.77266

>  <SCORE.INTRA.DIHEDRAL.0>
19.2558

>  <SCORE.INTRA.POLAR>
0

>  <SCORE.INTRA.POLAR.0>
0

>  <SCORE.INTRA.REPUL>
0

>  <SCORE.INTRA.REPUL.0>
0

>  <SCORE.INTRA.SOLV>
-0.994566

>  <SCORE.INTRA.SOLV.lig_0>
-64.5929

>  <SCORE.INTRA.VDW>
0.676784

>  <SCORE.INTRA.VDW.0>
-4.40538

>  <SCORE.INTRA.norm>
-0.0873171

>  <SCORE.RESTR>
0

>  <SCORE.RESTR.CAVITY>
0

>  <SCORE.RESTR.norm>
0

>  <SCORE.SYSTEM>
0

>  <SCORE.SYSTEM.CONST>
0

>  <SCORE.SYSTEM.DIHEDRAL>
0

>  <SCORE.SYSTEM.SOLV>
0

>  <SCORE.SYSTEM.norm>
0

>  <SCORE.heavy>
31

>  <SCORE.norm>
-0.607676

>  <RMSD>
0.813

$$$$
ligand
 OpenBabel11021811493D
libRbt.so/2013.1/901 2013/11/27
 31 33  0  0  0  0  0  0  0  0999 V2000
  -19.1592  -15.5804  -12.9270 C   0  0  2  0  0  0  0  0  0  0  0  0
  -19.7601  -16.2805  -14.0065 O   0  0  0  0  0  0  0  0  0  0  0  0
  -23.5913  -16.3885  -15.8733 C   0  0  2  0  0  0  0  0  0  0  0  0
  -25.0015  -16.5438  -16.0301 N   0  0  0  0  0  0  0  0  0  0  0  0
  -25.1552  -13.4697  -15.0678 C   0  0  2  0  0  0  0  0  0  0  0  0
  -17.6157  -15.4491  -13.2627 C   0  0  2  0  0  0  0  0  0  0  0  0
  -17.4558  -14.7244  -14.5320 N   0  0  0  0  0  0  0  0  0  0  0  0
  -22.9941  -17.7546  -15.3193 C   0  0  0  0  0  0  0  0  0  0  0  0
  -25.5040  -12.5354  -16.2734 C   0  0  2  0  0  0  0  0  0  0  0  0
  -25.4074  -13.2944  -17.4555 O   0  0  0  0  0  0  0  0  0  0  0  0
  -16.9628  -16.8855  -13.3468 C   0  0  0  0  0  0  0  0  0  0  0  0
  -21.4172  -17.5849  -15.1499 C   0  0  2  0  0  0  0  0  0  0  0  0
  -20.8402  -18.8476  -14.6401 N   0  0  0  0  0  0  0  0  0  0  0  0
  -24.5016  -11.3074  -16.2924 C   0  0  1  0  0  0  0  0  0  0  0  0
  -24.8199  -10.3970  -17.4502 N   0  0  0  0  0  0  0  0  0  0  0  0
  -17.5144  -17.8672  -12.2313 C   0  0  0  0  0  0  0  0  0  0  0  0
  -21.1332  -16.4128  -14.1229 C   0  0  2  0  0  0  0  0  0  0  0  0
  -24.6570  -10.4717  -14.9051 C   0  0  1  0  0  0  0  0  0  0  0  0
  -25.9542   -9.9436  -14.7163 O   0  0  0  0  0  0  0  0  0  0  0  0
  -18.6006  -17.5449  -11.4931 C   0  0  2  0  0  0  0  0  0  0  0  0
  -19.3107  -16.3143  -11.6667 O   0  0  0  0  0  0  0  0  0  0  0  0
  -21.7511  -15.0654  -14.6802 C   0  0  2  0  0  0  0  0  0  0  0  0
  -21.4988  -14.0087  -13.7392 O   0  0  0  0  0  0  0  0  0  0  0  0
  -24.3324  -11.4267  -13.7086 C   0  0  0  0  0  0  0  0  0  0  0  0
  -25.2102  -12.6751  -13.7758 O   0  0  0  0  0  0  0  0  0  0  0  0
  -19.1591  -18.4647  -10.4082 C   0  0  0  0  0  0  0  0  0  0  0  0
  -18.4017  -19.6846  -10.4272 O   0  0  0  0  0  0  0  0  0  0  0  0
  -23.3136  -15.2287  -14.8505 C   0  0  1  0  0  0  0  0  0  0  0  0
  -23.8260  -14.0103  -15.3618 O   0  0  0  0  0  0  0  0  0  0  0  0
  -23.7211   -9.2503  -14.7806 C   0  0  0  0  0  0  0  0  0  0  0  0
  -24.0811  -10.6470  -18.7046 C   0  0  0  0  0  0  0  0  0  0  0  0
  1  2  1  6  0  0  0
  1  6  1  0  0  0  0
  1 21  1  0  0  0  0
  3  4  1  1  0  0  0
  3  8  1  0  0  0  0
  3 28  1  0  0  0  0
  5  9  1  0  0  0  0
  5 25  1  0  0  0  0
  5 29  1  6  0  0  0
  6  7  1  6  0  0  0
  6 11  1  0  0  0  0
  8 12  1  0  0  0  0
  9 10  1  6  0  0  0
  9 14  1  0  0  0  0
 11 16  1  0  0  0  0
 12 13  1  1  0  0  0
 12 17  1  0  0  0  0
 14 15  1  6  0  0  0
 14 18  1  0  0  0  0
 15 31  1  0  0  0  0
 16 20  1  0  0  0  0
 17  2  1  6  0  0  0
 17 22  1  0  0  0  0
 18 19  1  1  0  0  0
 18 24  1  0  0  0  0
 18 30  1  0  0  0  0
 20 21  1  0  0  0  0
 20 26  1  1  0  0  0
 22 23  1  1  0  0  0
 22 28  1  0  0  0  0
 24 25  1  0  0  0  0
 26 27  1  0  0  0  0
 28 29  1  6  0  0  0
M  END
>  <CHROM.1>
-171.18791782,-155.48119536,-92.90106362,-163.07103414,-4.28515921,93.73342693
-22.03302000,-14.69158660,-14.41186102,-0.68698243,-0.54532363,0.03526639

>  <Name>
ligand

>  <RI>
0

>  <Rbt.Current_Directory>
/home/itssahil/PROJECTS/Mol_Feturizer/New_Systems/rnas/4GPW

>  <Rbt.Executable>
rbdock ($Id: //depot/dev/client3/rdock/2013.1/src/exe/rbdock.cxx#4 $)

>  <Rbt.Library>
libRbt.so (2013.1, Build901 2013/11/27)

>  <Rbt.Parameter_File>
/export/apps/rDock/src/rDock_2013.1_src/data/scripts/dock_solv.prm

>  <Rbt.Receptor>
prm/pocket_docking_6.prm

>  <SCORE>
-19.4337

>  <SCORE.INTER>
-16.1326

>  <SCORE.INTER.CONST>
1

>  <SCORE.INTER.POLAR>
0

>  <SCORE.INTER.ROT>
6

>  <SCORE.INTER.SOLV>
16.6611

>  <SCORE.INTER.VDW>
-23.9087

>  <SCORE.INTER.norm>
-0.520406

>  <SCORE.INTRA>
-3.3011

>  <SCORE.INTRA.DIHEDRAL>
-8.27516

>  <SCORE.INTRA.DIHEDRAL.0>
19.2558

>  <SCORE.INTRA.POLAR>
0

>  <SCORE.INTRA.POLAR.0>
0

>  <SCORE.INTRA.REPUL>
0

>  <SCORE.INTRA.REPUL.0>
0

>  <SCORE.INTRA.SOLV>
-1.74185

>  <SCORE.INTRA.SOLV.lig_0>
-64.5929

>  <SCORE.INTRA.VDW>
1.70741

>  <SCORE.INTRA.VDW.0>
-4.40538

>  <SCORE.INTRA.norm>
-0.106487

>  <SCORE.RESTR>
0

>  <SCORE.RESTR.CAVITY>
0

>  <SCORE.RESTR.norm>
0

>  <SCORE.SYSTEM>
0

>  <SCORE.SYSTEM.CONST>
0

>  <SCORE.SYSTEM.DIHEDRAL>
0

>  <SCORE.SYSTEM.SOLV>
0

>  <SCORE.SYSTEM.norm>
0

>  <SCORE.heavy>
31

>  <SCORE.norm>
-0.626893

>  <RMSD>
0.816

$$$$
ligand
 OpenBabel11021811493D
libRbt.so/2013.1/901 2013/11/27
 31 33  0  0  0  0  0  0  0  0999 V2000
  -19.1284  -15.6107  -12.8944 C   0  0  2  0  0  0  0  0  0  0  0  0
  -19.7321  -16.2788  -13.9925 O   0  0  0  0  0  0  0  0  0  0  0  0
  -23.5675  -16.4105  -15.8490 C   0  0  2  0  0  0  0  0  0  0  0  0
  -24.9777  -16.5709  -16.0013 N   0  0  0  0  0  0  0  0  0  0  0  0
  -25.1400  -13.4937  -15.0651 C   0  0  2  0  0  0  0  0  0  0  0  0
  -17.5795  -15.5025  -13.2133 C   0  0  2  0  0  0  0  0  0  0  0  0
  -17.3938  -14.7573  -14.4671 N   0  0  0  0  0  0  0  0  0  0  0  0
  -22.9651  -17.7711  -15.2869 C   0  0  0  0  0  0  0  0  0  0  0  0
  -25.4883  -12.5629  -16.2736 C   0  0  2  0  0  0  0  0  0  0  0  0
  -25.3846  -13.3236  -17.4540 O   0  0  0  0  0  0  0  0  0  0  0  0
  -16.9531  -16.9493  -13.3186 C   0  0  0  0  0  0  0  0  0  0  0  0
  -21.3883  -17.5958  -15.1226 C   0  0  2  0  0  0  0  0  0  0  0  0
  -20.8065  -18.8533  -14.6054 N   0  0  0  0  0  0  0  0  0  0  0  0
  -24.4908  -11.3310  -16.2914 C   0  0  1  0  0  0  0  0  0  0  0  0
  -24.8087  -10.4239  -17.4518 N   0  0  0  0  0  0  0  0  0  0  0  0
  -17.5338  -17.9412  -12.2271 C   0  0  0  0  0  0  0  0  0  0  0  0
  -21.1051  -16.4157  -14.1046 C   0  0  2  0  0  0  0  0  0  0  0  0
  -24.6543  -10.4934  -14.9060 C   0  0  1  0  0  0  0  0  0  0  0  0
  -25.9543   -9.9702  -14.7227 O   0  0  0  0  0  0  0  0  0  0  0  0
  -18.6208  -17.6122  -11.4929 C   0  0  2  0  0  0  0  0  0  0  0  0
  -19.3058  -16.3651  -11.6497 O   0  0  0  0  0  0  0  0  0  0  0  0
  -21.7281  -15.0740  -14.6698 C   0  0  2  0  0  0  0  0  0  0  0  0
  -21.4764  -14.0100  -13.7368 O   0  0  0  0  0  0  0  0  0  0  0  0
  -24.3301  -11.4451  -13.7067 C   0  0  0  0  0  0  0  0  0  0  0  0
  -25.2026  -12.6970  -13.7747 O   0  0  0  0  0  0  0  0  0  0  0  0
  -19.2069  -18.5414  -10.4309 C   0  0  0  0  0  0  0  0  0  0  0  0
  -18.4706  -19.7738  -10.4641 O   0  0  0  0  0  0  0  0  0  0  0  0
  -23.2905  -15.2429  -14.8350 C   0  0  1  0  0  0  0  0  0  0  0  0
  -23.8076  -14.0295  -15.3536 O   0  0  0  0  0  0  0  0  0  0  0  0
  -23.7238   -9.2681  -14.7805 C   0  0  0  0  0  0  0  0  0  0  0  0
  -24.0084  -10.6206  -18.6776 C   0  0  0  0  0  0  0  0  0  0  0  0
  1  2  1  6  0  0  0
  1  6  1  0  0  0  0
  1 21  1  0  0  0  0
  3  4  1  1  0  0  0
  3  8  1  0  0  0  0
  3 28  1  0  0  0  0
  5  9  1  0  0  0  0
  5 25  1  0  0  0  0
  5 29  1  6  0  0  0
  6  7  1  6  0  0  0
  6 11  1  0  0  0  0
  8 12  1  0  0  0  0
  9 10  1  6  0  0  0
  9 14  1  0  0  0  0
 11 16  1  0  0  0  0
 12 13  1  1  0  0  0
 12 17  1  0  0  0  0
 14 15  1  6  0  0  0
 14 18  1  0  0  0  0
 15 31  1  0  0  0  0
 16 20  1  0  0  0  0
 17  2  1  6  0  0  0
 17 22  1  0  0  0  0
 18 19  1  1  0  0  0
 18 24  1  0  0  0  0
 18 30  1  0  0  0  0
 20 21  1  0  0  0  0
 20 26  1  1  0  0  0
 22 23  1  1  0  0  0
 22 28  1  0  0  0  0
 24 25  1  0  0  0  0
 26 27  1  0  0  0  0
 28 29  1  6  0  0  0
M  END
>  <CHROM.1>
-173.06216958,-155.69066579,-96.41216556,-160.77207533,-4.16162603,93.42803597
-22.01956918,-14.71984560,-14.40011350,-0.70121972,-0.53316089,0.01646019

>  <Name>
ligand

>  <RI>
0

>  <Rbt.Current_Directory>
/home/itssahil/PROJECTS/Mol_Feturizer/New_Systems/rnas/4GPW

>  <Rbt.Executable>
rbdock ($Id: //depot/dev/client3/rdock/2013.1/src/exe/rbdock.cxx#4 $)

>  <Rbt.Library>
libRbt.so (2013.1, Build901 2013/11/27)

>  <Rbt.Parameter_File>
/export/apps/rDock/src/rDock_2013.1_src/data/scripts/dock_solv.prm

>  <Rbt.Receptor>
prm/pocket_docking_3.prm

>  <SCORE>
-19.396

>  <SCORE.INTER>
-16.166

>  <SCORE.INTER.CONST>
1

>  <SCORE.INTER.POLAR>
0

>  <SCORE.INTER.ROT>
6

>  <SCORE.INTER.SOLV>
16.5637

>  <SCORE.INTER.VDW>
-23.8986

>  <SCORE.INTER.norm>
-0.521484

>  <SCORE.INTRA>
-3.23

>  <SCORE.INTRA.DIHEDRAL>
-8.05423

>  <SCORE.INTRA.DIHEDRAL.0>
19.2558

>  <SCORE.INTRA.POLAR>
0

>  <SCORE.INTRA.POLAR.0>
0

>  <SCORE.INTRA.REPUL>
0

>  <SCORE.INTRA.REPUL.0>
0

>  <SCORE.INTRA.SOLV>
-1.59673

>  <SCORE.INTRA.SOLV.lig_0>
-64.5929

>  <SCORE.INTRA.VDW>
1.59548

>  <SCORE.INTRA.VDW.0>
-4.40538

>  <SCORE.INTRA.norm>
-0.104194

>  <SCORE.RESTR>
0

>  <SCORE.RESTR.CAVITY>
0

>  <SCORE.RESTR.norm>
0

>  <SCORE.SYSTEM>
0

>  <SCORE.SYSTEM.CONST>
0

>  <SCORE.SYSTEM.DIHEDRAL>
0

>  <SCORE.SYSTEM.SOLV>
0

>  <SCORE.SYSTEM.norm>
0

>  <SCORE.heavy>
31

>  <SCORE.norm>
-0.625678

>  <RMSD>
0.818

$$$$
ligand
 OpenBabel11021811493D
libRbt.so/2013.1/901 2013/11/27
 31 33  0  0  0  0  0  0  0  0999 V2000
  -19.7811  -16.1246  -12.4891 C   0  0  2  0  0  0  0  0  0  0  0  0
  -20.2257  -16.3950  -13.8104 O   0  0  0  0  0  0  0  0  0  0  0  0
  -23.7181  -16.6092  -16.2459 C   0  0  2  0  0  0  0  0  0  0  0  0
  -25.0941  -16.7213  -16.6083 N   0  0  0  0  0  0  0  0  0  0  0  0
  -25.1165  -13.4269  -16.0026 C   0  0  2  0  0  0  0  0  0  0  0  0
  -18.2506  -15.7246  -12.5885 C   0  0  2  0  0  0  0  0  0  0  0  0
  -18.1133  -14.5456  -13.4563 N   0  0  0  0  0  0  0  0  0  0  0  0
  -23.3117  -17.9010  -15.4116 C   0  0  0  0  0  0  0  0  0  0  0  0
  -25.0734  -12.3441  -17.1313 C   0  0  2  0  0  0  0  0  0  0  0  0
  -24.8792  -13.0029  -18.3605 O   0  0  0  0  0  0  0  0  0  0  0  0
  -17.4157  -16.9414  -13.1533 C   0  0  0  0  0  0  0  0  0  0  0  0
  -21.7723  -17.7805  -15.0116 C   0  0  2  0  0  0  0  0  0  0  0  0
  -21.3717  -18.9759  -14.2385 N   0  0  0  0  0  0  0  0  0  0  0  0
  -23.8992  -11.3217  -16.8326 C   0  0  1  0  0  0  0  0  0  0  0  0
  -23.8394  -10.2720  -17.9120 N   0  0  0  0  0  0  0  0  0  0  0  0
  -17.8993  -18.3319  -12.5657 C   0  0  0  0  0  0  0  0  0  0  0  0
  -21.5698  -16.4798  -14.1305 C   0  0  2  0  0  0  0  0  0  0  0  0
  -24.1767  -10.5948  -15.4036 C   0  0  1  0  0  0  0  0  0  0  0  0
  -25.3825   -9.8581  -15.3794 O   0  0  0  0  0  0  0  0  0  0  0  0
  -19.0578  -18.4328  -11.8755 C   0  0  2  0  0  0  0  0  0  0  0  0
  -19.9085  -17.3076  -11.6323 O   0  0  0  0  0  0  0  0  0  0  0  0
  -21.9974  -15.2061  -14.9689 C   0  0  2  0  0  0  0  0  0  0  0  0
  -21.8208  -14.0310  -14.1604 O   0  0  0  0  0  0  0  0  0  0  0  0
  -24.2450  -11.6928  -14.2906 C   0  0  0  0  0  0  0  0  0  0  0  0
  -25.2855  -12.7503  -14.6546 O   0  0  0  0  0  0  0  0  0  0  0  0
  -19.5545  -19.7552  -11.2929 C   0  0  0  0  0  0  0  0  0  0  0  0
  -19.2234  -19.7770   -9.8957 O   0  0  0  0  0  0  0  0  0  0  0  0
  -23.5220  -15.3211  -15.3682 C   0  0  1  0  0  0  0  0  0  0  0  0
  -23.8618  -14.1726  -16.1258 O   0  0  0  0  0  0  0  0  0  0  0  0
  -23.0952   -9.5793  -14.9768 C   0  0  0  0  0  0  0  0  0  0  0  0
  -25.1227   -9.9093  -18.5471 C   0  0  0  0  0  0  0  0  0  0  0  0
  1  2  1  6  0  0  0
  1  6  1  0  0  0  0
  1 21  1  0  0  0  0
  3  4  1  1  0  0  0
  3  8  1  0  0  0  0
  3 28  1  0  0  0  0
  5  9  1  0  0  0  0
  5 25  1  0  0  0  0
  5 29  1  1  0  0  0
  6  7  1  6  0  0  0
  6 11  1  0  0  0  0
  8 12  1  0  0  0  0
  9 10  1  6  0  0  0
  9 14  1  0  0  0  0
 11 16  1  0  0  0  0
 12 13  1  1  0  0  0
 12 17  1  0  0  0  0
 14 15  1  6  0  0  0
 14 18  1  0  0  0  0
 15 31  1  0  0  0  0
 16 20  1  0  0  0  0
 17  2  1  6  0  0  0
 17 22  1  0  0  0  0
 18 19  1  6  0  0  0
 18 24  1  0  0  0  0
 18 30  1  0  0  0  0
 20 21  1  0  0  0  0
 20 26  1  1  0  0  0
 22 23  1  1  0  0  0
 22 28  1  0  0  0  0
 24 25  1  0  0  0  0
 26 27  1  0  0  0  0
 28 29  1  6  0  0  0
M  END
>  <CHROM.1>
-165.16085252,-174.73814532,31.27368674,-133.21577807,99.61910201,102.34458211
-22.19450438,-14.85673606,-14.65018011,-0.80368138,-0.63539393,-0.05550414

>  <Name>
ligand

>  <RI>
0

>  <Rbt.Current_Directory>
/home/itssahil/PROJECTS/Mol_Feturizer/New_Systems/rnas/4GPW

>  <Rbt.Executable>
rbdock ($Id: //depot/dev/client3/rdock/2013.1/src/exe/rbdock.cxx#4 $)

>  <Rbt.Library>
libRbt.so (2013.1, Build901 2013/11/27)

>  <Rbt.Parameter_File>
/export/apps/rDock/src/rDock_2013.1_src/data/scripts/dock_solv.prm

>  <Rbt.Receptor>
prm/pocket_docking_2.prm

>  <SCORE>
-10.2042

>  <SCORE.INTER>
-11.2521

>  <SCORE.INTER.CONST>
1

>  <SCORE.INTER.POLAR>
0

>  <SCORE.INTER.ROT>
6

>  <SCORE.INTER.SOLV>
14.6866

>  <SCORE.INTER.VDW>
-19.9969

>  <SCORE.INTER.norm>
-0.362971

>  <SCORE.INTRA>
1.02099

>  <SCORE.INTRA.DIHEDRAL>
-3.21526

>  <SCORE.INTRA.DIHEDRAL.0>
19.2558

>  <SCORE.INTRA.POLAR>
0

>  <SCORE.INTRA.POLAR.0>
0

>  <SCORE.INTRA.REPUL>
0

>  <SCORE.INTRA.REPUL.0>
0

>  <SCORE.INTRA.SOLV>
-0.0239556

>  <SCORE.INTRA.SOLV.lig_0>
-64.5929

>  <SCORE.INTRA.VDW>
2.6406

>  <SCORE.INTRA.VDW.0>
-4.40538

>  <SCORE.INTRA.norm>
0.0329353

>  <SCORE.RESTR>
0.0268539

>  <SCORE.RESTR.CAVITY>
0.0268539

>  <SCORE.RESTR.norm>
0.000866256

>  <SCORE.SYSTEM>
0

>  <SCORE.SYSTEM.CONST>
0

>  <SCORE.SYSTEM.DIHEDRAL>
0

>  <SCORE.SYSTEM.SOLV>
0

>  <SCORE.SYSTEM.norm>
0

>  <SCORE.heavy>
31

>  <SCORE.norm>
-0.329169

>  <RMSD>
0.857

$$$$
ligand
 OpenBabel11021811493D
libRbt.so/2013.1/901 2013/11/27
 31 33  0  0  0  0  0  0  0  0999 V2000
  -19.4293  -16.1251  -12.4035 C   0  0  2  0  0  0  0  0  0  0  0  0
  -19.9288  -16.7459  -13.5790 O   0  0  0  0  0  0  0  0  0  0  0  0
  -23.5754  -16.5970  -15.7824 C   0  0  2  0  0  0  0  0  0  0  0  0
  -24.9651  -16.7215  -16.0834 N   0  0  0  0  0  0  0  0  0  0  0  0
  -24.4944  -13.3161  -14.1218 C   0  0  2  0  0  0  0  0  0  0  0  0
  -17.9057  -15.7815  -12.6734 C   0  0  2  0  0  0  0  0  0  0  0  0
  -17.8091  -14.8892  -13.8380 N   0  0  0  0  0  0  0  0  0  0  0  0
  -23.0258  -18.0249  -15.3477 C   0  0  0  0  0  0  0  0  0  0  0  0
  -25.1908  -12.2828  -15.0680 C   0  0  2  0  0  0  0  0  0  0  0  0
  -26.0693  -12.9881  -15.9127 O   0  0  0  0  0  0  0  0  0  0  0  0
  -17.0918  -17.1142  -12.9144 C   0  0  0  0  0  0  0  0  0  0  0  0
  -21.4712  -17.8889  -15.0175 C   0  0  2  0  0  0  0  0  0  0  0  0
  -20.9381  -19.2086  -14.6155 N   0  0  0  0  0  0  0  0  0  0  0  0
  -24.0870  -11.5077  -15.9011 C   0  0  1  0  0  0  0  0  0  0  0  0
  -24.7395  -10.5093  -16.8220 N   0  0  0  0  0  0  0  0  0  0  0  0
  -17.5456  -18.2840  -11.9459 C   0  0  0  0  0  0  0  0  0  0  0  0
  -21.2853  -16.8527  -13.8338 C   0  0  2  0  0  0  0  0  0  0  0  0
  -23.1038  -10.7158  -14.8747 C   0  0  1  0  0  0  0  0  0  0  0  0
  -23.7786   -9.7550  -14.0881 O   0  0  0  0  0  0  0  0  0  0  0  0
  -18.6733  -18.1803  -11.2069 C   0  0  2  0  0  0  0  0  0  0  0  0
  -19.5164  -17.0243  -11.2487 O   0  0  0  0  0  0  0  0  0  0  0  0
  -21.8551  -15.4429  -14.2761 C   0  0  2  0  0  0  0  0  0  0  0  0
  -21.6925  -14.5105  -13.1943 O   0  0  0  0  0  0  0  0  0  0  0  0
  -22.4371  -11.7592  -13.9177 C   0  0  0  0  0  0  0  0  0  0  0  0
  -23.5079  -12.5963  -13.2205 O   0  0  0  0  0  0  0  0  0  0  0  0
  -19.1407  -19.2860  -10.2614 C   0  0  0  0  0  0  0  0  0  0  0  0
  -20.1582  -20.0443  -10.9336 O   0  0  0  0  0  0  0  0  0  0  0  0
  -23.3952  -15.5726  -14.6050 C   0  0  1  0  0  0  0  0  0  0  0  0
  -23.8637  -14.2971  -15.0080 O   0  0  0  0  0  0  0  0  0  0  0  0
  -21.9641   -9.9268  -15.5543 C   0  0  0  0  0  0  0  0  0  0  0  0
  -24.7265  -10.8378  -18.2620 C   0  0  0  0  0  0  0  0  0  0  0  0
  1  2  1  6  0  0  0
  1  6  1  0  0  0  0
  1 21  1  0  0  0  0
  3  4  1  1  0  0  0
  3  8  1  0  0  0  0
  3 28  1  0  0  0  0
  5  9  1  0  0  0  0
  5 25  1  0  0  0  0
  5 29  1  6  0  0  0
  6  7  1  6  0  0  0
  6 11  1  0  0  0  0
  8 12  1  0  0  0  0
  9 10  1  6  0  0  0
  9 14  1  0  0  0  0
 11 16  1  0  0  0  0
 12 13  1  1  0  0  0
 12 17  1  0  0  0  0
 14 15  1  6  0  0  0
 14 18  1  0  0  0  0
 15 31  1  0  0  0  0
 16 20  1  0  0  0  0
 17  2  1  6  0  0  0
 17 22  1  0  0  0  0
 18 19  1  1  0  0  0
 18 24  1  0  0  0  0
 18 30  1  0  0  0  0
 20 21  1  0  0  0  0
 20 26  1  1  0  0  0
 22 23  1  1  0  0  0
 22 28  1  0  0  0  0
 24 25  1  0  0  0  0
 26 27  1  0  0  0  0
 28 29  1  6  0  0  0
M  END
>  <CHROM.1>
-162.32639696,-164.22436540,-107.77930659,-166.36926586,-99.21453690,147.12417353
-21.86591061,-14.97201875,-14.06558636,-0.83963877,-0.53645467,-0.06102603

>  <Name>
ligand

>  <RI>
0

>  <Rbt.Current_Directory>
/home/itssahil/PROJECTS/Mol_Feturizer/New_Systems/rnas/4GPW

>  <Rbt.Executable>
rbdock ($Id: //depot/dev/client3/rdock/2013.1/src/exe/rbdock.cxx#4 $)

>  <Rbt.Library>
libRbt.so (2013.1, Build901 2013/11/27)

>  <Rbt.Parameter_File>
/export/apps/rDock/src/rDock_2013.1_src/data/scripts/dock_solv.prm

>  <Rbt.Receptor>
prm/pocket_docking_2.prm

>  <SCORE>
-16.7257

>  <SCORE.INTER>
-12.1126

>  <SCORE.INTER.CONST>
1

>  <SCORE.INTER.POLAR>
0

>  <SCORE.INTER.ROT>
6

>  <SCORE.INTER.SOLV>
17.6418

>  <SCORE.INTER.VDW>
-21.5557

>  <SCORE.INTER.norm>
-0.39073

>  <SCORE.INTRA>
-4.61306

>  <SCORE.INTRA.DIHEDRAL>
-8.36356

>  <SCORE.INTRA.DIHEDRAL.0>
19.2558

>  <SCORE.INTRA.POLAR>
0

>  <SCORE.INTRA.POLAR.0>
0

>  <SCORE.INTRA.REPUL>
0

>  <SCORE.INTRA.REPUL.0>
0

>  <SCORE.INTRA.SOLV>
-2.14078

>  <SCORE.INTRA.SOLV.lig_0>
-64.5929

>  <SCORE.INTRA.VDW>
0.639106

>  <SCORE.INTRA.VDW.0>
-4.40538

>  <SCORE.INTRA.norm>
-0.148808

>  <SCORE.RESTR>
0

>  <SCORE.RESTR.CAVITY>
0

>  <SCORE.RESTR.norm>
0

>  <SCORE.SYSTEM>
0

>  <SCORE.SYSTEM.CONST>
0

>  <SCORE.SYSTEM.DIHEDRAL>
0

>  <SCORE.SYSTEM.SOLV>
0

>  <SCORE.SYSTEM.norm>
0

>  <SCORE.heavy>
31

>  <SCORE.norm>
-0.539539

>  <RMSD>
0.999

$$$$
ligand
 OpenBabel11021811493D
libRbt.so/2013.1/901 2013/11/27
 31 33  0  0  0  0  0  0  0  0999 V2000
  -19.4125  -16.1203  -12.4494 C   0  0  2  0  0  0  0  0  0  0  0  0
  -19.9151  -16.7558  -13.6156 O   0  0  0  0  0  0  0  0  0  0  0  0
  -23.5697  -16.5952  -15.8048 C   0  0  2  0  0  0  0  0  0  0  0  0
  -24.9602  -16.7204  -16.1020 N   0  0  0  0  0  0  0  0  0  0  0  0
  -24.4929  -13.3334  -14.1102 C   0  0  2  0  0  0  0  0  0  0  0  0
  -17.8858  -15.7928  -12.7223 C   0  0  2  0  0  0  0  0  0  0  0  0
  -17.7807  -14.9198  -13.9007 N   0  0  0  0  0  0  0  0  0  0  0  0
  -23.0150  -18.0258  -15.3855 C   0  0  0  0  0  0  0  0  0  0  0  0
  -25.1941  -12.2926  -15.0446 C   0  0  2  0  0  0  0  0  0  0  0  0
  -26.0722  -12.9918  -15.8947 O   0  0  0  0  0  0  0  0  0  0  0  0
  -17.0819  -17.1353  -12.9409 C   0  0  0  0  0  0  0  0  0  0  0  0
  -21.4596  -17.8889  -15.0595 C   0  0  2  0  0  0  0  0  0  0  0  0
  -20.9219  -19.2111  -14.6720 N   0  0  0  0  0  0  0  0  0  0  0  0
  -24.0941  -11.5059  -15.8719 C   0  0  1  0  0  0  0  0  0  0  0  0
  -24.7512  -10.5001  -16.7814 N   0  0  0  0  0  0  0  0  0  0  0  0
  -17.5461  -18.2862  -11.9547 C   0  0  0  0  0  0  0  0  0  0  0  0
  -21.2722  -16.8636  -13.8667 C   0  0  2  0  0  0  0  0  0  0  0  0
  -23.1112  -10.7215  -14.8395 C   0  0  1  0  0  0  0  0  0  0  0  0
  -23.7872   -9.7707  -14.0418 O   0  0  0  0  0  0  0  0  0  0  0  0
  -18.6741  -18.1622  -11.2192 C   0  0  2  0  0  0  0  0  0  0  0  0
  -19.5082  -17.0005  -11.2806 O   0  0  0  0  0  0  0  0  0  0  0  0
  -21.8470  -15.4511  -14.2936 C   0  0  2  0  0  0  0  0  0  0  0  0
  -21.6830  -14.5286  -13.2036 O   0  0  0  0  0  0  0  0  0  0  0  0
  -22.4397  -11.7727  -13.8944 C   0  0  0  0  0  0  0  0  0  0  0  0
  -23.5066  -12.6199  -13.2036 O   0  0  0  0  0  0  0  0  0  0  0  0
  -19.1513  -19.2491  -10.2571 C   0  0  0  0  0  0  0  0  0  0  0  0
  -20.1577  -20.0242  -10.9269 O   0  0  0  0  0  0  0  0  0  0  0  0
  -23.3880  -15.5815  -14.6183 C   0  0  1  0  0  0  0  0  0  0  0  0
  -23.8611  -14.3035  -15.0075 O   0  0  0  0  0  0  0  0  0  0  0  0
  -21.9751   -9.9225  -15.5132 C   0  0  0  0  0  0  0  0  0  0  0  0
  -24.6257  -10.7463  -18.2324 C   0  0  0  0  0  0  0  0  0  0  0  0
  1  2  1  6  0  0  0
  1  6  1  0  0  0  0
  1 21  1  0  0  0  0
  3  4  1  1  0  0  0
  3  8  1  0  0  0  0
  3 28  1  0  0  0  0
  5  9  1  0  0  0  0
  5 25  1  0  0  0  0
  5 29  1  6  0  0  0
  6  7  1  6  0  0  0
  6 11  1  0  0  0  0
  8 12  1  0  0  0  0
  9 10  1  6  0  0  0
  9 14  1  0  0  0  0
 11 16  1  0  0  0  0
 12 13  1  1  0  0  0
 12 17  1  0  0  0  0
 14 15  1  6  0  0  0
 14 18  1  0  0  0  0
 15 31  1  0  0  0  0
 16 20  1  0  0  0  0
 17  2  1  6  0  0  0
 17 22  1  0  0  0  0
 18 19  1  1  0  0  0
 18 24  1  0  0  0  0
 18 30  1  0  0  0  0
 20 21  1  0  0  0  0
 20 26  1  1  0  0  0
 22 23  1  1  0  0  0
 22 28  1  0  0  0  0
 24 25  1  0  0  0  0
 26 27  1  0  0  0  0
 28 29  1  6  0  0  0
M  END
>  <CHROM.1>
-162.74353703,-164.23434778,-113.55093735,-167.69799964,-98.25467788,147.03086627
-21.85856342,-14.97203773,-14.07143605,-0.83822213,-0.53534558,-0.05392460

>  <Name>
ligand

>  <RI>
0

>  <Rbt.Current_Directory>
/home/itssahil/PROJECTS/Mol_Feturizer/New_Systems/rnas/4GPW

>  <Rbt.Executable>
rbdock ($Id: //depot/dev/client3/rdock/2013.1/src/exe/rbdock.cxx#4 $)

>  <Rbt.Library>
libRbt.so (2013.1, Build901 2013/11/27)

>  <Rbt.Parameter_File>
/export/apps/rDock/src/rDock_2013.1_src/data/scripts/dock_solv.prm

>  <Rbt.Receptor>
prm/pocket_docking_2.prm

>  <SCORE>
-16.7187

>  <SCORE.INTER>
-12.0398

>  <SCORE.INTER.CONST>
1

>  <SCORE.INTER.POLAR>
0

>  <SCORE.INTER.ROT>
6

>  <SCORE.INTER.SOLV>
17.6132

>  <SCORE.INTER.VDW>
-21.4976

>  <SCORE.INTER.norm>
-0.388382

>  <SCORE.INTRA>
-4.67883

>  <SCORE.INTRA.DIHEDRAL>
-8.43882

>  <SCORE.INTRA.DIHEDRAL.0>
19.2558

>  <SCORE.INTRA.POLAR>
0

>  <SCORE.INTRA.POLAR.0>
0

>  <SCORE.INTRA.REPUL>
0

>  <SCORE.INTRA.REPUL.0>
0

>  <SCORE.INTRA.SOLV>
-2.26954

>  <SCORE.INTRA.SOLV.lig_0>
-64.5929

>  <SCORE.INTRA.VDW>
0.675351

>  <SCORE.INTRA.VDW.0>
-4.40538

>  <SCORE.INTRA.norm>
-0.15093

>  <SCORE.RESTR>
0

>  <SCORE.RESTR.CAVITY>
0

>  <SCORE.RESTR.norm>
0

>  <SCORE.SYSTEM>
0

>  <SCORE.SYSTEM.CONST>
0

>  <SCORE.SYSTEM.DIHEDRAL>
0

>  <SCORE.SYSTEM.SOLV>
0

>  <SCORE.SYSTEM.norm>
0

>  <SCORE.heavy>
31

>  <SCORE.norm>
-0.539312

>  <RMSD>
1.005

$$$$
ligand
 OpenBabel11021811493D
libRbt.so/2013.1/901 2013/11/27
 31 33  0  0  0  0  0  0  0  0999 V2000
  -18.8315  -15.1768  -13.6595 C   0  0  2  0  0  0  0  0  0  0  0  0
  -19.5405  -15.8821  -14.6677 O   0  0  0  0  0  0  0  0  0  0  0  0
  -23.5493  -16.2229  -16.0777 C   0  0  2  0  0  0  0  0  0  0  0  0
  -24.9629  -16.4200  -16.0622 N   0  0  0  0  0  0  0  0  0  0  0  0
  -25.1414  -13.3351  -15.4067 C   0  0  2  0  0  0  0  0  0  0  0  0
  -17.3027  -15.1840  -14.0778 C   0  0  2  0  0  0  0  0  0  0  0  0
  -17.1567  -14.5401  -15.3915 N   0  0  0  0  0  0  0  0  0  0  0  0
  -22.8541  -17.5262  -15.4876 C   0  0  0  0  0  0  0  0  0  0  0  0
  -25.5139  -12.3269  -16.5438 C   0  0  2  0  0  0  0  0  0  0  0  0
  -25.3939  -12.9965  -17.7767 O   0  0  0  0  0  0  0  0  0  0  0  0
  -16.7656  -16.6695  -14.1145 C   0  0  0  0  0  0  0  0  0  0  0  0
  -21.2739  -17.3103  -15.5105 C   0  0  2  0  0  0  0  0  0  0  0  0
  -20.6068  -18.5146  -14.9701 N   0  0  0  0  0  0  0  0  0  0  0  0
  -24.5462  -11.0734  -16.4712 C   0  0  1  0  0  0  0  0  0  0  0  0
  -24.8876  -10.0917  -17.5622 N   0  0  0  0  0  0  0  0  0  0  0  0
  -17.3292  -17.5466  -12.9206 C   0  0  0  0  0  0  0  0  0  0  0  0
  -20.9135  -16.0521  -14.6182 C   0  0  2  0  0  0  0  0  0  0  0  0
  -24.7275  -10.3437  -15.0283 C   0  0  1  0  0  0  0  0  0  0  0  0
  -26.0393   -9.8667  -14.8072 O   0  0  0  0  0  0  0  0  0  0  0  0
  -18.3470  -17.1029  -12.1486 C   0  0  2  0  0  0  0  0  0  0  0  0
  -18.9704  -15.8309  -12.3546 O   0  0  0  0  0  0  0  0  0  0  0  0
  -21.6290  -14.7682  -15.2078 C   0  0  2  0  0  0  0  0  0  0  0  0
  -21.3061  -13.6327  -14.3879 O   0  0  0  0  0  0  0  0  0  0  0  0
  -24.3786  -11.3725  -13.9018 C   0  0  0  0  0  0  0  0  0  0  0  0
  -25.2210  -12.6368  -14.0614 O   0  0  0  0  0  0  0  0  0  0  0  0
  -18.9145  -17.9193  -10.9883 C   0  0  0  0  0  0  0  0  0  0  0  0
  -19.4286  -17.0024  -10.0099 O   0  0  0  0  0  0  0  0  0  0  0  0
  -23.1952  -14.9775  -15.1879 C   0  0  1  0  0  0  0  0  0  0  0  0
  -23.7970  -13.8162  -15.7335 O   0  0  0  0  0  0  0  0  0  0  0  0
  -23.8263   -9.1089  -14.8132 C   0  0  0  0  0  0  0  0  0  0  0  0
  -24.2684  -10.3340  -18.8811 C   0  0  0  0  0  0  0  0  0  0  0  0
  1  2  1  6  0  0  0
  1  6  1  0  0  0  0
  1 21  1  0  0  0  0
  3  4  1  1  0  0  0
  3  8  1  0  0  0  0
  3 28  1  0  0  0  0
  5  9  1  0  0  0  0
  5 25  1  0  0  0  0
  5 29  1  6  0  0  0
  6  7  1  6  0  0  0
  6 11  1  0  0  0  0
  8 12  1  0  0  0  0
  9 10  1  6  0  0  0
  9 14  1  0  0  0  0
 11 16  1  0  0  0  0
 12 13  1  1  0  0  0
 12 17  1  0  0  0  0
 14 15  1  6  0  0  0
 14 18  1  0  0  0  0
 15 31  1  0  0  0  0
 16 20  1  0  0  0  0
 17  2  1  6  0  0  0
 17 22  1  0  0  0  0
 18 19  1  1  0  0  0
 18 24  1  0  0  0  0
 18 30  1  0  0  0  0
 20 21  1  0  0  0  0
 20 26  1  1  0  0  0
 22 23  1  1  0  0  0
 22 28  1  0  0  0  0
 24 25  1  0  0  0  0
 26 27  1  0  0  0  0
 28 29  1  6  0  0  0
M  END
>  <CHROM.1>
-179.33848324,-163.05161997,-85.39664837,-157.68785232,151.05113974,89.06581065
-21.97342783,-14.34328443,-14.78358661,-0.61354637,-0.51739194,0.10377107

>  <Name>
ligand

>  <RI>
0

>  <Rbt.Current_Directory>
/home/itssahil/PROJECTS/Mol_Feturizer/New_Systems/rnas/4GPW

>  <Rbt.Executable>
rbdock ($Id: //depot/dev/client3/rdock/2013.1/src/exe/rbdock.cxx#4 $)

>  <Rbt.Library>
libRbt.so (2013.1, Build901 2013/11/27)

>  <Rbt.Parameter_File>
/export/apps/rDock/src/rDock_2013.1_src/data/scripts/dock_solv.prm

>  <Rbt.Receptor>
prm/pocket_docking_7.prm

>  <SCORE>
-17.9409

>  <SCORE.INTER>
-13.4111

>  <SCORE.INTER.CONST>
1

>  <SCORE.INTER.POLAR>
0

>  <SCORE.INTER.ROT>
6

>  <SCORE.INTER.SOLV>
15.8508

>  <SCORE.INTER.VDW>
-21.8244

>  <SCORE.INTER.norm>
-0.432617

>  <SCORE.INTRA>
-4.52978

>  <SCORE.INTRA.DIHEDRAL>
-9.1582

>  <SCORE.INTRA.DIHEDRAL.0>
19.2558

>  <SCORE.INTRA.POLAR>
0

>  <SCORE.INTRA.POLAR.0>
0

>  <SCORE.INTRA.REPUL>
0

>  <SCORE.INTRA.REPUL.0>
0

>  <SCORE.INTRA.SOLV>
-1.52861

>  <SCORE.INTRA.SOLV.lig_0>
-64.5929

>  <SCORE.INTRA.VDW>
0.813625

>  <SCORE.INTRA.VDW.0>
-4.40538

>  <SCORE.INTRA.norm>
-0.146122

>  <SCORE.RESTR>
0

>  <SCORE.RESTR.CAVITY>
0

>  <SCORE.RESTR.norm>
0

>  <SCORE.SYSTEM>
0

>  <SCORE.SYSTEM.CONST>
0

>  <SCORE.SYSTEM.DIHEDRAL>
0

>  <SCORE.SYSTEM.SOLV>
0

>  <SCORE.SYSTEM.norm>
0

>  <SCORE.heavy>
31

>  <SCORE.norm>
-0.578739

>  <RMSD>
1.131

$$$$
ligand
 OpenBabel11021811493D
libRbt.so/2013.1/901 2013/11/27
 31 33  0  0  0  0  0  0  0  0999 V2000
  -19.3246  -16.1785  -12.4572 C   0  0  2  0  0  0  0  0  0  0  0  0
  -19.8539  -16.8234  -13.6062 O   0  0  0  0  0  0  0  0  0  0  0  0
  -23.5312  -16.5573  -15.7467 C   0  0  2  0  0  0  0  0  0  0  0  0
  -24.9271  -16.6522  -16.0291 N   0  0  0  0  0  0  0  0  0  0  0  0
  -24.1584  -13.2287  -13.9553 C   0  0  2  0  0  0  0  0  0  0  0  0
  -17.7934  -15.8928  -12.7510 C   0  0  2  0  0  0  0  0  0  0  0  0
  -17.6795  -15.0449  -13.9467 N   0  0  0  0  0  0  0  0  0  0  0  0
  -22.9971  -18.0050  -15.3610 C   0  0  0  0  0  0  0  0  0  0  0  0
  -24.9892  -12.1961  -14.7869 C   0  0  2  0  0  0  0  0  0  0  0  0
  -26.0559  -12.8842  -15.3963 O   0  0  0  0  0  0  0  0  0  0  0  0
  -17.0239  -17.2582  -12.9519 C   0  0  0  0  0  0  0  0  0  0  0  0
  -21.4357  -17.9018  -15.0517 C   0  0  2  0  0  0  0  0  0  0  0  0
  -20.9171  -19.2403  -14.6955 N   0  0  0  0  0  0  0  0  0  0  0  0
  -24.0495  -11.5152  -15.8670 C   0  0  1  0  0  0  0  0  0  0  0  0
  -24.8336  -10.5188  -16.6811 N   0  0  0  0  0  0  0  0  0  0  0  0
  -17.5054  -18.3789  -11.9396 C   0  0  0  0  0  0  0  0  0  0  0  0
  -21.2157  -16.9025  -13.8425 C   0  0  2  0  0  0  0  0  0  0  0  0
  -22.8387  -10.7393  -15.1059 C   0  0  1  0  0  0  0  0  0  0  0  0
  -23.2899   -9.7135  -14.2449 O   0  0  0  0  0  0  0  0  0  0  0  0
  -18.6226  -18.2140  -11.1957 C   0  0  2  0  0  0  0  0  0  0  0  0
  -19.4293  -17.0340  -11.2710 O   0  0  0  0  0  0  0  0  0  0  0  0
  -21.7702  -15.4723  -14.2359 C   0  0  2  0  0  0  0  0  0  0  0  0
  -21.5767  -14.5736  -13.1311 O   0  0  0  0  0  0  0  0  0  0  0  0
  -22.0352  -11.7801  -14.2572 C   0  0  0  0  0  0  0  0  0  0  0  0
  -22.9737  -12.5298  -13.3136 O   0  0  0  0  0  0  0  0  0  0  0  0
  -19.1157  -19.2710  -10.2085 C   0  0  0  0  0  0  0  0  0  0  0  0
  -20.1282  -20.0514  -10.8627 O   0  0  0  0  0  0  0  0  0  0  0  0
  -23.3171  -15.5694  -14.5440 C   0  0  1  0  0  0  0  0  0  0  0  0
  -23.7719  -14.2762  -14.9035 O   0  0  0  0  0  0  0  0  0  0  0  0
  -21.8312  -10.0407  -16.0440 C   0  0  0  0  0  0  0  0  0  0  0  0
  -24.6584  -10.5849  -18.1463 C   0  0  0  0  0  0  0  0  0  0  0  0
  1  2  1  6  0  0  0
  1  6  1  0  0  0  0
  1 21  1  0  0  0  0
  3  4  1  1  0  0  0
  3  8  1  0  0  0  0
  3 28  1  0  0  0  0
  5  9  1  0  0  0  0
  5 25  1  0  0  0  0
  5 29  1  6  0  0  0
  6  7  1  6  0  0  0
  6 11  1  0  0  0  0
  8 12  1  0  0  0  0
  9 10  1  6  0  0  0
  9 14  1  0  0  0  0
 11 16  1  0  0  0  0
 12 13  1  1  0  0  0
 12 17  1  0  0  0  0
 14 15  1  1  0  0  0
 14 18  1  0  0  0  0
 15 31  1  0  0  0  0
 16 20  1  0  0  0  0
 17  2  1  6  0  0  0
 17 22  1  0  0  0  0
 18 19  1  1  0  0  0
 18 24  1  0  0  0  0
 18 30  1  0  0  0  0
 20 21  1  0  0  0  0
 20 26  1  1  0  0  0
 22 23  1  1  0  0  0
 22 28  1  0  0  0  0
 24 25  1  0  0  0  0
 26 27  1  0  0  0  0
 28 29  1  6  0  0  0
M  END
>  <CHROM.1>
-162.69778343,-162.70617343,-133.04116686,-169.90772071,-97.11701606,158.20953652
-21.74428207,-14.97879740,-14.06498098,-0.88336911,-0.49158979,-0.11285647

>  <Name>
ligand

>  <RI>
0

>  <Rbt.Current_Directory>
/home/itssahil/PROJECTS/Mol_Feturizer/New_Systems/rnas/4GPW

>  <Rbt.Executable>
rbdock ($Id: //depot/dev/client3/rdock/2013.1/src/exe/rbdock.cxx#4 $)

>  <Rbt.Library>
libRbt.so (2013.1, Build901 2013/11/27)

>  <Rbt.Parameter_File>
/export/apps/rDock/src/rDock_2013.1_src/data/scripts/dock_solv.prm

>  <Rbt.Receptor>
prm/pocket_docking_6.prm

>  <SCORE>
-16.9399

>  <SCORE.INTER>
-11.6968

>  <SCORE.INTER.CONST>
1

>  <SCORE.INTER.POLAR>
0

>  <SCORE.INTER.ROT>
6

>  <SCORE.INTER.SOLV>
17.9106

>  <SCORE.INTER.VDW>
-21.3681

>  <SCORE.INTER.norm>
-0.377316

>  <SCORE.INTRA>
-5.24313

>  <SCORE.INTRA.DIHEDRAL>
-10.5429

>  <SCORE.INTRA.DIHEDRAL.0>
19.2558

>  <SCORE.INTRA.POLAR>
0

>  <SCORE.INTRA.POLAR.0>
0

>  <SCORE.INTRA.REPUL>
0

>  <SCORE.INTRA.REPUL.0>
0

>  <SCORE.INTRA.SOLV>
-2.6007

>  <SCORE.INTRA.SOLV.lig_0>
-64.5929

>  <SCORE.INTRA.VDW>
1.32868

>  <SCORE.INTRA.VDW.0>
-4.40538

>  <SCORE.INTRA.norm>
-0.169133

>  <SCORE.RESTR>
0

>  <SCORE.RESTR.CAVITY>
0

>  <SCORE.RESTR.norm>
0

>  <SCORE.SYSTEM>
0

>  <SCORE.SYSTEM.CONST>
0

>  <SCORE.SYSTEM.DIHEDRAL>
0

>  <SCORE.SYSTEM.SOLV>
0

>  <SCORE.SYSTEM.norm>
0

>  <SCORE.heavy>
31

>  <SCORE.norm>
-0.546449

>  <RMSD>
1.167

$$$$
ligand
 OpenBabel11021811493D
libRbt.so/2013.1/901 2013/11/27
 31 33  0  0  0  0  0  0  0  0999 V2000
  -18.9539  -15.9456  -14.0349 C   0  0  2  0  0  0  0  0  0  0  0  0
  -19.7238  -16.8309  -14.8350 O   0  0  0  0  0  0  0  0  0  0  0  0
  -23.7981  -17.0847  -16.0639 C   0  0  2  0  0  0  0  0  0  0  0  0
  -25.2186  -17.1967  -15.9796 N   0  0  0  0  0  0  0  0  0  0  0  0
  -25.2450  -14.1164  -15.7240 C   0  0  2  0  0  0  0  0  0  0  0  0
  -17.4407  -16.1248  -14.4714 C   0  0  2  0  0  0  0  0  0  0  0  0
  -17.3089  -15.8125  -15.9021 N   0  0  0  0  0  0  0  0  0  0  0  0
  -23.1515  -18.3570  -15.3617 C   0  0  0  0  0  0  0  0  0  0  0  0
  -25.4679  -13.0127  -16.8105 C   0  0  2  0  0  0  0  0  0  0  0  0
  -25.2715  -13.5999  -18.0752 O   0  0  0  0  0  0  0  0  0  0  0  0
  -16.9689  -17.6024  -14.1704 C   0  0  0  0  0  0  0  0  0  0  0  0
  -21.5640  -18.2367  -15.4610 C   0  0  2  0  0  0  0  0  0  0  0  0
  -20.9420  -19.4142  -14.8178 N   0  0  0  0  0  0  0  0  0  0  0  0
  -24.4521  -11.8210  -16.5634 C   0  0  1  0  0  0  0  0  0  0  0  0
  -24.6493  -10.7485  -17.6034 N   0  0  0  0  0  0  0  0  0  0  0  0
  -17.5315  -18.1486  -12.7929 C   0  0  0  0  0  0  0  0  0  0  0  0
  -21.1009  -16.9148  -14.7212 C   0  0  2  0  0  0  0  0  0  0  0  0
  -24.7251  -11.1853  -15.0908 C   0  0  1  0  0  0  0  0  0  0  0  0
  -26.0272  -10.6553  -14.9465 O   0  0  0  0  0  0  0  0  0  0  0  0
  -18.5046  -17.4881  -12.1253 C   0  0  2  0  0  0  0  0  0  0  0  0
  -19.0793  -16.2702  -12.6105 O   0  0  0  0  0  0  0  0  0  0  0  0
  -21.7688  -15.6605  -15.4201 C   0  0  2  0  0  0  0  0  0  0  0  0
  -21.3526  -14.4659  -14.7379 O   0  0  0  0  0  0  0  0  0  0  0  0
  -24.5258  -12.3076  -14.0185 C   0  0  0  0  0  0  0  0  0  0  0  0
  -25.4097  -13.5106  -14.3421 O   0  0  0  0  0  0  0  0  0  0  0  0
  -19.0696  -17.9830  -10.7946 C   0  0  0  0  0  0  0  0  0  0  0  0
  -19.2911  -16.8402   -9.9538 O   0  0  0  0  0  0  0  0  0  0  0  0
  -23.3420  -15.7754  -15.3249 C   0  0  1  0  0  0  0  0  0  0  0  0
  -23.9014  -14.6448  -15.9709 O   0  0  0  0  0  0  0  0  0  0  0  0
  -23.7890  -10.0186  -14.7093 C   0  0  0  0  0  0  0  0  0  0  0  0
  -23.7009  -10.7495  -18.7358 C   0  0  0  0  0  0  0  0  0  0  0  0
  1  2  1  6  0  0  0
  1  6  1  0  0  0  0
  1 21  1  0  0  0  0
  3  4  1  1  0  0  0
  3  8  1  0  0  0  0
  3 28  1  0  0  0  0
  5  9  1  0  0  0  0
  5 25  1  0  0  0  0
  5 29  1  1  0  0  0
  6  7  1  6  0  0  0
  6 11  1  0  0  0  0
  8 12  1  0  0  0  0
  9 10  1  6  0  0  0
  9 14  1  0  0  0  0
 11 16  1  0  0  0  0
 12 13  1  1  0  0  0
 12 17  1  0  0  0  0
 14 15  1  6  0  0  0
 14 18  1  0  0  0  0
 15 31  1  0  0  0  0
 16 20  1  0  0  0  0
 17  2  1  6  0  0  0
 17 22  1  0  0  0  0
 18 19  1  1  0  0  0
 18 24  1  0  0  0  0
 18 30  1  0  0  0  0
 20 21  1  0  0  0  0
 20 26  1  1  0  0  0
 22 23  1  1  0  0  0
 22 28  1  0  0  0  0
 24 25  1  0  0  0  0
 26 27  1  0  0  0  0
 28 29  1  6  0  0  0
M  END
>  <CHROM.1>
-179.16542831,-171.99248152,-99.48849383,-165.24950678,140.93039721,84.13814913
-22.05526113,-15.07786077,-14.89265971,-0.60860235,-0.52928104,0.10668447

>  <Name>
ligand

>  <RI>
0

>  <Rbt.Current_Directory>
/home/itssahil/PROJECTS/Mol_Feturizer/New_Systems/rnas/4GPW

>  <Rbt.Executable>
rbdock ($Id: //depot/dev/client3/rdock/2013.1/src/exe/rbdock.cxx#4 $)

>  <Rbt.Library>
libRbt.so (2013.1, Build901 2013/11/27)

>  <Rbt.Parameter_File>
/export/apps/rDock/src/rDock_2013.1_src/data/scripts/dock_solv.prm

>  <Rbt.Receptor>
prm/pocket_docking_6.prm

>  <SCORE>
-17.7101

>  <SCORE.INTER>
-11.1376

>  <SCORE.INTER.CONST>
1

>  <SCORE.INTER.POLAR>
0

>  <SCORE.INTER.ROT>
6

>  <SCORE.INTER.SOLV>
18.7178

>  <SCORE.INTER.VDW>
-21.2643

>  <SCORE.INTER.norm>
-0.359278

>  <SCORE.INTRA>
-6.5725

>  <SCORE.INTRA.DIHEDRAL>
-12.3105

>  <SCORE.INTRA.DIHEDRAL.0>
19.2558

>  <SCORE.INTRA.POLAR>
0

>  <SCORE.INTRA.POLAR.0>
0

>  <SCORE.INTRA.REPUL>
0

>  <SCORE.INTRA.REPUL.0>
0

>  <SCORE.INTRA.SOLV>
-2.29919

>  <SCORE.INTRA.SOLV.lig_0>
-64.5929

>  <SCORE.INTRA.VDW>
0.732336

>  <SCORE.INTRA.VDW.0>
-4.40538

>  <SCORE.INTRA.norm>
-0.212016

>  <SCORE.RESTR>
0

>  <SCORE.RESTR.CAVITY>
0

>  <SCORE.RESTR.norm>
0

>  <SCORE.SYSTEM>
0

>  <SCORE.SYSTEM.CONST>
0

>  <SCORE.SYSTEM.DIHEDRAL>
0

>  <SCORE.SYSTEM.SOLV>
0

>  <SCORE.SYSTEM.norm>
0

>  <SCORE.heavy>
31

>  <SCORE.norm>
-0.571294

>  <RMSD>
1.505

$$$$
ligand
 OpenBabel11021811493D
libRbt.so/2013.1/901 2013/11/27
 31 33  0  0  0  0  0  0  0  0999 V2000
  -19.1835  -15.9605  -12.9812 C   0  0  2  0  0  0  0  0  0  0  0  0
  -19.6926  -16.5090  -14.1881 O   0  0  0  0  0  0  0  0  0  0  0  0
  -23.1650  -16.1264  -16.6316 C   0  0  2  0  0  0  0  0  0  0  0  0
  -24.5417  -16.0783  -17.0054 N   0  0  0  0  0  0  0  0  0  0  0  0
  -24.4347  -13.1626  -16.4891 C   0  0  2  0  0  0  0  0  0  0  0  0
  -17.6232  -15.7674  -13.1827 C   0  0  2  0  0  0  0  0  0  0  0  0
  -17.3893  -14.8707  -14.3242 N   0  0  0  0  0  0  0  0  0  0  0  0
  -22.8741  -17.5421  -15.9675 C   0  0  0  0  0  0  0  0  0  0  0  0
  -24.1840  -11.6695  -16.8841 C   0  0  2  0  0  0  0  0  0  0  0  0
  -23.2745  -11.6495  -17.9589 O   0  0  0  0  0  0  0  0  0  0  0  0
  -16.9368  -17.1711  -13.4176 C   0  0  0  0  0  0  0  0  0  0  0  0
  -21.3343  -17.6000  -15.5553 C   0  0  2  0  0  0  0  0  0  0  0  0
  -21.0406  -18.9123  -14.9397 N   0  0  0  0  0  0  0  0  0  0  0  0
  -23.6137  -10.8841  -15.6307 C   0  0  1  0  0  0  0  0  0  0  0  0
  -23.3622   -9.4433  -15.9930 N   0  0  0  0  0  0  0  0  0  0  0  0
  -17.5453  -18.3048  -12.4920 C   0  0  0  0  0  0  0  0  0  0  0  0
  -21.0357  -16.4419  -14.5166 C   0  0  2  0  0  0  0  0  0  0  0  0
  -24.7038  -10.9430  -14.4243 C   0  0  1  0  0  0  0  0  0  0  0  0
  -25.9387  -10.3436  -14.7609 O   0  0  0  0  0  0  0  0  0  0  0  0
  -18.6871  -18.1002  -11.7970 C   0  0  2  0  0  0  0  0  0  0  0  0
  -19.4083  -16.8649  -11.8492 O   0  0  0  0  0  0  0  0  0  0  0  0
  -21.3491  -15.0418  -15.1869 C   0  0  2  0  0  0  0  0  0  0  0  0
  -21.0859  -13.9966  -14.2361 O   0  0  0  0  0  0  0  0  0  0  0  0
  -24.9644  -12.4426  -14.0604 C   0  0  0  0  0  0  0  0  0  0  0  0
  -25.3822  -13.2235  -15.3050 O   0  0  0  0  0  0  0  0  0  0  0  0
  -19.3017  -19.1684  -10.8935 C   0  0  0  0  0  0  0  0  0  0  0  0
  -19.2722  -18.6790   -9.5438 O   0  0  0  0  0  0  0  0  0  0  0  0
  -22.8738  -14.9798  -15.5978 C   0  0  1  0  0  0  0  0  0  0  0  0
  -23.1108  -13.7208  -16.2039 O   0  0  0  0  0  0  0  0  0  0  0  0
  -24.2684  -10.2279  -13.1273 C   0  0  0  0  0  0  0  0  0  0  0  0
  -22.1516   -8.8230  -15.4174 C   0  0  0  0  0  0  0  0  0  0  0  0
  1  2  1  6  0  0  0
  1  6  1  0  0  0  0
  1 21  1  0  0  0  0
  3  4  1  1  0  0  0
  3  8  1  0  0  0  0
  3 28  1  0  0  0  0
  5  9  1  0  0  0  0
  5 25  1  0  0  0  0
  5 29  1  1  0  0  0
  6  7  1  6  0  0  0
  6 11  1  0  0  0  0
  8 12  1  0  0  0  0
  9 10  1  6  0  0  0
  9 14  1  0  0  0  0
 11 16  1  0  0  0  0
 12 13  1  1  0  0  0
 12 17  1  0  0  0  0
 14 15  1  6  0  0  0
 14 18  1  0  0  0  0
 15 31  1  0  0  0  0
 16 20  1  0  0  0  0
 17  2  1  6  0  0  0
 17 22  1  0  0  0  0
 18 19  1  6  0  0  0
 18 24  1  0  0  0  0
 18 30  1  0  0  0  0
 20 21  1  0  0  0  0
 20 26  1  1  0  0  0
 22 23  1  1  0  0  0
 22 28  1  0  0  0  0
 24 25  1  0  0  0  0
 26 27  1  0  0  0  0
 28 29  1  6  0  0  0
M  END
>  <CHROM.1>
-160.49421938,169.07626578,-141.49109807,-157.54197978,115.96593947,74.21739002
-21.74481642,-14.63892392,-14.51284871,-0.69683052,-0.66981305,0.18951055

>  <Name>
ligand

>  <RI>
0

>  <Rbt.Current_Directory>
/home/itssahil/PROJECTS/Mol_Feturizer/New_Systems/rnas/4GPW

>  <Rbt.Executable>
rbdock ($Id: //depot/dev/client3/rdock/2013.1/src/exe/rbdock.cxx#4 $)

>  <Rbt.Library>
libRbt.so (2013.1, Build901 2013/11/27)

>  <Rbt.Parameter_File>
/export/apps/rDock/src/rDock_2013.1_src/data/scripts/dock_solv.prm

>  <Rbt.Receptor>
prm/pocket_docking_5.prm

>  <SCORE>
-14.4481

>  <SCORE.INTER>
-8.90244

>  <SCORE.INTER.CONST>
1

>  <SCORE.INTER.POLAR>
0

>  <SCORE.INTER.ROT>
6

>  <SCORE.INTER.SOLV>
13.3216

>  <SCORE.INTER.VDW>
-17.9755

>  <SCORE.INTER.norm>
-0.287175

>  <SCORE.INTRA>
-5.5457

>  <SCORE.INTRA.DIHEDRAL>
-11.2242

>  <SCORE.INTRA.DIHEDRAL.0>
19.2558

>  <SCORE.INTRA.POLAR>
0

>  <SCORE.INTRA.POLAR.0>
0

>  <SCORE.INTRA.REPUL>
0

>  <SCORE.INTRA.REPUL.0>
0

>  <SCORE.INTRA.SOLV>
-1.39713

>  <SCORE.INTRA.SOLV.lig_0>
-64.5929

>  <SCORE.INTRA.VDW>
0.764978

>  <SCORE.INTRA.VDW.0>
-4.40538

>  <SCORE.INTRA.norm>
-0.178894

>  <SCORE.RESTR>
0

>  <SCORE.RESTR.CAVITY>
0

>  <SCORE.RESTR.norm>
0

>  <SCORE.SYSTEM>
0

>  <SCORE.SYSTEM.CONST>
0

>  <SCORE.SYSTEM.DIHEDRAL>
0

>  <SCORE.SYSTEM.SOLV>
0

>  <SCORE.SYSTEM.norm>
0

>  <SCORE.heavy>
31

>  <SCORE.norm>
-0.466069

>  <RMSD>
1.510

$$$$
ligand
 OpenBabel11021811493D
libRbt.so/2013.1/901 2013/11/27
 31 33  0  0  0  0  0  0  0  0999 V2000
  -18.6317  -15.1887  -13.8130 C   0  0  2  0  0  0  0  0  0  0  0  0
  -19.2651  -15.9304  -14.8451 O   0  0  0  0  0  0  0  0  0  0  0  0
  -22.8887  -15.4443  -17.0377 C   0  0  2  0  0  0  0  0  0  0  0  0
  -24.2868  -15.3770  -17.3176 N   0  0  0  0  0  0  0  0  0  0  0  0
  -24.1253  -12.5423  -16.8451 C   0  0  2  0  0  0  0  0  0  0  0  0
  -17.0685  -15.3490  -14.0204 C   0  0  2  0  0  0  0  0  0  0  0  0
  -16.7020  -14.8434  -15.3515 N   0  0  0  0  0  0  0  0  0  0  0  0
  -22.5637  -16.8847  -16.4464 C   0  0  0  0  0  0  0  0  0  0  0  0
  -23.9742  -10.9858  -16.8946 C   0  0  2  0  0  0  0  0  0  0  0  0
  -22.9675  -10.6749  -17.8288 O   0  0  0  0  0  0  0  0  0  0  0  0
  -16.6611  -16.8674  -13.8615 C   0  0  0  0  0  0  0  0  0  0  0  0
  -21.0004  -16.9638  -16.1394 C   0  0  2  0  0  0  0  0  0  0  0  0
  -20.6752  -18.2991  -15.5929 N   0  0  0  0  0  0  0  0  0  0  0  0
  -23.6062  -10.4483  -15.4493 C   0  0  1  0  0  0  0  0  0  0  0  0
  -23.4528   -8.9496  -15.4777 N   0  0  0  0  0  0  0  0  0  0  0  0
  -17.4452  -17.5845  -12.6853 C   0  0  0  0  0  0  0  0  0  0  0  0
  -20.6265  -15.8460  -15.0812 C   0  0  2  0  0  0  0  0  0  0  0  0
  -24.8015  -10.8375  -14.4163 C   0  0  1  0  0  0  0  0  0  0  0  0
  -26.0461  -10.2663  -14.7653 O   0  0  0  0  0  0  0  0  0  0  0  0
  -18.5107  -16.9959  -12.0962 C   0  0  2  0  0  0  0  0  0  0  0  0
  -18.9909  -15.7059  -12.4888 O   0  0  0  0  0  0  0  0  0  0  0  0
  -20.9745  -14.4209  -15.6779 C   0  0  2  0  0  0  0  0  0  0  0  0
  -20.6425  -13.4125  -14.7091 O   0  0  0  0  0  0  0  0  0  0  0  0
  -24.9587  -12.3945  -14.3994 C   0  0  0  0  0  0  0  0  0  0  0  0
  -25.1768  -12.9190  -15.8173 O   0  0  0  0  0  0  0  0  0  0  0  0
  -19.2891  -17.6557  -10.9589 C   0  0  0  0  0  0  0  0  0  0  0  0
  -19.3282  -16.7367   -9.8561 O   0  0  0  0  0  0  0  0  0  0  0  0
  -22.5225  -14.3377  -15.9844 C   0  0  1  0  0  0  0  0  0  0  0  0
  -22.7911  -13.0564  -16.5272 O   0  0  0  0  0  0  0  0  0  0  0  0
  -24.5651  -10.3871  -12.9588 C   0  0  0  0  0  0  0  0  0  0  0  0
  -22.1244   -8.4183  -15.1105 C   0  0  0  0  0  0  0  0  0  0  0  0
  1  2  1  6  0  0  0
  1  6  1  0  0  0  0
  1 21  1  0  0  0  0
  3  4  1  1  0  0  0
  3  8  1  0  0  0  0
  3 28  1  0  0  0  0
  5  9  1  0  0  0  0
  5 25  1  0  0  0  0
  5 29  1  1  0  0  0
  6  7  1  6  0  0  0
  6 11  1  0  0  0  0
  8 12  1  0  0  0  0
  9 10  1  6  0  0  0
  9 14  1  0  0  0  0
 11 16  1  0  0  0  0
 12 13  1  1  0  0  0
 12 17  1  0  0  0  0
 14 15  1  6  0  0  0
 14 18  1  0  0  0  0
 15 31  1  0  0  0  0
 16 20  1  0  0  0  0
 17  2  1  6  0  0  0
 17 22  1  0  0  0  0
 18 19  1  6  0  0  0
 18 24  1  0  0  0  0
 18 30  1  0  0  0  0
 20 21  1  0  0  0  0
 20 26  1  1  0  0  0
 22 23  1  1  0  0  0
 22 28  1  0  0  0  0
 24 25  1  0  0  0  0
 26 27  1  0  0  0  0
 28 29  1  6  0  0  0
M  END
>  <CHROM.1>
-170.21389985,159.52124936,-118.75078649,-171.38775165,125.73117186,66.88469378
-21.51885632,-14.02319236,-14.82950479,-0.44488067,-0.72689575,0.55020852

>  <Name>
ligand

>  <RI>
0

>  <Rbt.Current_Directory>
/home/itssahil/PROJECTS/Mol_Feturizer/New_Systems/rnas/4GPW

>  <Rbt.Executable>
rbdock ($Id: //depot/dev/client3/rdock/2013.1/src/exe/rbdock.cxx#4 $)

>  <Rbt.Library>
libRbt.so (2013.1, Build901 2013/11/27)

>  <Rbt.Parameter_File>
/export/apps/rDock/src/rDock_2013.1_src/data/scripts/dock_solv.prm

>  <Rbt.Receptor>
prm/pocket_docking_6.prm

>  <SCORE>
-14.432

>  <SCORE.INTER>
-7.8623

>  <SCORE.INTER.CONST>
1

>  <SCORE.INTER.POLAR>
0

>  <SCORE.INTER.ROT>
6

>  <SCORE.INTER.SOLV>
10.7815

>  <SCORE.INTER.VDW>
-16.4354

>  <SCORE.INTER.norm>
-0.253623

>  <SCORE.INTRA>
-6.56974

>  <SCORE.INTRA.DIHEDRAL>
-13.3853

>  <SCORE.INTRA.DIHEDRAL.0>
19.2558

>  <SCORE.INTRA.POLAR>
0

>  <SCORE.INTRA.POLAR.0>
0

>  <SCORE.INTRA.REPUL>
0

>  <SCORE.INTRA.REPUL.0>
0

>  <SCORE.INTRA.SOLV>
-1.81709

>  <SCORE.INTRA.SOLV.lig_0>
-64.5929

>  <SCORE.INTRA.VDW>
1.03148

>  <SCORE.INTRA.VDW.0>
-4.40538

>  <SCORE.INTRA.norm>
-0.211927

>  <SCORE.RESTR>
0

>  <SCORE.RESTR.CAVITY>
0

>  <SCORE.RESTR.norm>
0

>  <SCORE.SYSTEM>
0

>  <SCORE.SYSTEM.CONST>
0

>  <SCORE.SYSTEM.DIHEDRAL>
0

>  <SCORE.SYSTEM.SOLV>
0

>  <SCORE.SYSTEM.norm>
0

>  <SCORE.heavy>
31

>  <SCORE.norm>
-0.46555

>  <RMSD>
2.028

$$$$
ligand
 OpenBabel11021811493D
libRbt.so/2013.1/901 2013/11/27
 31 33  0  0  0  0  0  0  0  0999 V2000
  -19.4122  -16.8264  -12.2354 C   0  0  2  0  0  0  0  0  0  0  0  0
  -19.9243  -17.4185  -13.4202 O   0  0  0  0  0  0  0  0  0  0  0  0
  -23.5636  -17.0826  -15.6149 C   0  0  2  0  0  0  0  0  0  0  0  0
  -24.9551  -17.1632  -15.9226 N   0  0  0  0  0  0  0  0  0  0  0  0
  -23.5620  -14.1564  -16.0057 C   0  0  2  0  0  0  0  0  0  0  0  0
  -17.8929  -16.4712  -12.5150 C   0  0  2  0  0  0  0  0  0  0  0  0
  -17.8131  -15.5492  -13.6575 N   0  0  0  0  0  0  0  0  0  0  0  0
  -23.0437  -18.5418  -15.2540 C   0  0  0  0  0  0  0  0  0  0  0  0
  -22.5359  -13.0158  -15.6986 C   0  0  2  0  0  0  0  0  0  0  0  0
  -21.4056  -13.5975  -15.0930 O   0  0  0  0  0  0  0  0  0  0  0  0
  -17.0782  -17.7947  -12.7999 C   0  0  0  0  0  0  0  0  0  0  0  0
  -21.4872  -18.4544  -14.9165 C   0  0  2  0  0  0  0  0  0  0  0  0
  -20.9815  -19.8036  -14.5828 N   0  0  0  0  0  0  0  0  0  0  0  0
  -23.2128  -11.9436  -14.7472 C   0  0  1  0  0  0  0  0  0  0  0  0
  -22.2376  -10.8376  -14.4369 N   0  0  0  0  0  0  0  0  0  0  0  0
  -17.5168  -18.9904  -11.8561 C   0  0  0  0  0  0  0  0  0  0  0  0
  -21.2822  -17.4846  -13.6809 C   0  0  2  0  0  0  0  0  0  0  0  0
  -24.5096  -11.3092  -15.4976 C   0  0  1  0  0  0  0  0  0  0  0  0
  -24.1856  -10.6464  -16.7029 O   0  0  0  0  0  0  0  0  0  0  0  0
  -18.6357  -18.9091  -11.1011 C   0  0  2  0  0  0  0  0  0  0  0  0
  -19.4825  -17.7551  -11.1030 O   0  0  0  0  0  0  0  0  0  0  0  0
  -21.8227  -16.0426  -14.0502 C   0  0  2  0  0  0  0  0  0  0  0  0
  -21.6431  -15.1707  -12.9218 O   0  0  0  0  0  0  0  0  0  0  0  0
  -25.5128  -12.4656  -15.8227 C   0  0  0  0  0  0  0  0  0  0  0  0
  -24.8137  -13.5616  -16.6248 O   0  0  0  0  0  0  0  0  0  0  0  0
  -19.0883  -20.0401  -10.1785 C   0  0  0  0  0  0  0  0  0  0  0  0
  -20.1515  -20.7489  -10.8337 O   0  0  0  0  0  0  0  0  0  0  0  0
  -23.3647  -16.1240  -14.3862 C   0  0  1  0  0  0  0  0  0  0  0  0
  -23.8066  -14.8203  -14.7232 O   0  0  0  0  0  0  0  0  0  0  0  0
  -25.2797  -10.2559  -14.6727 C   0  0  0  0  0  0  0  0  0  0  0  0
  -21.4705  -10.9714  -13.1817 C   0  0  0  0  0  0  0  0  0  0  0  0
  1  2  1  6  0  0  0
  1  6  1  0  0  0  0
  1 21  1  0  0  0  0
  3  4  1  1  0  0  0
  3  8  1  0  0  0  0
  3 28  1  0  0  0  0
  5  9  1  0  0  0  0
  5 25  1  0  0  0  0
  5 29  1  1  0  0  0
  6  7  1  6  0  0  0
  6 11  1  0  0  0  0
  8 12  1  0  0  0  0
  9 10  1  1  0  0  0
  9 14  1  0  0  0  0
 11 16  1  0  0  0  0
 12 13  1  1  0  0  0
 12 17  1  0  0  0  0
 14 15  1  6  0  0  0
 14 18  1  0  0  0  0
 15 31  1  0  0  0  0
 16 20  1  0  0  0  0
 17  2  1  6  0  0  0
 17 22  1  0  0  0  0
 18 19  1  6  0  0  0
 18 24  1  0  0  0  0
 18 30  1  0  0  0  0
 20 21  1  0  0  0  0
 20 26  1  1  0  0  0
 22 23  1  1  0  0  0
 22 28  1  0  0  0  0
 24 25  1  0  0  0  0
 26 27  1  0  0  0  0
 28 29  1  6  0  0  0
M  END
>  <CHROM.1>
-160.21341616,-109.67118952,-95.06082714,-168.65496121,-101.65267001,-41.34160314
-21.67457336,-15.59189050,-13.99548118,-0.86377134,-0.56244717,-0.04624224

>  <Name>
ligand

>  <RI>
0

>  <Rbt.Current_Directory>
/home/itssahil/PROJECTS/Mol_Feturizer/New_Systems/rnas/4GPW

>  <Rbt.Executable>
rbdock ($Id: //depot/dev/client3/rdock/2013.1/src/exe/rbdock.cxx#4 $)

>  <Rbt.Library>
libRbt.so (2013.1, Build901 2013/11/27)

>  <Rbt.Parameter_File>
/export/apps/rDock/src/rDock_2013.1_src/data/scripts/dock_solv.prm

>  <Rbt.Receptor>
prm/pocket_docking_5.prm

>  <SCORE>
-13.3956

>  <SCORE.INTER>
-11.3817

>  <SCORE.INTER.CONST>
1

>  <SCORE.INTER.POLAR>
0

>  <SCORE.INTER.ROT>
6

>  <SCORE.INTER.SOLV>
18.1136

>  <SCORE.INTER.VDW>
-21.2256

>  <SCORE.INTER.norm>
-0.367151

>  <SCORE.INTRA>
-2.01392

>  <SCORE.INTRA.DIHEDRAL>
-5.74454

>  <SCORE.INTRA.DIHEDRAL.0>
19.2558

>  <SCORE.INTRA.POLAR>
0

>  <SCORE.INTRA.POLAR.0>
0

>  <SCORE.INTRA.REPUL>
0

>  <SCORE.INTRA.REPUL.0>
0

>  <SCORE.INTRA.SOLV>
-1.30219

>  <SCORE.INTRA.SOLV.lig_0>
-64.5929

>  <SCORE.INTRA.VDW>
1.50945

>  <SCORE.INTRA.VDW.0>
-4.40538

>  <SCORE.INTRA.norm>
-0.0649651

>  <SCORE.RESTR>
0

>  <SCORE.RESTR.CAVITY>
0

>  <SCORE.RESTR.norm>
0

>  <SCORE.SYSTEM>
0

>  <SCORE.SYSTEM.CONST>
0

>  <SCORE.SYSTEM.DIHEDRAL>
0

>  <SCORE.SYSTEM.SOLV>
0

>  <SCORE.SYSTEM.norm>
0

>  <SCORE.heavy>
31

>  <SCORE.norm>
-0.432116

>  <RMSD>
2.264

$$$$
ligand
 OpenBabel11021811493D
libRbt.so/2013.1/901 2013/11/27
 31 33  0  0  0  0  0  0  0  0999 V2000
  -19.7295  -17.1012  -14.1441 C   0  0  2  0  0  0  0  0  0  0  0  0
  -20.8625  -17.2191  -13.2962 O   0  0  0  0  0  0  0  0  0  0  0  0
  -23.9486  -15.8610  -15.9051 C   0  0  2  0  0  0  0  0  0  0  0  0
  -25.2574  -15.5736  -16.3969 N   0  0  0  0  0  0  0  0  0  0  0  0
  -25.0048  -12.9073  -15.0813 C   0  0  2  0  0  0  0  0  0  0  0  0
  -18.5121  -17.7766  -13.3863 C   0  0  2  0  0  0  0  0  0  0  0  0
  -18.8348  -19.1840  -13.1088 N   0  0  0  0  0  0  0  0  0  0  0  0
  -23.8529  -17.4217  -15.6139 C   0  0  0  0  0  0  0  0  0  0  0  0
  -24.8248  -12.2281  -16.4793 C   0  0  2  0  0  0  0  0  0  0  0  0
  -24.5482  -13.2369  -17.4219 O   0  0  0  0  0  0  0  0  0  0  0  0
  -18.2137  -16.9915  -12.0479 C   0  0  0  0  0  0  0  0  0  0  0  0
  -22.3886  -17.7456  -15.0706 C   0  0  2  0  0  0  0  0  0  0  0  0
  -22.2762  -19.1949  -14.7982 N   0  0  0  0  0  0  0  0  0  0  0  0
  -23.6450  -11.1720  -16.4012 C   0  0  1  0  0  0  0  0  0  0  0  0
  -23.4539  -10.5091  -17.7408 N   0  0  0  0  0  0  0  0  0  0  0  0
  -18.3457  -15.4219  -12.2247 C   0  0  0  0  0  0  0  0  0  0  0  0
  -22.1427  -16.9287  -13.7359 C   0  0  2  0  0  0  0  0  0  0  0  0
  -24.0196  -10.0359  -15.2983 C   0  0  1  0  0  0  0  0  0  0  0  0
  -25.1957   -9.3193  -15.6154 O   0  0  0  0  0  0  0  0  0  0  0  0
  -18.9053  -14.8892  -13.3346 C   0  0  2  0  0  0  0  0  0  0  0  0
  -19.4051  -15.6956  -14.4064 O   0  0  0  0  0  0  0  0  0  0  0  0
  -22.2609  -15.3790  -14.0396 C   0  0  2  0  0  0  0  0  0  0  0  0
  -22.0468  -14.6444  -12.8229 O   0  0  0  0  0  0  0  0  0  0  0  0
  -24.2238  -10.7342  -13.9127 C   0  0  0  0  0  0  0  0  0  0  0  0
  -25.2660  -11.8449  -14.0293 O   0  0  0  0  0  0  0  0  0  0  0  0
  -19.0473  -13.3818  -13.5406 C   0  0  0  0  0  0  0  0  0  0  0  0
  -19.6672  -12.8300  -12.3687 O   0  0  0  0  0  0  0  0  0  0  0  0
  -23.7101  -15.0531  -14.5789 C   0  0  1  0  0  0  0  0  0  0  0  0
  -23.7718  -13.6635  -14.8505 O   0  0  0  0  0  0  0  0  0  0  0  0
  -22.9436   -8.9460  -15.1055 C   0  0  0  0  0  0  0  0  0  0  0  0
  -24.6826  -10.1738  -18.4889 C   0  0  0  0  0  0  0  0  0  0  0  0
  1  2  1  1  0  0  0
  1  6  1  0  0  0  0
  1 21  1  0  0  0  0
  3  4  1  1  0  0  0
  3  8  1  0  0  0  0
  3 28  1  0  0  0  0
  5  9  1  0  0  0  0
  5 25  1  0  0  0  0
  5 29  1  1  0  0  0
  6  7  1  1  0  0  0
  6 11  1  0  0  0  0
  8 12  1  0  0  0  0
  9 10  1  6  0  0  0
  9 14  1  0  0  0  0
 11 16  1  0  0  0  0
 12 13  1  1  0  0  0
 12 17  1  0  0  0  0
 14 15  1  6  0  0  0
 14 18  1  0  0  0  0
 15 31  1  0  0  0  0
 16 20  1  0  0  0  0
 17  2  1  6  0  0  0
 17 22  1  0  0  0  0
 18 19  1  6  0  0  0
 18 24  1  0  0  0  0
 18 30  1  0  0  0  0
 20 21  1  0  0  0  0
 20 26  1  6  0  0  0
 22 23  1  1  0  0  0
 22 28  1  0  0  0  0
 24 25  1  0  0  0  0
 26 27  1  0  0  0  0
 28 29  1  6  0  0  0
M  END
>  <CHROM.1>
-169.29726428,-123.71485776,39.87566252,52.00631883,-50.86915215,75.91861817
-22.30018171,-14.24090912,-14.67864873,0.84414322,0.54799839,-3.11822939

>  <Name>
ligand

>  <RI>
0

>  <Rbt.Current_Directory>
/home/itssahil/PROJECTS/Mol_Feturizer/New_Systems/rnas/4GPW

>  <Rbt.Executable>
rbdock ($Id: //depot/dev/client3/rdock/2013.1/src/exe/rbdock.cxx#4 $)

>  <Rbt.Library>
libRbt.so (2013.1, Build901 2013/11/27)

>  <Rbt.Parameter_File>
/export/apps/rDock/src/rDock_2013.1_src/data/scripts/dock_solv.prm

>  <Rbt.Receptor>
prm/pocket_docking_3.prm

>  <SCORE>
-8.19416

>  <SCORE.INTER>
-8.86447

>  <SCORE.INTER.CONST>
1

>  <SCORE.INTER.POLAR>
0

>  <SCORE.INTER.ROT>
6

>  <SCORE.INTER.SOLV>
15.297

>  <SCORE.INTER.VDW>
-18.6086

>  <SCORE.INTER.norm>
-0.285951

>  <SCORE.INTRA>
0.670306

>  <SCORE.INTRA.DIHEDRAL>
-6.27201

>  <SCORE.INTRA.DIHEDRAL.0>
19.2558

>  <SCORE.INTRA.POLAR>
0

>  <SCORE.INTRA.POLAR.0>
0

>  <SCORE.INTRA.REPUL>
0

>  <SCORE.INTRA.REPUL.0>
0

>  <SCORE.INTRA.SOLV>
0.89661

>  <SCORE.INTRA.SOLV.lig_0>
-64.5929

>  <SCORE.INTRA.VDW>
3.35801

>  <SCORE.INTRA.VDW.0>
-4.40538

>  <SCORE.INTRA.norm>
0.0216228

>  <SCORE.RESTR>
0

>  <SCORE.RESTR.CAVITY>
0

>  <SCORE.RESTR.norm>
0

>  <SCORE.SYSTEM>
0

>  <SCORE.SYSTEM.CONST>
0

>  <SCORE.SYSTEM.DIHEDRAL>
0

>  <SCORE.SYSTEM.SOLV>
0

>  <SCORE.SYSTEM.norm>
0

>  <SCORE.heavy>
31

>  <SCORE.norm>
-0.264328

>  <RMSD>
2.352

$$$$
ligand
 OpenBabel11021811493D
libRbt.so/2013.1/901 2013/11/27
 31 33  0  0  0  0  0  0  0  0999 V2000
  -18.9026  -15.5870  -13.6381 C   0  0  2  0  0  0  0  0  0  0  0  0
  -19.4372  -16.4714  -14.6121 O   0  0  0  0  0  0  0  0  0  0  0  0
  -22.6852  -16.3998  -17.3725 C   0  0  2  0  0  0  0  0  0  0  0  0
  -24.0217  -16.3196  -17.8672 N   0  0  0  0  0  0  0  0  0  0  0  0
  -23.5394  -13.6513  -18.3892 C   0  0  2  0  0  0  0  0  0  0  0  0
  -17.3292  -15.5842  -13.8295 C   0  0  2  0  0  0  0  0  0  0  0  0
  -17.0079  -15.1421  -15.1945 N   0  0  0  0  0  0  0  0  0  0  0  0
  -22.5982  -17.6205  -16.3565 C   0  0  0  0  0  0  0  0  0  0  0  0
  -23.1289  -12.3645  -19.1790 C   0  0  2  0  0  0  0  0  0  0  0  0
  -21.9344  -12.6404  -19.8716 O   0  0  0  0  0  0  0  0  0  0  0  0
  -16.7547  -17.0302  -13.5547 C   0  0  0  0  0  0  0  0  0  0  0  0
  -21.1035  -17.7156  -15.8078 C   0  0  2  0  0  0  0  0  0  0  0  0
  -20.9990  -18.8494  -14.8639 N   0  0  0  0  0  0  0  0  0  0  0  0
  -22.9422  -11.1625  -18.1624 C   0  0  1  0  0  0  0  0  0  0  0  0
  -22.5427   -9.9137  -18.9049 N   0  0  0  0  0  0  0  0  0  0  0  0
  -17.4653  -17.7409  -12.3290 C   0  0  0  0  0  0  0  0  0  0  0  0
  -20.7411  -16.3645  -15.0647 C   0  0  2  0  0  0  0  0  0  0  0  0
  -24.3502  -10.8921  -17.3931 C   0  0  1  0  0  0  0  0  0  0  0  0
  -25.4017  -10.5349  -18.2671 O   0  0  0  0  0  0  0  0  0  0  0  0
  -18.5966  -17.2341  -11.7885 C   0  0  2  0  0  0  0  0  0  0  0  0
  -19.2152  -16.0402  -12.2791 O   0  0  0  0  0  0  0  0  0  0  0  0
  -20.8518  -15.1583  -16.0849 C   0  0  2  0  0  0  0  0  0  0  0  0
  -20.5317  -13.9349  -15.4018 O   0  0  0  0  0  0  0  0  0  0  0  0
  -24.7608  -12.1962  -16.6317 C   0  0  0  0  0  0  0  0  0  0  0  0
  -24.8049  -13.3797  -17.5964 O   0  0  0  0  0  0  0  0  0  0  0  0
  -19.3077  -17.8903  -10.6058 C   0  0  0  0  0  0  0  0  0  0  0  0
  -18.5835  -19.0803  -10.2571 O   0  0  0  0  0  0  0  0  0  0  0  0
  -22.3311  -15.0602  -16.6319 C   0  0  1  0  0  0  0  0  0  0  0  0
  -22.3860  -13.9807  -17.5485 O   0  0  0  0  0  0  0  0  0  0  0  0
  -24.3076   -9.7514  -16.3539 C   0  0  0  0  0  0  0  0  0  0  0  0
  -21.1048   -9.5759  -18.8962 C   0  0  0  0  0  0  0  0  0  0  0  0
  1  2  1  6  0  0  0
  1  6  1  0  0  0  0
  1 21  1  0  0  0  0
  3  4  1  1  0  0  0
  3  8  1  0  0  0  0
  3 28  1  0  0  0  0
  5  9  1  0  0  0  0
  5 25  1  0  0  0  0
  5 29  1  1  0  0  0
  6  7  1  6  0  0  0
  6 11  1  0  0  0  0
  8 12  1  0  0  0  0
  9 10  1  1  0  0  0
  9 14  1  0  0  0  0
 11 16  1  0  0  0  0
 12 13  1  1  0  0  0
 12 17  1  0  0  0  0
 14 15  1  6  0  0  0
 14 18  1  0  0  0  0
 15 31  1  0  0  0  0
 16 20  1  0  0  0  0
 17  2  1  6  0  0  0
 17 22  1  0  0  0  0
 18 19  1  6  0  0  0
 18 24  1  0  0  0  0
 18 30  1  0  0  0  0
 20 21  1  0  0  0  0
 20 26  1  1  0  0  0
 22 23  1  1  0  0  0
 22 28  1  0  0  0  0
 24 25  1  0  0  0  0
 26 27  1  0  0  0  0
 28 29  1  6  0  0  0
M  END
>  <CHROM.1>
-155.97743257,178.13988054,-99.51497209,-164.49479411,-1.43340396,54.45479395
-21.28571913,-14.66306026,-15.82322539,-0.89977776,-0.56195312,-0.35707597

>  <Name>
ligand

>  <RI>
0

>  <Rbt.Current_Directory>
/home/itssahil/PROJECTS/Mol_Feturizer/New_Systems/rnas/4GPW

>  <Rbt.Executable>
rbdock ($Id: //depot/dev/client3/rdock/2013.1/src/exe/rbdock.cxx#4 $)

>  <Rbt.Library>
libRbt.so (2013.1, Build901 2013/11/27)

>  <Rbt.Parameter_File>
/export/apps/rDock/src/rDock_2013.1_src/data/scripts/dock_solv.prm

>  <Rbt.Receptor>
prm/pocket_docking_4.prm

>  <SCORE>
-13.2425

>  <SCORE.INTER>
-8.62826

>  <SCORE.INTER.CONST>
1

>  <SCORE.INTER.POLAR>
0

>  <SCORE.INTER.ROT>
6

>  <SCORE.INTER.SOLV>
12.406

>  <SCORE.INTER.VDW>
-17.4875

>  <SCORE.INTER.norm>
-0.278331

>  <SCORE.INTRA>
-4.61421

>  <SCORE.INTRA.DIHEDRAL>
-12.8905

>  <SCORE.INTRA.DIHEDRAL.0>
19.2558

>  <SCORE.INTRA.POLAR>
0

>  <SCORE.INTRA.POLAR.0>
0

>  <SCORE.INTRA.REPUL>
0

>  <SCORE.INTRA.REPUL.0>
0

>  <SCORE.INTRA.SOLV>
-1.17888

>  <SCORE.INTRA.SOLV.lig_0>
-64.5929

>  <SCORE.INTRA.VDW>
2.42049

>  <SCORE.INTRA.VDW.0>
-4.40538

>  <SCORE.INTRA.norm>
-0.148846

>  <SCORE.RESTR>
0

>  <SCORE.RESTR.CAVITY>
0

>  <SCORE.RESTR.norm>
0

>  <SCORE.SYSTEM>
0

>  <SCORE.SYSTEM.CONST>
0

>  <SCORE.SYSTEM.DIHEDRAL>
0

>  <SCORE.SYSTEM.SOLV>
0

>  <SCORE.SYSTEM.norm>
0

>  <SCORE.heavy>
31

>  <SCORE.norm>
-0.427177

>  <RMSD>
2.360

$$$$
ligand
 OpenBabel11021811493D
libRbt.so/2013.1/901 2013/11/27
 31 33  0  0  0  0  0  0  0  0999 V2000
  -18.4623  -14.7078  -14.1271 C   0  0  2  0  0  0  0  0  0  0  0  0
  -18.8897  -15.3849  -15.2998 O   0  0  0  0  0  0  0  0  0  0  0  0
  -22.3246  -14.8503  -17.7677 C   0  0  2  0  0  0  0  0  0  0  0  0
  -23.6836  -14.8991  -18.2014 N   0  0  0  0  0  0  0  0  0  0  0  0
  -24.0329  -12.2589  -16.9770 C   0  0  2  0  0  0  0  0  0  0  0  0
  -16.8819  -14.8199  -14.0780 C   0  0  2  0  0  0  0  0  0  0  0  0
  -16.3151  -14.2106  -15.2902 N   0  0  0  0  0  0  0  0  0  0  0  0
  -21.8333  -16.3369  -17.4871 C   0  0  0  0  0  0  0  0  0  0  0  0
  -24.0193  -10.6948  -16.9380 C   0  0  2  0  0  0  0  0  0  0  0  0
  -23.0649  -10.2436  -17.8697 O   0  0  0  0  0  0  0  0  0  0  0  0
  -16.4572  -16.3370  -13.9573 C   0  0  0  0  0  0  0  0  0  0  0  0
  -20.3125  -16.2846  -17.0088 C   0  0  2  0  0  0  0  0  0  0  0  0
  -19.8335  -17.6592  -16.7473 N   0  0  0  0  0  0  0  0  0  0  0  0
  -23.6673  -10.2098  -15.4703 C   0  0  1  0  0  0  0  0  0  0  0  0
  -23.6459   -8.7042  -15.4136 N   0  0  0  0  0  0  0  0  0  0  0  0
  -17.4027  -17.1545  -12.9826 C   0  0  0  0  0  0  0  0  0  0  0  0
  -20.2195  -15.4232  -15.6827 C   0  0  2  0  0  0  0  0  0  0  0  0
  -24.8006  -10.7611  -14.4412 C   0  0  1  0  0  0  0  0  0  0  0  0
  -26.0978  -10.2833  -14.7345 O   0  0  0  0  0  0  0  0  0  0  0  0
  -18.5703  -16.6329  -12.5428 C   0  0  2  0  0  0  0  0  0  0  0  0
  -19.0204  -15.3279  -12.9213 O   0  0  0  0  0  0  0  0  0  0  0  0
  -20.7305  -13.9530  -15.9749 C   0  0  2  0  0  0  0  0  0  0  0  0
  -20.6529  -13.1801  -14.7656 O   0  0  0  0  0  0  0  0  0  0  0  0
  -24.8209  -12.3243  -14.5127 C   0  0  0  0  0  0  0  0  0  0  0  0
  -25.0242  -12.7848  -15.9549 O   0  0  0  0  0  0  0  0  0  0  0  0
  -19.5056  -17.3903  -11.6014 C   0  0  0  0  0  0  0  0  0  0  0  0
  -20.7204  -17.6712  -12.3137 O   0  0  0  0  0  0  0  0  0  0  0  0
  -22.2369  -13.9995  -16.4498 C   0  0  1  0  0  0  0  0  0  0  0  0
  -22.6521  -12.6703  -16.7129 O   0  0  0  0  0  0  0  0  0  0  0  0
  -24.5717  -10.3751  -12.9642 C   0  0  0  0  0  0  0  0  0  0  0  0
  -22.3622   -8.0794  -15.0350 C   0  0  0  0  0  0  0  0  0  0  0  0
  1  2  1  6  0  0  0
  1  6  1  0  0  0  0
  1 21  1  0  0  0  0
  3  4  1  1  0  0  0
  3  8  1  0  0  0  0
  3 28  1  0  0  0  0
  5  9  1  0  0  0  0
  5 25  1  0  0  0  0
  5 29  1  1  0  0  0
  6  7  1  6  0  0  0
  6 11  1  0  0  0  0
  8 12  1  0  0  0  0
  9 10  1  6  0  0  0
  9 14  1  0  0  0  0
 11 16  1  0  0  0  0
 12 13  1  1  0  0  0
 12 17  1  0  0  0  0
 14 15  1  6  0  0  0
 14 18  1  0  0  0  0
 15 31  1  0  0  0  0
 16 20  1  0  0  0  0
 17  2  1  6  0  0  0
 17 22  1  0  0  0  0
 18 19  1  6  0  0  0
 18 24  1  0  0  0  0
 18 30  1  0  0  0  0
 20 21  1  0  0  0  0
 20 26  1  1  0  0  0
 22 23  1  1  0  0  0
 22 28  1  0  0  0  0
 24 25  1  0  0  0  0
 26 27  1  0  0  0  0
 28 29  1  6  0  0  0
M  END
>  <CHROM.1>
-176.84711035,169.70446483,-118.93086916,-178.85848527,-114.10061160,71.55733404
-21.40637445,-13.70564812,-15.21246947,-0.40030604,-0.70999275,0.70769558

>  <Name>
ligand

>  <RI>
0

>  <Rbt.Current_Directory>
/home/itssahil/PROJECTS/Mol_Feturizer/New_Systems/rnas/4GPW

>  <Rbt.Executable>
rbdock ($Id: //depot/dev/client3/rdock/2013.1/src/exe/rbdock.cxx#4 $)

>  <Rbt.Library>
libRbt.so (2013.1, Build901 2013/11/27)

>  <Rbt.Parameter_File>
/export/apps/rDock/src/rDock_2013.1_src/data/scripts/dock_solv.prm

>  <Rbt.Receptor>
prm/pocket_docking_6.prm

>  <SCORE>
-14.1948

>  <SCORE.INTER>
-6.50114

>  <SCORE.INTER.CONST>
1

>  <SCORE.INTER.POLAR>
0

>  <SCORE.INTER.ROT>
6

>  <SCORE.INTER.SOLV>
9.10873

>  <SCORE.INTER.VDW>
-14.9703

>  <SCORE.INTER.norm>
-0.209714

>  <SCORE.INTRA>
-7.69366

>  <SCORE.INTRA.DIHEDRAL>
-15.1098

>  <SCORE.INTRA.DIHEDRAL.0>
19.2558

>  <SCORE.INTRA.POLAR>
0

>  <SCORE.INTRA.POLAR.0>
0

>  <SCORE.INTRA.REPUL>
0

>  <SCORE.INTRA.REPUL.0>
0

>  <SCORE.INTRA.SOLV>
-2.54487

>  <SCORE.INTRA.SOLV.lig_0>
-64.5929

>  <SCORE.INTRA.VDW>
1.13365

>  <SCORE.INTRA.VDW.0>
-4.40538

>  <SCORE.INTRA.norm>
-0.248183

>  <SCORE.RESTR>
0

>  <SCORE.RESTR.CAVITY>
0

>  <SCORE.RESTR.norm>
0

>  <SCORE.SYSTEM>
0

>  <SCORE.SYSTEM.CONST>
0

>  <SCORE.SYSTEM.DIHEDRAL>
0

>  <SCORE.SYSTEM.SOLV>
0

>  <SCORE.SYSTEM.norm>
0

>  <SCORE.heavy>
31

>  <SCORE.norm>
-0.457897

>  <RMSD>
2.402

$$$$
ligand
 OpenBabel11021811493D
libRbt.so/2013.1/901 2013/11/27
 31 33  0  0  0  0  0  0  0  0999 V2000
  -19.5016  -17.0036  -11.9390 C   0  0  2  0  0  0  0  0  0  0  0  0
  -20.0553  -17.5228  -13.1392 O   0  0  0  0  0  0  0  0  0  0  0  0
  -23.2817  -16.2497  -15.6179 C   0  0  2  0  0  0  0  0  0  0  0  0
  -24.6165  -15.9889  -16.0510 N   0  0  0  0  0  0  0  0  0  0  0  0
  -22.1055  -13.2670  -15.3738 C   0  0  2  0  0  0  0  0  0  0  0  0
  -18.0059  -16.5892  -12.2608 C   0  0  2  0  0  0  0  0  0  0  0  0
  -18.0016  -15.5860  -13.3357 N   0  0  0  0  0  0  0  0  0  0  0  0
  -23.1486  -17.8042  -15.3088 C   0  0  0  0  0  0  0  0  0  0  0  0
  -22.5078  -11.7662  -15.1900 C   0  0  2  0  0  0  0  0  0  0  0  0
  -22.5451  -11.4906  -13.8096 O   0  0  0  0  0  0  0  0  0  0  0  0
  -17.1752  -17.8669  -12.6780 C   0  0  0  0  0  0  0  0  0  0  0  0
  -21.6555  -18.0984  -14.8311 C   0  0  2  0  0  0  0  0  0  0  0  0
  -21.5083  -19.5416  -14.5432 N   0  0  0  0  0  0  0  0  0  0  0  0
  -23.9191  -11.5148  -15.8670 C   0  0  1  0  0  0  0  0  0  0  0  0
  -24.3256  -10.0739  -15.6971 N   0  0  0  0  0  0  0  0  0  0  0  0
  -17.5408  -19.1382  -11.8049 C   0  0  0  0  0  0  0  0  0  0  0  0
  -21.3591  -17.2577  -13.5217 C   0  0  2  0  0  0  0  0  0  0  0  0
  -23.8147  -11.8504  -17.4557 C   0  0  1  0  0  0  0  0  0  0  0  0
  -22.8794  -11.0378  -18.1355 O   0  0  0  0  0  0  0  0  0  0  0  0
  -18.6243  -19.1410  -10.9957 C   0  0  2  0  0  0  0  0  0  0  0  0
  -19.4968  -18.0126  -10.8751 O   0  0  0  0  0  0  0  0  0  0  0  0
  -21.5151  -15.7147  -13.8421 C   0  0  2  0  0  0  0  0  0  0  0  0
  -21.2549  -14.9586  -12.6477 O   0  0  0  0  0  0  0  0  0  0  0  0
  -23.3846  -13.3458  -17.6223 C   0  0  0  0  0  0  0  0  0  0  0  0
  -22.0931  -13.6132  -16.8515 O   0  0  0  0  0  0  0  0  0  0  0  0
  -19.0064  -20.3467  -10.1383 C   0  0  0  0  0  0  0  0  0  0  0  0
  -20.1462  -20.9776  -10.7423 O   0  0  0  0  0  0  0  0  0  0  0  0
  -22.9930  -15.4182  -14.3165 C   0  0  1  0  0  0  0  0  0  0  0  0
  -23.0886  -14.0340  -14.6051 O   0  0  0  0  0  0  0  0  0  0  0  0
  -25.1306  -11.6642  -18.2411 C   0  0  0  0  0  0  0  0  0  0  0  0
  -25.2785   -9.7846  -14.6062 C   0  0  0  0  0  0  0  0  0  0  0  0
  1  2  1  6  0  0  0
  1  6  1  0  0  0  0
  1 21  1  0  0  0  0
  3  4  1  1  0  0  0
  3  8  1  0  0  0  0
  3 28  1  0  0  0  0
  5  9  1  0  0  0  0
  5 25  1  0  0  0  0
  5 29  1  1  0  0  0
  6  7  1  6  0  0  0
  6 11  1  0  0  0  0
  8 12  1  0  0  0  0
  9 10  1  1  0  0  0
  9 14  1  0  0  0  0
 11 16  1  0  0  0  0
 12 13  1  1  0  0  0
 12 17  1  0  0  0  0
 14 15  1  6  0  0  0
 14 18  1  0  0  0  0
 15 31  1  0  0  0  0
 16 20  1  0  0  0  0
 17  2  1  6  0  0  0
 17 22  1  0  0  0  0
 18 19  1  6  0  0  0
 18 24  1  0  0  0  0
 18 30  1  0  0  0  0
 20 21  1  0  0  0  0
 20 26  1  1  0  0  0
 22 23  1  1  0  0  0
 22 28  1  0  0  0  0
 24 25  1  0  0  0  0
 26 27  1  0  0  0  0
 28 29  1  6  0  0  0
M  END
>  <CHROM.1>
-140.73410942,-169.65251982,-99.37927792,-175.16294894,-105.84534450,-72.92332541
-21.61707721,-15.35822176,-14.24705501,-0.85435408,-0.73681308,-0.04599973

>  <Name>
ligand

>  <RI>
0

>  <Rbt.Current_Directory>
/home/itssahil/PROJECTS/Mol_Feturizer/New_Systems/rnas/4GPW

>  <Rbt.Executable>
rbdock ($Id: //depot/dev/client3/rdock/2013.1/src/exe/rbdock.cxx#4 $)

>  <Rbt.Library>
libRbt.so (2013.1, Build901 2013/11/27)

>  <Rbt.Parameter_File>
/export/apps/rDock/src/rDock_2013.1_src/data/scripts/dock_solv.prm

>  <Rbt.Receptor>
prm/pocket_docking_6.prm

>  <SCORE>
-15.9599

>  <SCORE.INTER>
-11.6624

>  <SCORE.INTER.CONST>
1

>  <SCORE.INTER.POLAR>
0

>  <SCORE.INTER.ROT>
6

>  <SCORE.INTER.SOLV>
16.6255

>  <SCORE.INTER.VDW>
-20.9167

>  <SCORE.INTER.norm>
-0.376205

>  <SCORE.INTRA>
-4.29756

>  <SCORE.INTRA.DIHEDRAL>
-9.72945

>  <SCORE.INTRA.DIHEDRAL.0>
19.2558

>  <SCORE.INTRA.POLAR>
0

>  <SCORE.INTRA.POLAR.0>
0

>  <SCORE.INTRA.REPUL>
0

>  <SCORE.INTRA.REPUL.0>
0

>  <SCORE.INTRA.SOLV>
-0.978898

>  <SCORE.INTRA.SOLV.lig_0>
-64.5929

>  <SCORE.INTRA.VDW>
1.05662

>  <SCORE.INTRA.VDW.0>
-4.40538

>  <SCORE.INTRA.norm>
-0.138631

>  <SCORE.RESTR>
0

>  <SCORE.RESTR.CAVITY>
0

>  <SCORE.RESTR.norm>
0

>  <SCORE.SYSTEM>
0

>  <SCORE.SYSTEM.CONST>
0

>  <SCORE.SYSTEM.DIHEDRAL>
0

>  <SCORE.SYSTEM.SOLV>
0

>  <SCORE.SYSTEM.norm>
0

>  <SCORE.heavy>
31

>  <SCORE.norm>
-0.514836

>  <RMSD>
2.411

$$$$
ligand
 OpenBabel11021811493D
libRbt.so/2013.1/901 2013/11/27
 31 33  0  0  0  0  0  0  0  0999 V2000
  -19.8525  -16.9698  -14.0288 C   0  0  2  0  0  0  0  0  0  0  0  0
  -21.0471  -17.1633  -13.2857 O   0  0  0  0  0  0  0  0  0  0  0  0
  -23.9701  -15.9142  -16.1266 C   0  0  2  0  0  0  0  0  0  0  0  0
  -25.2447  -15.7057  -16.7342 N   0  0  0  0  0  0  0  0  0  0  0  0
  -25.2884  -13.0015  -14.6370 C   0  0  2  0  0  0  0  0  0  0  0  0
  -18.6796  -17.6445  -13.2033 C   0  0  2  0  0  0  0  0  0  0  0  0
  -18.9758  -19.0729  -13.0196 N   0  0  0  0  0  0  0  0  0  0  0  0
  -23.7705  -17.4760  -15.9012 C   0  0  0  0  0  0  0  0  0  0  0  0
  -25.6089  -12.1702  -15.9232 C   0  0  2  0  0  0  0  0  0  0  0  0
  -25.7327  -13.0665  -17.0021 O   0  0  0  0  0  0  0  0  0  0  0  0
  -18.5198  -16.9173  -11.8096 C   0  0  0  0  0  0  0  0  0  0  0  0
  -22.3435  -17.7111  -15.2283 C   0  0  2  0  0  0  0  0  0  0  0  0
  -22.1351  -19.1596  -15.0145 N   0  0  0  0  0  0  0  0  0  0  0  0
  -24.4460  -11.1224  -16.1738 C   0  0  1  0  0  0  0  0  0  0  0  0
  -24.7355  -10.3138  -17.4118 N   0  0  0  0  0  0  0  0  0  0  0  0
  -18.6903  -15.3456  -11.9240 C   0  0  0  0  0  0  0  0  0  0  0  0
  -22.2986  -16.9523  -13.8386 C   0  0  2  0  0  0  0  0  0  0  0  0
  -24.3501  -10.1180  -14.8973 C   0  0  1  0  0  0  0  0  0  0  0  0
  -25.5345   -9.3776  -14.6820 O   0  0  0  0  0  0  0  0  0  0  0  0
  -19.1742  -14.7763  -13.0511 C   0  0  2  0  0  0  0  0  0  0  0  0
  -19.5558  -15.5438  -14.1975 O   0  0  0  0  0  0  0  0  0  0  0  0
  -22.5184  -15.4026  -14.0793 C   0  0  2  0  0  0  0  0  0  0  0  0
  -22.4866  -14.7218  -12.8138 O   0  0  0  0  0  0  0  0  0  0  0  0
  -24.0573  -10.9670  -13.6157 C   0  0  0  0  0  0  0  0  0  0  0  0
  -25.1083  -12.0641  -13.4570 O   0  0  0  0  0  0  0  0  0  0  0  0
  -19.3501  -13.2655  -13.1982 C   0  0  0  0  0  0  0  0  0  0  0  0
  -18.3506  -12.7892  -14.1127 O   0  0  0  0  0  0  0  0  0  0  0  0
  -23.9309  -15.1645  -14.7465 C   0  0  1  0  0  0  0  0  0  0  0  0
  -24.0841  -13.7714  -14.9571 O   0  0  0  0  0  0  0  0  0  0  0  0
  -23.2404   -9.0499  -15.0002 C   0  0  0  0  0  0  0  0  0  0  0  0
  -24.2135  -10.8518  -18.6846 C   0  0  0  0  0  0  0  0  0  0  0  0
  1  2  1  1  0  0  0
  1  6  1  0  0  0  0
  1 21  1  0  0  0  0
  3  4  1  1  0  0  0
  3  8  1  0  0  0  0
  3 28  1  0  0  0  0
  5  9  1  0  0  0  0
  5 25  1  0  0  0  0
  5 29  1  6  0  0  0
  6  7  1  1  0  0  0
  6 11  1  0  0  0  0
  8 12  1  0  0  0  0
  9 10  1  6  0  0  0
  9 14  1  0  0  0  0
 11 16  1  0  0  0  0
 12 13  1  1  0  0  0
 12 17  1  0  0  0  0
 14 15  1  6  0  0  0
 14 18  1  0  0  0  0
 15 31  1  0  0  0  0
 16 20  1  0  0  0  0
 17  2  1  6  0  0  0
 17 22  1  0  0  0  0
 18 19  1  1  0  0  0
 18 24  1  0  0  0  0
 18 30  1  0  0  0  0
 20 21  1  0  0  0  0
 20 26  1  6  0  0  0
 22 23  1  1  0  0  0
 22 28  1  0  0  0  0
 24 25  1  0  0  0  0
 26 27  1  0  0  0  0
 28 29  1  6  0  0  0
M  END
>  <CHROM.1>
-166.10058509,-130.51605066,-90.12600999,48.91562689,108.55858207,107.32082840
-22.49762828,-14.25918484,-14.60241566,0.78250370,0.52091629,-3.06910032

>  <Name>
ligand

>  <RI>
0

>  <Rbt.Current_Directory>
/home/itssahil/PROJECTS/Mol_Feturizer/New_Systems/rnas/4GPW

>  <Rbt.Executable>
rbdock ($Id: //depot/dev/client3/rdock/2013.1/src/exe/rbdock.cxx#4 $)

>  <Rbt.Library>
libRbt.so (2013.1, Build901 2013/11/27)

>  <Rbt.Parameter_File>
/export/apps/rDock/src/rDock_2013.1_src/data/scripts/dock_solv.prm

>  <Rbt.Receptor>
prm/pocket_docking_2.prm

>  <SCORE>
-10.69

>  <SCORE.INTER>
-10.5504

>  <SCORE.INTER.CONST>
1

>  <SCORE.INTER.POLAR>
0

>  <SCORE.INTER.ROT>
6

>  <SCORE.INTER.SOLV>
16.7152

>  <SCORE.INTER.VDW>
-20.2053

>  <SCORE.INTER.norm>
-0.340334

>  <SCORE.INTRA>
-0.139605

>  <SCORE.INTRA.DIHEDRAL>
-2.19992

>  <SCORE.INTRA.DIHEDRAL.0>
19.2558

>  <SCORE.INTRA.POLAR>
0

>  <SCORE.INTRA.POLAR.0>
0

>  <SCORE.INTRA.REPUL>
0

>  <SCORE.INTRA.REPUL.0>
0

>  <SCORE.INTRA.SOLV>
0.177621

>  <SCORE.INTRA.SOLV.lig_0>
-64.5929

>  <SCORE.INTRA.VDW>
0.871546

>  <SCORE.INTRA.VDW.0>
-4.40538

>  <SCORE.INTRA.norm>
-0.00450339

>  <SCORE.RESTR>
0

>  <SCORE.RESTR.CAVITY>
0

>  <SCORE.RESTR.norm>
0

>  <SCORE.SYSTEM>
0

>  <SCORE.SYSTEM.CONST>
0

>  <SCORE.SYSTEM.DIHEDRAL>
0

>  <SCORE.SYSTEM.SOLV>
0

>  <SCORE.SYSTEM.norm>
0

>  <SCORE.heavy>
31

>  <SCORE.norm>
-0.344837

>  <RMSD>
2.422

$$$$
ligand
 OpenBabel11021811493D
libRbt.so/2013.1/901 2013/11/27
 31 33  0  0  0  0  0  0  0  0999 V2000
  -18.4320  -14.7928  -14.1031 C   0  0  2  0  0  0  0  0  0  0  0  0
  -18.8327  -15.3749  -15.3349 O   0  0  0  0  0  0  0  0  0  0  0  0
  -22.2085  -14.6316  -17.8301 C   0  0  2  0  0  0  0  0  0  0  0  0
  -23.5569  -14.6416  -18.2980 N   0  0  0  0  0  0  0  0  0  0  0  0
  -23.9298  -12.1119  -16.8938 C   0  0  2  0  0  0  0  0  0  0  0  0
  -16.8495  -14.8648  -14.0504 C   0  0  2  0  0  0  0  0  0  0  0  0
  -16.2927  -14.1349  -15.1989 N   0  0  0  0  0  0  0  0  0  0  0  0
  -21.7243  -16.1373  -17.6613 C   0  0  0  0  0  0  0  0  0  0  0  0
  -23.9030  -10.5500  -16.8049 C   0  0  2  0  0  0  0  0  0  0  0  0
  -22.9207  -10.0792  -17.6971 O   0  0  0  0  0  0  0  0  0  0  0  0
  -16.3824  -16.3742  -14.0607 C   0  0  0  0  0  0  0  0  0  0  0  0
  -20.2152  -16.1279  -17.1449 C   0  0  2  0  0  0  0  0  0  0  0  0
  -19.7428  -17.5204  -16.9861 N   0  0  0  0  0  0  0  0  0  0  0  0
  -23.5848  -10.1149  -15.3141 C   0  0  1  0  0  0  0  0  0  0  0  0
  -23.5513   -8.6121  -15.2092 N   0  0  0  0  0  0  0  0  0  0  0  0
  -17.3103  -17.3009  -13.1703 C   0  0  0  0  0  0  0  0  0  0  0  0
  -20.1531  -15.3786  -15.7506 C   0  0  2  0  0  0  0  0  0  0  0  0
  -24.7494  -10.6871  -14.3324 C   0  0  1  0  0  0  0  0  0  0  0  0
  -26.0342  -10.1875  -14.6436 O   0  0  0  0  0  0  0  0  0  0  0  0
  -18.4950  -16.8531  -12.6964 C   0  0  2  0  0  0  0  0  0  0  0  0
  -18.9797  -15.5327  -12.9618 O   0  0  0  0  0  0  0  0  0  0  0  0
  -20.6567  -13.8883  -15.9327 C   0  0  2  0  0  0  0  0  0  0  0  0
  -20.6074  -13.2176  -14.6625 O   0  0  0  0  0  0  0  0  0  0  0  0
  -24.7820  -12.2470  -14.4538 C   0  0  0  0  0  0  0  0  0  0  0  0
  -24.9520  -12.6598  -15.9147 O   0  0  0  0  0  0  0  0  0  0  0  0
  -19.4142  -17.7167  -11.8338 C   0  0  0  0  0  0  0  0  0  0  0  0
  -19.3727  -17.2063  -10.4921 O   0  0  0  0  0  0  0  0  0  0  0  0
  -22.1516  -13.8923  -16.4450 C   0  0  1  0  0  0  0  0  0  0  0  0
  -22.5601  -12.5450  -16.6076 O   0  0  0  0  0  0  0  0  0  0  0  0
  -24.5555  -10.3499  -12.8384 C   0  0  0  0  0  0  0  0  0  0  0  0
  -22.2140   -7.9870  -15.1581 C   0  0  0  0  0  0  0  0  0  0  0  0
  1  2  1  6  0  0  0
  1  6  1  0  0  0  0
  1 21  1  0  0  0  0
  3  4  1  1  0  0  0
  3  8  1  0  0  0  0
  3 28  1  0  0  0  0
  5  9  1  0  0  0  0
  5 25  1  0  0  0  0
  5 29  1  1  0  0  0
  6  7  1  6  0  0  0
  6 11  1  0  0  0  0
  8 12  1  0  0  0  0
  9 10  1  6  0  0  0
  9 14  1  0  0  0  0
 11 16  1  0  0  0  0
 12 13  1  1  0  0  0
 12 17  1  0  0  0  0
 14 15  1  6  0  0  0
 14 18  1  0  0  0  0
 15 31  1  0  0  0  0
 16 20  1  0  0  0  0
 17  2  1  6  0  0  0
 17 22  1  0  0  0  0
 18 19  1  6  0  0  0
 18 24  1  0  0  0  0
 18 30  1  0  0  0  0
 20 21  1  0  0  0  0
 20 26  1  1  0  0  0
 22 23  1  1  0  0  0
 22 28  1  0  0  0  0
 24 25  1  0  0  0  0
 26 27  1  0  0  0  0
 28 29  1  6  0  0  0
M  END
>  <CHROM.1>
-174.77080873,173.17173698,-102.19009276,-179.11022647,108.43515480,70.35987183
-21.28185249,-13.64339247,-15.14732731,-0.15966540,-0.79273149,1.04565065

>  <Name>
ligand

>  <RI>
0

>  <Rbt.Current_Directory>
/home/itssahil/PROJECTS/Mol_Feturizer/New_Systems/rnas/4GPW

>  <Rbt.Executable>
rbdock ($Id: //depot/dev/client3/rdock/2013.1/src/exe/rbdock.cxx#4 $)

>  <Rbt.Library>
libRbt.so (2013.1, Build901 2013/11/27)

>  <Rbt.Parameter_File>
/export/apps/rDock/src/rDock_2013.1_src/data/scripts/dock_solv.prm

>  <Rbt.Receptor>
prm/pocket_docking_6.prm

>  <SCORE>
-14.1766

>  <SCORE.INTER>
-6.43998

>  <SCORE.INTER.CONST>
1

>  <SCORE.INTER.POLAR>
0

>  <SCORE.INTER.ROT>
6

>  <SCORE.INTER.SOLV>
9.49093

>  <SCORE.INTER.VDW>
-15.057

>  <SCORE.INTER.norm>
-0.207741

>  <SCORE.INTRA>
-7.73661

>  <SCORE.INTRA.DIHEDRAL>
-15.5475

>  <SCORE.INTRA.DIHEDRAL.0>
19.2558

>  <SCORE.INTRA.POLAR>
0

>  <SCORE.INTRA.POLAR.0>
0

>  <SCORE.INTRA.REPUL>
0

>  <SCORE.INTRA.REPUL.0>
0

>  <SCORE.INTRA.SOLV>
-2.69103

>  <SCORE.INTRA.SOLV.lig_0>
-64.5929

>  <SCORE.INTRA.VDW>
1.38267

>  <SCORE.INTRA.VDW.0>
-4.40538

>  <SCORE.INTRA.norm>
-0.249568

>  <SCORE.RESTR>
0

>  <SCORE.RESTR.CAVITY>
0

>  <SCORE.RESTR.norm>
0

>  <SCORE.SYSTEM>
0

>  <SCORE.SYSTEM.CONST>
0

>  <SCORE.SYSTEM.DIHEDRAL>
0

>  <SCORE.SYSTEM.SOLV>
0

>  <SCORE.SYSTEM.norm>
0

>  <SCORE.heavy>
31

>  <SCORE.norm>
-0.457309

>  <RMSD>
2.475

$$$$
ligand
 OpenBabel11021811493D
libRbt.so/2013.1/901 2013/11/27
 31 33  0  0  0  0  0  0  0  0999 V2000
  -20.1005  -17.4455  -13.6022 C   0  0  2  0  0  0  0  0  0  0  0  0
  -21.4153  -17.3109  -13.0829 O   0  0  0  0  0  0  0  0  0  0  0  0
  -23.4930  -15.6507  -16.4148 C   0  0  2  0  0  0  0  0  0  0  0  0
  -24.5736  -15.2771  -17.2693 N   0  0  0  0  0  0  0  0  0  0  0  0
  -24.2939  -12.5684  -14.3223 C   0  0  2  0  0  0  0  0  0  0  0  0
  -19.2342  -18.1660  -12.4874 C   0  0  2  0  0  0  0  0  0  0  0  0
  -19.8302  -19.4746  -12.1810 N   0  0  0  0  0  0  0  0  0  0  0  0
  -23.5201  -17.2306  -16.2323 C   0  0  0  0  0  0  0  0  0  0  0  0
  -25.0750  -11.6160  -15.2872 C   0  0  2  0  0  0  0  0  0  0  0  0
  -25.9267  -12.4051  -16.0838 O   0  0  0  0  0  0  0  0  0  0  0  0
  -19.1663  -17.2600  -11.1947 C   0  0  0  0  0  0  0  0  0  0  0  0
  -22.3089  -17.6504  -15.2830 C   0  0  2  0  0  0  0  0  0  0  0  0
  -22.3125  -19.1185  -15.1041 N   0  0  0  0  0  0  0  0  0  0  0  0
  -24.0412  -10.8058  -16.1748 C   0  0  1  0  0  0  0  0  0  0  0  0
  -24.7757   -9.8845  -17.1141 N   0  0  0  0  0  0  0  0  0  0  0  0
  -19.0047  -15.7218  -11.5413 C   0  0  0  0  0  0  0  0  0  0  0  0
  -22.4852  -16.9390  -13.8788 C   0  0  2  0  0  0  0  0  0  0  0  0
  -23.0863   -9.9170  -15.2024 C   0  0  1  0  0  0  0  0  0  0  0  0
  -23.8018   -8.9711  -14.4339 O   0  0  0  0  0  0  0  0  0  0  0  0
  -19.1760  -15.2693  -12.8041 C   0  0  2  0  0  0  0  0  0  0  0  0
  -19.5069  -16.1368  -13.8935 O   0  0  0  0  0  0  0  0  0  0  0  0
  -22.4757  -15.3684  -14.0812 C   0  0  2  0  0  0  0  0  0  0  0  0
  -22.6461  -14.7295  -12.8050 O   0  0  0  0  0  0  0  0  0  0  0  0
  -22.3340  -10.8810  -14.2257 C   0  0  0  0  0  0  0  0  0  0  0  0
  -23.3340  -11.7561  -13.4724 O   0  0  0  0  0  0  0  0  0  0  0  0
  -19.0262  -13.7947  -13.1759 C   0  0  0  0  0  0  0  0  0  0  0  0
  -19.6290  -13.5983  -14.4644 O   0  0  0  0  0  0  0  0  0  0  0  0
  -23.6737  -14.9474  -15.0217 C   0  0  1  0  0  0  0  0  0  0  0  0
  -23.6233  -13.5409  -15.1885 O   0  0  0  0  0  0  0  0  0  0  0  0
  -22.0141   -9.0851  -15.9380 C   0  0  0  0  0  0  0  0  0  0  0  0
  -24.7800  -10.2681  -18.5405 C   0  0  0  0  0  0  0  0  0  0  0  0
  1  2  1  1  0  0  0
  1  6  1  0  0  0  0
  1 21  1  0  0  0  0
  3  4  1  6  0  0  0
  3  8  1  0  0  0  0
  3 28  1  0  0  0  0
  5  9  1  0  0  0  0
  5 25  1  0  0  0  0
  5 29  1  6  0  0  0
  6  7  1  1  0  0  0
  6 11  1  0  0  0  0
  8 12  1  0  0  0  0
  9 10  1  6  0  0  0
  9 14  1  0  0  0  0
 11 16  1  0  0  0  0
 12 13  1  1  0  0  0
 12 17  1  0  0  0  0
 14 15  1  6  0  0  0
 14 18  1  0  0  0  0
 15 31  1  0  0  0  0
 16 20  1  0  0  0  0
 17  2  1  1  0  0  0
 17 22  1  0  0  0  0
 18 19  1  1  0  0  0
 18 24  1  0  0  0  0
 18 30  1  0  0  0  0
 20 21  1  0  0  0  0
 20 26  1  6  0  0  0
 22 23  1  1  0  0  0
 22 28  1  0  0  0  0
 24 25  1  0  0  0  0
 26 27  1  0  0  0  0
 28 29  1  6  0  0  0
M  END
>  <CHROM.1>
-168.36171417,-129.79265166,-107.52578777,38.66641458,-163.94654799,152.03558308
-22.28525725,-14.23462345,-14.52989162,0.94029658,0.66634979,-3.12283554

>  <Name>
ligand

>  <RI>
0

>  <Rbt.Current_Directory>
/home/itssahil/PROJECTS/Mol_Feturizer/New_Systems/rnas/4GPW

>  <Rbt.Executable>
rbdock ($Id: //depot/dev/client3/rdock/2013.1/src/exe/rbdock.cxx#4 $)

>  <Rbt.Library>
libRbt.so (2013.1, Build901 2013/11/27)

>  <Rbt.Parameter_File>
/export/apps/rDock/src/rDock_2013.1_src/data/scripts/dock_solv.prm

>  <Rbt.Receptor>
prm/pocket_docking_2.prm

>  <SCORE>
-7.57694

>  <SCORE.INTER>
-6.97023

>  <SCORE.INTER.CONST>
1

>  <SCORE.INTER.POLAR>
0

>  <SCORE.INTER.ROT>
6

>  <SCORE.INTER.SOLV>
15.2723

>  <SCORE.INTER.VDW>
-17.3376

>  <SCORE.INTER.norm>
-0.224846

>  <SCORE.INTRA>
-0.624423

>  <SCORE.INTRA.DIHEDRAL>
-2.26769

>  <SCORE.INTRA.DIHEDRAL.0>
19.2558

>  <SCORE.INTRA.POLAR>
0

>  <SCORE.INTRA.POLAR.0>
0

>  <SCORE.INTRA.REPUL>
0

>  <SCORE.INTRA.REPUL.0>
0

>  <SCORE.INTRA.SOLV>
-0.425337

>  <SCORE.INTRA.SOLV.lig_0>
-64.5929

>  <SCORE.INTRA.VDW>
0.722092

>  <SCORE.INTRA.VDW.0>
-4.40538

>  <SCORE.INTRA.norm>
-0.0201427

>  <SCORE.RESTR>
0.0177088

>  <SCORE.RESTR.CAVITY>
0.0177088

>  <SCORE.RESTR.norm>
0.000571252

>  <SCORE.SYSTEM>
0

>  <SCORE.SYSTEM.CONST>
0

>  <SCORE.SYSTEM.DIHEDRAL>
0

>  <SCORE.SYSTEM.SOLV>
0

>  <SCORE.SYSTEM.norm>
0

>  <SCORE.heavy>
31

>  <SCORE.norm>
-0.244418

>  <RMSD>
2.477

$$$$
ligand
 OpenBabel11021811493D
libRbt.so/2013.1/901 2013/11/27
 31 33  0  0  0  0  0  0  0  0999 V2000
  -18.3545  -14.6050  -14.1953 C   0  0  2  0  0  0  0  0  0  0  0  0
  -18.7700  -15.2001  -15.4159 O   0  0  0  0  0  0  0  0  0  0  0  0
  -22.2492  -14.7475  -17.8376 C   0  0  2  0  0  0  0  0  0  0  0  0
  -23.6119  -14.8304  -18.2541 N   0  0  0  0  0  0  0  0  0  0  0  0
  -24.0131  -12.2054  -17.0238 C   0  0  2  0  0  0  0  0  0  0  0  0
  -16.7694  -14.6033  -14.1974 C   0  0  2  0  0  0  0  0  0  0  0  0
  -16.2872  -13.8436  -15.3601 N   0  0  0  0  0  0  0  0  0  0  0  0
  -21.7157  -16.2216  -17.5687 C   0  0  0  0  0  0  0  0  0  0  0  0
  -24.0432  -10.6420  -16.9695 C   0  0  2  0  0  0  0  0  0  0  0  0
  -23.1070  -10.1551  -17.9017 O   0  0  0  0  0  0  0  0  0  0  0  0
  -16.2333  -16.0892  -14.2322 C   0  0  0  0  0  0  0  0  0  0  0  0
  -20.1907  -16.1312  -17.1097 C   0  0  2  0  0  0  0  0  0  0  0  0
  -19.6726  -17.4936  -16.8592 N   0  0  0  0  0  0  0  0  0  0  0  0
  -23.6969  -10.1615  -15.4990 C   0  0  1  0  0  0  0  0  0  0  0  0
  -23.7176   -8.6565  -15.4276 N   0  0  0  0  0  0  0  0  0  0  0  0
  -17.0858  -17.0619  -13.3158 C   0  0  0  0  0  0  0  0  0  0  0  0
  -20.1032  -15.2719  -15.7818 C   0  0  2  0  0  0  0  0  0  0  0  0
  -24.8086  -10.7544  -14.4694 C   0  0  1  0  0  0  0  0  0  0  0  0
  -26.1203  -10.3105  -14.7513 O   0  0  0  0  0  0  0  0  0  0  0  0
  -18.2729  -16.6717  -12.7990 C   0  0  2  0  0  0  0  0  0  0  0  0
  -18.8274  -15.3743  -13.0401 O   0  0  0  0  0  0  0  0  0  0  0  0
  -20.6560  -13.8147  -16.0622 C   0  0  2  0  0  0  0  0  0  0  0  0
  -20.5831  -13.0439  -14.8512 O   0  0  0  0  0  0  0  0  0  0  0  0
  -24.7854  -12.3168  -14.5561 C   0  0  0  0  0  0  0  0  0  0  0  0
  -24.9835  -12.7688  -16.0018 O   0  0  0  0  0  0  0  0  0  0  0  0
  -19.1207  -17.5808  -11.9102 C   0  0  0  0  0  0  0  0  0  0  0  0
  -20.3057  -17.9352  -12.6398 O   0  0  0  0  0  0  0  0  0  0  0  0
  -22.1667  -13.8990  -16.5180 C   0  0  1  0  0  0  0  0  0  0  0  0
  -22.6198  -12.5802  -16.7710 O   0  0  0  0  0  0  0  0  0  0  0  0
  -24.5826  -10.3764  -12.9899 C   0  0  0  0  0  0  0  0  0  0  0  0
  -22.4388   -7.9972  -15.0931 C   0  0  0  0  0  0  0  0  0  0  0  0
  1  2  1  6  0  0  0
  1  6  1  0  0  0  0
  1 21  1  0  0  0  0
  3  4  1  1  0  0  0
  3  8  1  0  0  0  0
  3 28  1  0  0  0  0
  5  9  1  0  0  0  0
  5 25  1  0  0  0  0
  5 29  1  1  0  0  0
  6  7  1  6  0  0  0
  6 11  1  0  0  0  0
  8 12  1  0  0  0  0
  9 10  1  6  0  0  0
  9 14  1  0  0  0  0
 11 16  1  0  0  0  0
 12 13  1  1  0  0  0
 12 17  1  0  0  0  0
 14 15  1  6  0  0  0
 14 18  1  0  0  0  0
 15 31  1  0  0  0  0
 16 20  1  0  0  0  0
 17  2  1  6  0  0  0
 17 22  1  0  0  0  0
 18 19  1  6  0  0  0
 18 24  1  0  0  0  0
 18 30  1  0  0  0  0
 20 21  1  0  0  0  0
 20 26  1  1  0  0  0
 22 23  1  1  0  0  0
 22 28  1  0  0  0  0
 24 25  1  0  0  0  0
 26 27  1  0  0  0  0
 28 29  1  6  0  0  0
M  END
>  <CHROM.1>
-175.22035491,169.44456640,-116.98677376,-173.95011793,-111.42116098,71.17384426
-21.31189203,-13.63479355,-15.31534682,-0.46144901,-0.64840172,0.61536600

>  <Name>
ligand

>  <RI>
0

>  <Rbt.Current_Directory>
/home/itssahil/PROJECTS/Mol_Feturizer/New_Systems/rnas/4GPW

>  <Rbt.Executable>
rbdock ($Id: //depot/dev/client3/rdock/2013.1/src/exe/rbdock.cxx#4 $)

>  <Rbt.Library>
libRbt.so (2013.1, Build901 2013/11/27)

>  <Rbt.Parameter_File>
/export/apps/rDock/src/rDock_2013.1_src/data/scripts/dock_solv.prm

>  <Rbt.Receptor>
prm/pocket_docking_5.prm

>  <SCORE>
-14.1006

>  <SCORE.INTER>
-6.43216

>  <SCORE.INTER.CONST>
1

>  <SCORE.INTER.POLAR>
0

>  <SCORE.INTER.ROT>
6

>  <SCORE.INTER.SOLV>
8.22996

>  <SCORE.INTER.VDW>
-14.6314

>  <SCORE.INTER.norm>
-0.207489

>  <SCORE.INTRA>
-7.66848

>  <SCORE.INTRA.DIHEDRAL>
-14.846

>  <SCORE.INTRA.DIHEDRAL.0>
19.2558

>  <SCORE.INTRA.POLAR>
0

>  <SCORE.INTRA.POLAR.0>
0

>  <SCORE.INTRA.REPUL>
0

>  <SCORE.INTRA.REPUL.0>
0

>  <SCORE.INTRA.SOLV>
-2.31622

>  <SCORE.INTRA.SOLV.lig_0>
-64.5929

>  <SCORE.INTRA.VDW>
0.912644

>  <SCORE.INTRA.VDW.0>
-4.40538

>  <SCORE.INTRA.norm>
-0.24737

>  <SCORE.RESTR>
0

>  <SCORE.RESTR.CAVITY>
0

>  <SCORE.RESTR.norm>
0

>  <SCORE.SYSTEM>
0

>  <SCORE.SYSTEM.CONST>
0

>  <SCORE.SYSTEM.DIHEDRAL>
0

>  <SCORE.SYSTEM.SOLV>
0

>  <SCORE.SYSTEM.norm>
0

>  <SCORE.heavy>
31

>  <SCORE.norm>
-0.454859

>  <RMSD>
2.489

$$$$
ligand
 OpenBabel11021811493D
libRbt.so/2013.1/901 2013/11/27
 31 33  0  0  0  0  0  0  0  0999 V2000
  -18.6657  -16.6749  -13.9892 C   0  0  2  0  0  0  0  0  0  0  0  0
  -19.5623  -15.8633  -14.7336 O   0  0  0  0  0  0  0  0  0  0  0  0
  -23.5889  -16.2478  -16.0799 C   0  0  2  0  0  0  0  0  0  0  0  0
  -25.0027  -16.4401  -16.0395 N   0  0  0  0  0  0  0  0  0  0  0  0
  -25.1588  -13.3211  -15.4907 C   0  0  2  0  0  0  0  0  0  0  0  0
  -18.7751  -16.2174  -12.4756 C   0  0  2  0  0  0  0  0  0  0  0  0
  -20.1622  -16.3851  -12.0178 N   0  0  0  0  0  0  0  0  0  0  0  0
  -22.8896  -17.5289  -15.4477 C   0  0  0  0  0  0  0  0  0  0  0  0
  -25.5156  -12.2983  -16.6197 C   0  0  2  0  0  0  0  0  0  0  0  0
  -25.4163  -12.9626  -17.8572 O   0  0  0  0  0  0  0  0  0  0  0  0
  -18.3132  -14.7127  -12.3373 C   0  0  0  0  0  0  0  0  0  0  0  0
  -21.3092  -17.3185  -15.4983 C   0  0  2  0  0  0  0  0  0  0  0  0
  -20.6383  -18.5025  -14.9193 N   0  0  0  0  0  0  0  0  0  0  0  0
  -24.5210  -11.0661  -16.5446 C   0  0  1  0  0  0  0  0  0  0  0  0
  -24.8471  -10.0707  -17.6278 N   0  0  0  0  0  0  0  0  0  0  0  0
  -17.0547  -14.3803  -13.2418 C   0  0  0  0  0  0  0  0  0  0  0  0
  -20.9349  -16.0273  -14.6606 C   0  0  2  0  0  0  0  0  0  0  0  0
  -24.6792  -10.3416  -15.0963 C   0  0  1  0  0  0  0  0  0  0  0  0
  -25.9794   -9.8381  -14.8655 O   0  0  0  0  0  0  0  0  0  0  0  0
  -16.6324  -15.2426  -14.1940 C   0  0  2  0  0  0  0  0  0  0  0  0
  -17.2828  -16.4934  -14.4418 O   0  0  0  0  0  0  0  0  0  0  0  0
  -21.6546  -14.7655  -15.2914 C   0  0  2  0  0  0  0  0  0  0  0  0
  -21.3190  -13.5996  -14.5208 O   0  0  0  0  0  0  0  0  0  0  0  0
  -24.3465  -11.3846  -13.9780 C   0  0  0  0  0  0  0  0  0  0  0  0
  -25.2165  -12.6296  -14.1408 O   0  0  0  0  0  0  0  0  0  0  0  0
  -15.4226  -14.9572  -15.0828 C   0  0  0  0  0  0  0  0  0  0  0  0
  -15.8783  -14.8831  -16.4426 O   0  0  0  0  0  0  0  0  0  0  0  0
  -23.2209  -14.9694  -15.2441 C   0  0  1  0  0  0  0  0  0  0  0  0
  -23.8267  -13.8287  -15.8275 O   0  0  0  0  0  0  0  0  0  0  0  0
  -23.7508   -9.1276  -14.8786 C   0  0  0  0  0  0  0  0  0  0  0  0
  -24.2278  -10.3095  -18.9473 C   0  0  0  0  0  0  0  0  0  0  0  0
  1  2  1  6  0  0  0
  1  6  1  0  0  0  0
  1 21  1  0  0  0  0
  3  4  1  1  0  0  0
  3  8  1  0  0  0  0
  3 28  1  0  0  0  0
  5  9  1  0  0  0  0
  5 25  1  0  0  0  0
  5 29  1  6  0  0  0
  6  7  1  6  0  0  0
  6 11  1  0  0  0  0
  8 12  1  0  0  0  0
  9 10  1  6  0  0  0
  9 14  1  0  0  0  0
 11 16  1  0  0  0  0
 12 13  1  1  0  0  0
 12 17  1  0  0  0  0
 14 15  1  6  0  0  0
 14 18  1  0  0  0  0
 15 31  1  0  0  0  0
 16 20  1  0  0  0  0
 17  2  1  6  0  0  0
 17 22  1  0  0  0  0
 18 19  1  1  0  0  0
 18 24  1  0  0  0  0
 18 30  1  0  0  0  0
 20 21  1  0  0  0  0
 20 26  1  1  0  0  0
 22 23  1  1  0  0  0
 22 28  1  0  0  0  0
 24 25  1  0  0  0  0
 26 27  1  0  0  0  0
 28 29  1  6  0  0  0
M  END
>  <CHROM.1>
-72.81105505,-166.29315436,-86.06181586,-75.64017265,-117.36337964,89.91515639
-21.79642203,-14.10514480,-15.13124684,0.57672060,0.22140512,3.06430751

>  <Name>
ligand

>  <RI>
0

>  <Rbt.Current_Directory>
/home/itssahil/PROJECTS/Mol_Feturizer/New_Systems/rnas/4GPW

>  <Rbt.Executable>
rbdock ($Id: //depot/dev/client3/rdock/2013.1/src/exe/rbdock.cxx#4 $)

>  <Rbt.Library>
libRbt.so (2013.1, Build901 2013/11/27)

>  <Rbt.Parameter_File>
/export/apps/rDock/src/rDock_2013.1_src/data/scripts/dock_solv.prm

>  <Rbt.Receptor>
prm/pocket_docking_4.prm

>  <SCORE>
-13.4035

>  <SCORE.INTER>
-10.0716

>  <SCORE.INTER.CONST>
1

>  <SCORE.INTER.POLAR>
0

>  <SCORE.INTER.ROT>
6

>  <SCORE.INTER.SOLV>
14.8024

>  <SCORE.INTER.VDW>
-19.2485

>  <SCORE.INTER.norm>
-0.324889

>  <SCORE.INTRA>
-3.3319

>  <SCORE.INTRA.DIHEDRAL>
-10.69

>  <SCORE.INTRA.DIHEDRAL.0>
19.2558

>  <SCORE.INTRA.POLAR>
0

>  <SCORE.INTRA.POLAR.0>
0

>  <SCORE.INTRA.REPUL>
0

>  <SCORE.INTRA.REPUL.0>
0

>  <SCORE.INTRA.SOLV>
1.19304

>  <SCORE.INTRA.SOLV.lig_0>
-64.5929

>  <SCORE.INTRA.VDW>
1.41657

>  <SCORE.INTRA.VDW.0>
-4.40538

>  <SCORE.INTRA.norm>
-0.107481

>  <SCORE.RESTR>
0

>  <SCORE.RESTR.CAVITY>
0

>  <SCORE.RESTR.norm>
0

>  <SCORE.SYSTEM>
0

>  <SCORE.SYSTEM.CONST>
0

>  <SCORE.SYSTEM.DIHEDRAL>
0

>  <SCORE.SYSTEM.SOLV>
0

>  <SCORE.SYSTEM.norm>
0

>  <SCORE.heavy>
31

>  <SCORE.norm>
-0.43237

>  <RMSD>
2.490

$$$$
ligand
 OpenBabel11021811493D
libRbt.so/2013.1/901 2013/11/27
 31 33  0  0  0  0  0  0  0  0999 V2000
  -18.6738  -16.9703  -13.9485 C   0  0  2  0  0  0  0  0  0  0  0  0
  -19.5879  -16.1883  -14.7032 O   0  0  0  0  0  0  0  0  0  0  0  0
  -23.6317  -16.6993  -15.9526 C   0  0  2  0  0  0  0  0  0  0  0  0
  -25.0435  -16.8947  -15.8753 N   0  0  0  0  0  0  0  0  0  0  0  0
  -25.2101  -13.7418  -15.5743 C   0  0  2  0  0  0  0  0  0  0  0  0
  -18.5955  -16.3242  -12.5033 C   0  0  2  0  0  0  0  0  0  0  0  0
  -19.9355  -16.3262  -11.8983 N   0  0  0  0  0  0  0  0  0  0  0  0
  -22.9151  -17.9222  -15.2308 C   0  0  0  0  0  0  0  0  0  0  0  0
  -25.5232  -12.6943  -16.6937 C   0  0  2  0  0  0  0  0  0  0  0  0
  -25.4092  -13.3403  -17.9397 O   0  0  0  0  0  0  0  0  0  0  0  0
  -18.0243  -14.8545  -12.6051 C   0  0  0  0  0  0  0  0  0  0  0  0
  -21.3370  -17.7087  -15.3224 C   0  0  2  0  0  0  0  0  0  0  0  0
  -20.6503  -18.8393  -14.6609 N   0  0  0  0  0  0  0  0  0  0  0  0
  -24.5077  -11.4825  -16.5768 C   0  0  1  0  0  0  0  0  0  0  0  0
  -24.7916  -10.4637  -17.6501 N   0  0  0  0  0  0  0  0  0  0  0  0
  -16.8474  -14.7342  -13.6600 C   0  0  0  0  0  0  0  0  0  0  0  0
  -20.9583  -16.3527  -14.5964 C   0  0  2  0  0  0  0  0  0  0  0  0
  -24.6841  -10.7787  -15.1205 C   0  0  1  0  0  0  0  0  0  0  0  0
  -25.9794  -10.2545  -14.9093 O   0  0  0  0  0  0  0  0  0  0  0  0
  -16.5835  -15.7367  -14.5284 C   0  0  2  0  0  0  0  0  0  0  0  0
  -17.3366  -16.9538  -14.5497 O   0  0  0  0  0  0  0  0  0  0  0  0
  -21.6950  -15.1491  -15.3149 C   0  0  2  0  0  0  0  0  0  0  0  0
  -21.3551  -13.9236  -14.6452 O   0  0  0  0  0  0  0  0  0  0  0  0
  -24.3952  -11.8457  -14.0127 C   0  0  0  0  0  0  0  0  0  0  0  0
  -25.2844  -13.0712  -14.2148 O   0  0  0  0  0  0  0  0  0  0  0  0
  -15.4565  -15.6571  -15.5572 C   0  0  0  0  0  0  0  0  0  0  0  0
  -14.2754  -15.1905  -14.8867 O   0  0  0  0  0  0  0  0  0  0  0  0
  -23.2592  -15.3563  -15.2274 C   0  0  1  0  0  0  0  0  0  0  0  0
  -23.8806  -14.2690  -15.8908 O   0  0  0  0  0  0  0  0  0  0  0  0
  -23.7383   -9.5861  -14.8628 C   0  0  0  0  0  0  0  0  0  0  0  0
  -24.0458  -10.6179  -18.9157 C   0  0  0  0  0  0  0  0  0  0  0  0
  1  2  1  6  0  0  0
  1  6  1  0  0  0  0
  1 21  1  0  0  0  0
  3  4  1  1  0  0  0
  3  8  1  0  0  0  0
  3 28  1  0  0  0  0
  5  9  1  0  0  0  0
  5 25  1  0  0  0  0
  5 29  1  6  0  0  0
  6  7  1  6  0  0  0
  6 11  1  0  0  0  0
  8 12  1  0  0  0  0
  9 10  1  6  0  0  0
  9 14  1  0  0  0  0
 11 16  1  0  0  0  0
 12 13  1  1  0  0  0
 12 17  1  0  0  0  0
 14 15  1  6  0  0  0
 14 18  1  0  0  0  0
 15 31  1  0  0  0  0
 16 20  1  0  0  0  0
 17  2  1  6  0  0  0
 17 22  1  0  0  0  0
 18 19  1  1  0  0  0
 18 24  1  0  0  0  0
 18 30  1  0  0  0  0
 20 21  1  0  0  0  0
 20 26  1  1  0  0  0
 22 23  1  1  0  0  0
 22 28  1  0  0  0  0
 24 25  1  0  0  0  0
 26 27  1  0  0  0  0
 28 29  1  6  0  0  0
M  END
>  <CHROM.1>
-80.91668817,-172.40539967,-91.88334852,-73.10425717,47.03800610,89.97931334
-21.72015790,-14.47773346,-15.10970859,0.53756538,0.19701060,3.02814823

>  <Name>
ligand

>  <RI>
0

>  <Rbt.Current_Directory>
/home/itssahil/PROJECTS/Mol_Feturizer/New_Systems/rnas/4GPW

>  <Rbt.Executable>
rbdock ($Id: //depot/dev/client3/rdock/2013.1/src/exe/rbdock.cxx#4 $)

>  <Rbt.Library>
libRbt.so (2013.1, Build901 2013/11/27)

>  <Rbt.Parameter_File>
/export/apps/rDock/src/rDock_2013.1_src/data/scripts/dock_solv.prm

>  <Rbt.Receptor>
prm/pocket_docking_6.prm

>  <SCORE>
-12.5227

>  <SCORE.INTER>
-10.1166

>  <SCORE.INTER.CONST>
1

>  <SCORE.INTER.POLAR>
0

>  <SCORE.INTER.ROT>
6

>  <SCORE.INTER.SOLV>
17.3638

>  <SCORE.INTER.VDW>
-20.1323

>  <SCORE.INTER.norm>
-0.326341

>  <SCORE.INTRA>
-2.40617

>  <SCORE.INTRA.DIHEDRAL>
-8.56159

>  <SCORE.INTRA.DIHEDRAL.0>
19.2558

>  <SCORE.INTRA.POLAR>
0

>  <SCORE.INTRA.POLAR.0>
0

>  <SCORE.INTRA.REPUL>
0

>  <SCORE.INTRA.REPUL.0>
0

>  <SCORE.INTRA.SOLV>
0.504219

>  <SCORE.INTRA.SOLV.lig_0>
-64.5929

>  <SCORE.INTRA.VDW>
1.62252

>  <SCORE.INTRA.VDW.0>
-4.40538

>  <SCORE.INTRA.norm>
-0.0776183

>  <SCORE.RESTR>
0

>  <SCORE.RESTR.CAVITY>
0

>  <SCORE.RESTR.norm>
0

>  <SCORE.SYSTEM>
0

>  <SCORE.SYSTEM.CONST>
0

>  <SCORE.SYSTEM.DIHEDRAL>
0

>  <SCORE.SYSTEM.SOLV>
0

>  <SCORE.SYSTEM.norm>
0

>  <SCORE.heavy>
31

>  <SCORE.norm>
-0.403959

>  <RMSD>
2.495

$$$$
ligand
 OpenBabel11021811493D
libRbt.so/2013.1/901 2013/11/27
 31 33  0  0  0  0  0  0  0  0999 V2000
  -20.0916  -17.2869  -13.5644 C   0  0  2  0  0  0  0  0  0  0  0  0
  -21.4292  -17.2547  -13.0885 O   0  0  0  0  0  0  0  0  0  0  0  0
  -23.4948  -15.7696  -16.5094 C   0  0  2  0  0  0  0  0  0  0  0  0
  -24.5707  -15.4558  -17.3933 N   0  0  0  0  0  0  0  0  0  0  0  0
  -24.2438  -12.6245  -14.4358 C   0  0  2  0  0  0  0  0  0  0  0  0
  -19.2114  -17.9516  -12.4261 C   0  0  2  0  0  0  0  0  0  0  0  0
  -19.7185  -19.3035  -12.1486 N   0  0  0  0  0  0  0  0  0  0  0  0
  -23.4829  -17.3422  -16.2713 C   0  0  0  0  0  0  0  0  0  0  0  0
  -24.9699  -11.5698  -15.3350 C   0  0  2  0  0  0  0  0  0  0  0  0
  -25.9223  -12.2478  -16.1199 O   0  0  0  0  0  0  0  0  0  0  0  0
  -19.2535  -17.0550  -11.1257 C   0  0  0  0  0  0  0  0  0  0  0  0
  -22.2768  -17.6954  -15.2889 C   0  0  2  0  0  0  0  0  0  0  0  0
  -22.2443  -19.1559  -15.0581 N   0  0  0  0  0  0  0  0  0  0  0  0
  -23.9007  -10.8264  -16.2391 C   0  0  1  0  0  0  0  0  0  0  0  0
  -24.5824   -9.8079  -17.1158 N   0  0  0  0  0  0  0  0  0  0  0  0
  -19.1952  -15.5059  -11.4564 C   0  0  0  0  0  0  0  0  0  0  0  0
  -22.4952  -16.9402  -13.9137 C   0  0  2  0  0  0  0  0  0  0  0  0
  -22.8295  -10.0651  -15.2798 C   0  0  1  0  0  0  0  0  0  0  0  0
  -23.4226   -9.0860  -14.4511 O   0  0  0  0  0  0  0  0  0  0  0  0
  -19.3578  -15.0558  -12.7211 C   0  0  2  0  0  0  0  0  0  0  0  0
  -19.5874  -15.9353  -13.8268 O   0  0  0  0  0  0  0  0  0  0  0  0
  -22.5242  -15.3780  -14.1716 C   0  0  2  0  0  0  0  0  0  0  0  0
  -22.7327  -14.6996  -12.9218 O   0  0  0  0  0  0  0  0  0  0  0  0
  -22.1326  -11.1291  -14.3680 C   0  0  0  0  0  0  0  0  0  0  0  0
  -23.1795  -11.9353  -13.6016 O   0  0  0  0  0  0  0  0  0  0  0  0
  -19.3058  -13.5708  -13.0778 C   0  0  0  0  0  0  0  0  0  0  0  0
  -18.0687  -13.3220  -13.7633 O   0  0  0  0  0  0  0  0  0  0  0  0
  -23.7173  -15.0230  -15.1451 C   0  0  1  0  0  0  0  0  0  0  0  0
  -23.7016  -13.6224  -15.3609 O   0  0  0  0  0  0  0  0  0  0  0  0
  -21.7140   -9.3092  -16.0330 C   0  0  0  0  0  0  0  0  0  0  0  0
  -24.7970  -10.1933  -18.5254 C   0  0  0  0  0  0  0  0  0  0  0  0
  1  2  1  1  0  0  0
  1  6  1  0  0  0  0
  1 21  1  0  0  0  0
  3  4  1  6  0  0  0
  3  8  1  0  0  0  0
  3 28  1  0  0  0  0
  5  9  1  0  0  0  0
  5 25  1  0  0  0  0
  5 29  1  6  0  0  0
  6  7  1  1  0  0  0
  6 11  1  0  0  0  0
  8 12  1  0  0  0  0
  9 10  1  6  0  0  0
  9 14  1  0  0  0  0
 11 16  1  0  0  0  0
 12 13  1  1  0  0  0
 12 17  1  0  0  0  0
 14 15  1  6  0  0  0
 14 18  1  0  0  0  0
 15 31  1  0  0  0  0
 16 20  1  0  0  0  0
 17  2  1  1  0  0  0
 17 22  1  0  0  0  0
 18 19  1  1  0  0  0
 18 24  1  0  0  0  0
 18 30  1  0  0  0  0
 20 21  1  0  0  0  0
 20 26  1  6  0  0  0
 22 23  1  1  0  0  0
 22 28  1  0  0  0  0
 24 25  1  0  0  0  0
 26 27  1  0  0  0  0
 28 29  1  6  0  0  0
M  END
>  <CHROM.1>
-169.13993830,-138.89699486,-101.73844587,42.82024772,106.98933416,161.53022132
-22.19759427,-14.21202884,-14.53505125,0.95096822,0.64413509,3.11081037

>  <Name>
ligand

>  <RI>
0

>  <Rbt.Current_Directory>
/home/itssahil/PROJECTS/Mol_Feturizer/New_Systems/rnas/4GPW

>  <Rbt.Executable>
rbdock ($Id: //depot/dev/client3/rdock/2013.1/src/exe/rbdock.cxx#4 $)

>  <Rbt.Library>
libRbt.so (2013.1, Build901 2013/11/27)

>  <Rbt.Parameter_File>
/export/apps/rDock/src/rDock_2013.1_src/data/scripts/dock_solv.prm

>  <Rbt.Receptor>
prm/pocket_docking_3.prm

>  <SCORE>
-9.83337

>  <SCORE.INTER>
-6.23858

>  <SCORE.INTER.CONST>
1

>  <SCORE.INTER.POLAR>
0

>  <SCORE.INTER.ROT>
6

>  <SCORE.INTER.SOLV>
14.6689

>  <SCORE.INTER.VDW>
-16.6487

>  <SCORE.INTER.norm>
-0.201245

>  <SCORE.INTRA>
-3.59478

>  <SCORE.INTRA.DIHEDRAL>
-7.34223

>  <SCORE.INTRA.DIHEDRAL.0>
19.2558

>  <SCORE.INTRA.POLAR>
0

>  <SCORE.INTRA.POLAR.0>
0

>  <SCORE.INTRA.REPUL>
0

>  <SCORE.INTRA.REPUL.0>
0

>  <SCORE.INTRA.SOLV>
-1.3832

>  <SCORE.INTRA.SOLV.lig_0>
-64.5929

>  <SCORE.INTRA.VDW>
0.767933

>  <SCORE.INTRA.VDW.0>
-4.40538

>  <SCORE.INTRA.norm>
-0.115961

>  <SCORE.RESTR>
0

>  <SCORE.RESTR.CAVITY>
0

>  <SCORE.RESTR.norm>
0

>  <SCORE.SYSTEM>
0

>  <SCORE.SYSTEM.CONST>
0

>  <SCORE.SYSTEM.DIHEDRAL>
0

>  <SCORE.SYSTEM.SOLV>
0

>  <SCORE.SYSTEM.norm>
0

>  <SCORE.heavy>
31

>  <SCORE.norm>
-0.317205

>  <RMSD>
2.528

$$$$
ligand
 OpenBabel11021811493D
libRbt.so/2013.1/901 2013/11/27
 31 33  0  0  0  0  0  0  0  0999 V2000
  -18.4016  -16.4701  -13.8635 C   0  0  2  0  0  0  0  0  0  0  0  0
  -19.3355  -15.7865  -14.6863 O   0  0  0  0  0  0  0  0  0  0  0  0
  -23.3856  -16.3451  -15.8944 C   0  0  2  0  0  0  0  0  0  0  0  0
  -24.7922  -16.5696  -15.8032 N   0  0  0  0  0  0  0  0  0  0  0  0
  -25.0396  -13.4693  -15.4674 C   0  0  2  0  0  0  0  0  0  0  0  0
  -18.4466  -15.7776  -12.4384 C   0  0  2  0  0  0  0  0  0  0  0  0
  -19.8109  -15.8692  -11.8980 N   0  0  0  0  0  0  0  0  0  0  0  0
  -22.6360  -17.5710  -15.2124 C   0  0  0  0  0  0  0  0  0  0  0  0
  -25.4024  -12.4490  -16.5968 C   0  0  2  0  0  0  0  0  0  0  0  0
  -25.2417  -13.0958  -17.8371 O   0  0  0  0  0  0  0  0  0  0  0  0
  -17.9884  -14.2705  -12.5618 C   0  0  0  0  0  0  0  0  0  0  0  0
  -21.0637  -17.3249  -15.3195 C   0  0  2  0  0  0  0  0  0  0  0  0
  -20.3466  -18.4577  -14.6950 N   0  0  0  0  0  0  0  0  0  0  0  0
  -24.4585  -11.1806  -16.4807 C   0  0  1  0  0  0  0  0  0  0  0  0
  -24.7909  -10.1869  -17.5635 N   0  0  0  0  0  0  0  0  0  0  0  0
  -16.7734  -14.0873  -13.5632 C   0  0  0  0  0  0  0  0  0  0  0  0
  -20.7009  -15.9799  -14.5655 C   0  0  2  0  0  0  0  0  0  0  0  0
  -24.6866  -10.4781  -15.0309 C   0  0  1  0  0  0  0  0  0  0  0  0
  -26.0113  -10.0270  -14.8337 O   0  0  0  0  0  0  0  0  0  0  0  0
  -16.3884  -15.0905  -14.3843 C   0  0  2  0  0  0  0  0  0  0  0  0
  -17.0415  -16.3642  -14.4007 O   0  0  0  0  0  0  0  0  0  0  0  0
  -21.4702  -14.7736  -15.2444 C   0  0  2  0  0  0  0  0  0  0  0  0
  -21.1445  -13.5584  -14.5494 O   0  0  0  0  0  0  0  0  0  0  0  0
  -24.3467  -11.5194  -13.9132 C   0  0  0  0  0  0  0  0  0  0  0  0
  -25.1631  -12.7949  -14.1134 O   0  0  0  0  0  0  0  0  0  0  0  0
  -15.2211  -14.9511  -15.3604 C   0  0  0  0  0  0  0  0  0  0  0  0
  -15.7445  -15.0446  -16.6945 O   0  0  0  0  0  0  0  0  0  0  0  0
  -23.0288  -15.0132  -15.1414 C   0  0  1  0  0  0  0  0  0  0  0  0
  -23.6798  -13.9222  -15.7696 O   0  0  0  0  0  0  0  0  0  0  0  0
  -23.8122   -9.2320  -14.7744 C   0  0  0  0  0  0  0  0  0  0  0  0
  -24.1610  -10.4149  -18.8800 C   0  0  0  0  0  0  0  0  0  0  0  0
  1  2  1  6  0  0  0
  1  6  1  0  0  0  0
  1 21  1  0  0  0  0
  3  4  1  1  0  0  0
  3  8  1  0  0  0  0
  3 28  1  0  0  0  0
  5  9  1  0  0  0  0
  5 25  1  0  0  0  0
  5 29  1  6  0  0  0
  6  7  1  6  0  0  0
  6 11  1  0  0  0  0
  8 12  1  0  0  0  0
  9 10  1  6  0  0  0
  9 14  1  0  0  0  0
 11 16  1  0  0  0  0
 12 13  1  1  0  0  0
 12 17  1  0  0  0  0
 14 15  1  6  0  0  0
 14 18  1  0  0  0  0
 15 31  1  0  0  0  0
 16 20  1  0  0  0  0
 17  2  1  6  0  0  0
 17 22  1  0  0  0  0
 18 19  1  1  0  0  0
 18 24  1  0  0  0  0
 18 30  1  0  0  0  0
 20 21  1  0  0  0  0
 20 26  1  1  0  0  0
 22 23  1  1  0  0  0
 22 28  1  0  0  0  0
 24 25  1  0  0  0  0
 26 27  1  0  0  0  0
 28 29  1  6  0  0  0
M  END
>  <CHROM.1>
-75.68788810,-168.91936402,-84.02019657,-79.78733498,-115.27426771,86.85977167
-21.62791127,-14.09788212,-15.10126047,0.53840383,0.18116695,3.04097803

>  <Name>
ligand

>  <RI>
0

>  <Rbt.Current_Directory>
/home/itssahil/PROJECTS/Mol_Feturizer/New_Systems/rnas/4GPW

>  <Rbt.Executable>
rbdock ($Id: //depot/dev/client3/rdock/2013.1/src/exe/rbdock.cxx#4 $)

>  <Rbt.Library>
libRbt.so (2013.1, Build901 2013/11/27)

>  <Rbt.Parameter_File>
/export/apps/rDock/src/rDock_2013.1_src/data/scripts/dock_solv.prm

>  <Rbt.Receptor>
prm/pocket_docking_5.prm

>  <SCORE>
-13.6239

>  <SCORE.INTER>
-9.98951

>  <SCORE.INTER.CONST>
1

>  <SCORE.INTER.POLAR>
0

>  <SCORE.INTER.ROT>
6

>  <SCORE.INTER.SOLV>
14.4617

>  <SCORE.INTER.VDW>
-19.0802

>  <SCORE.INTER.norm>
-0.322242

>  <SCORE.INTRA>
-3.63439

>  <SCORE.INTRA.DIHEDRAL>
-10.6118

>  <SCORE.INTRA.DIHEDRAL.0>
19.2558

>  <SCORE.INTRA.POLAR>
0

>  <SCORE.INTRA.POLAR.0>
0

>  <SCORE.INTRA.REPUL>
0

>  <SCORE.INTRA.REPUL.0>
0

>  <SCORE.INTRA.SOLV>
0.772512

>  <SCORE.INTRA.SOLV.lig_0>
-64.5929

>  <SCORE.INTRA.VDW>
1.28527

>  <SCORE.INTRA.VDW.0>
-4.40538

>  <SCORE.INTRA.norm>
-0.117238

>  <SCORE.RESTR>
0

>  <SCORE.RESTR.CAVITY>
0

>  <SCORE.RESTR.norm>
0

>  <SCORE.SYSTEM>
0

>  <SCORE.SYSTEM.CONST>
0

>  <SCORE.SYSTEM.DIHEDRAL>
0

>  <SCORE.SYSTEM.SOLV>
0

>  <SCORE.SYSTEM.norm>
0

>  <SCORE.heavy>
31

>  <SCORE.norm>
-0.43948

>  <RMSD>
2.572

$$$$
ligand
 OpenBabel11021811493D
libRbt.so/2013.1/901 2013/11/27
 31 33  0  0  0  0  0  0  0  0999 V2000
  -19.8384  -17.0433  -13.9565 C   0  0  2  0  0  0  0  0  0  0  0  0
  -21.0738  -17.1572  -13.2657 O   0  0  0  0  0  0  0  0  0  0  0  0
  -23.8256  -16.3956  -16.4315 C   0  0  2  0  0  0  0  0  0  0  0  0
  -25.0635  -16.2868  -17.1337 N   0  0  0  0  0  0  0  0  0  0  0  0
  -25.1666  -13.2538  -15.5079 C   0  0  2  0  0  0  0  0  0  0  0  0
  -18.6994  -17.4742  -12.9419 C   0  0  2  0  0  0  0  0  0  0  0  0
  -18.9438  -18.8539  -12.4965 N   0  0  0  0  0  0  0  0  0  0  0  0
  -23.6615  -17.8970  -15.9325 C   0  0  0  0  0  0  0  0  0  0  0  0
  -24.8962  -11.9736  -16.3660 C   0  0  2  0  0  0  0  0  0  0  0  0
  -24.5993  -12.3840  -17.6798 O   0  0  0  0  0  0  0  0  0  0  0  0
  -18.6740  -16.4807  -11.7135 C   0  0  0  0  0  0  0  0  0  0  0  0
  -22.2752  -18.0218  -15.1534 C   0  0  2  0  0  0  0  0  0  0  0  0
  -22.0999  -19.4136  -14.6848 N   0  0  0  0  0  0  0  0  0  0  0  0
  -23.6935  -11.1602  -15.7297 C   0  0  1  0  0  0  0  0  0  0  0  0
  -23.4155   -9.9241  -16.5453 N   0  0  0  0  0  0  0  0  0  0  0  0
  -18.9061  -14.9743  -12.1485 C   0  0  0  0  0  0  0  0  0  0  0  0
  -22.2915  -17.0367  -13.9131 C   0  0  2  0  0  0  0  0  0  0  0  0
  -24.0929  -10.7157  -14.2163 C   0  0  1  0  0  0  0  0  0  0  0  0
  -25.2309   -9.8794  -14.1644 O   0  0  0  0  0  0  0  0  0  0  0  0
  -19.3319  -14.6653  -13.3943 C   0  0  2  0  0  0  0  0  0  0  0  0
  -19.5945  -15.6629  -14.3866 O   0  0  0  0  0  0  0  0  0  0  0  0
  -22.4752  -15.5498  -14.4261 C   0  0  2  0  0  0  0  0  0  0  0  0
  -22.4993  -14.6627  -13.2955 O   0  0  0  0  0  0  0  0  0  0  0  0
  -24.3874  -12.0048  -13.3793 C   0  0  0  0  0  0  0  0  0  0  0  0
  -25.4523  -12.8529  -14.0721 O   0  0  0  0  0  0  0  0  0  0  0  0
  -19.5642  -13.2253  -13.8496 C   0  0  0  0  0  0  0  0  0  0  0  0
  -18.6652  -12.9526  -14.9357 O   0  0  0  0  0  0  0  0  0  0  0  0
  -23.8473  -15.4211  -15.1994 C   0  0  1  0  0  0  0  0  0  0  0  0
  -23.9684  -14.0837  -15.6525 O   0  0  0  0  0  0  0  0  0  0  0  0
  -22.9986   -9.9256  -13.4671 C   0  0  0  0  0  0  0  0  0  0  0  0
  -22.0120   -9.4655  -16.5852 C   0  0  0  0  0  0  0  0  0  0  0  0
  1  2  1  1  0  0  0
  1  6  1  0  0  0  0
  1 21  1  0  0  0  0
  3  4  1  1  0  0  0
  3  8  1  0  0  0  0
  3 28  1  0  0  0  0
  5  9  1  0  0  0  0
  5 25  1  0  0  0  0
  5 29  1  1  0  0  0
  6  7  1  1  0  0  0
  6 11  1  0  0  0  0
  8 12  1  0  0  0  0
  9 10  1  6  0  0  0
  9 14  1  0  0  0  0
 11 16  1  0  0  0  0
 12 13  1  1  0  0  0
 12 17  1  0  0  0  0
 14 15  1  6  0  0  0
 14 18  1  0  0  0  0
 15 31  1  0  0  0  0
 16 20  1  0  0  0  0
 17  2  1  6  0  0  0
 17 22  1  0  0  0  0
 18 19  1  6  0  0  0
 18 24  1  0  0  0  0
 18 30  1  0  0  0  0
 20 21  1  0  0  0  0
 20 26  1  6  0  0  0
 22 23  1  1  0  0  0
 22 28  1  0  0  0  0
 24 25  1  0  0  0  0
 26 27  1  0  0  0  0
 28 29  1  6  0  0  0
M  END
>  <CHROM.1>
-170.78615284,-170.62961535,-148.41777048,51.68025639,118.02486228,108.71793094
-22.30057428,-14.36071564,-14.60174718,-0.91948588,-0.48336177,0.03526350

>  <Name>
ligand

>  <RI>
0

>  <Rbt.Current_Directory>
/home/itssahil/PROJECTS/Mol_Feturizer/New_Systems/rnas/4GPW

>  <Rbt.Executable>
rbdock ($Id: //depot/dev/client3/rdock/2013.1/src/exe/rbdock.cxx#4 $)

>  <Rbt.Library>
libRbt.so (2013.1, Build901 2013/11/27)

>  <Rbt.Parameter_File>
/export/apps/rDock/src/rDock_2013.1_src/data/scripts/dock_solv.prm

>  <Rbt.Receptor>
prm/pocket_docking_2.prm

>  <SCORE>
-7.6302

>  <SCORE.INTER>
-3.25737

>  <SCORE.INTER.CONST>
1

>  <SCORE.INTER.POLAR>
0

>  <SCORE.INTER.ROT>
6

>  <SCORE.INTER.SOLV>
12.9507

>  <SCORE.INTER.VDW>
-14.0885

>  <SCORE.INTER.norm>
-0.105076

>  <SCORE.INTRA>
-4.42257

>  <SCORE.INTRA.DIHEDRAL>
-9.15946

>  <SCORE.INTRA.DIHEDRAL.0>
19.2558

>  <SCORE.INTRA.POLAR>
0

>  <SCORE.INTRA.POLAR.0>
0

>  <SCORE.INTRA.REPUL>
0

>  <SCORE.INTRA.REPUL.0>
0

>  <SCORE.INTRA.SOLV>
-1.39576

>  <SCORE.INTRA.SOLV.lig_0>
-64.5929

>  <SCORE.INTRA.VDW>
0.855044

>  <SCORE.INTRA.VDW.0>
-4.40538

>  <SCORE.INTRA.norm>
-0.142663

>  <SCORE.RESTR>
0.0497283

>  <SCORE.RESTR.CAVITY>
0.0497283

>  <SCORE.RESTR.norm>
0.00160414

>  <SCORE.SYSTEM>
0

>  <SCORE.SYSTEM.CONST>
0

>  <SCORE.SYSTEM.DIHEDRAL>
0

>  <SCORE.SYSTEM.SOLV>
0

>  <SCORE.SYSTEM.norm>
0

>  <SCORE.heavy>
31

>  <SCORE.norm>
-0.246136

>  <RMSD>
2.596

$$$$
ligand
 OpenBabel11021811493D
libRbt.so/2013.1/901 2013/11/27
 31 33  0  0  0  0  0  0  0  0999 V2000
  -18.9974  -15.5465  -13.6454 C   0  0  2  0  0  0  0  0  0  0  0  0
  -18.9901  -15.6334  -15.0628 O   0  0  0  0  0  0  0  0  0  0  0  0
  -21.6299  -14.2654  -18.1181 C   0  0  2  0  0  0  0  0  0  0  0  0
  -22.8023  -14.1528  -18.9243 N   0  0  0  0  0  0  0  0  0  0  0  0
  -23.7834  -12.1091  -16.9144 C   0  0  2  0  0  0  0  0  0  0  0  0
  -17.4838  -15.5176  -13.1758 C   0  0  2  0  0  0  0  0  0  0  0  0
  -16.8097  -14.3611  -13.7842 N   0  0  0  0  0  0  0  0  0  0  0  0
  -21.1020  -15.7632  -18.2058 C   0  0  0  0  0  0  0  0  0  0  0  0
  -23.7436  -10.5508  -16.7789 C   0  0  2  0  0  0  0  0  0  0  0  0
  -22.7021  -10.0685  -17.5945 O   0  0  0  0  0  0  0  0  0  0  0  0
  -16.7709  -16.8666  -13.5862 C   0  0  0  0  0  0  0  0  0  0  0  0
  -19.7877  -15.8890  -17.3107 C   0  0  2  0  0  0  0  0  0  0  0  0
  -19.2765  -17.2750  -17.3826 N   0  0  0  0  0  0  0  0  0  0  0  0
  -23.5138  -10.1623  -15.2592 C   0  0  1  0  0  0  0  0  0  0  0  0
  -23.4690   -8.6636  -15.1090 N   0  0  0  0  0  0  0  0  0  0  0  0
  -17.7049  -18.1310  -13.3826 C   0  0  0  0  0  0  0  0  0  0  0  0
  -20.1499  -15.5284  -15.8113 C   0  0  2  0  0  0  0  0  0  0  0  0
  -24.7439  -10.7459  -14.3685 C   0  0  1  0  0  0  0  0  0  0  0  0
  -26.0008  -10.2202  -14.7440 O   0  0  0  0  0  0  0  0  0  0  0  0
  -19.0272  -17.9896  -13.1372 C   0  0  2  0  0  0  0  0  0  0  0  0
  -19.6593  -16.7087  -13.0444 O   0  0  0  0  0  0  0  0  0  0  0  0
  -20.6918  -14.0419  -15.7452 C   0  0  2  0  0  0  0  0  0  0  0  0
  -21.0279  -13.7249  -14.3841 O   0  0  0  0  0  0  0  0  0  0  0  0
  -24.7875  -12.3012  -14.5368 C   0  0  0  0  0  0  0  0  0  0  0  0
  -24.8710  -12.6703  -16.0167 O   0  0  0  0  0  0  0  0  0  0  0  0
  -19.9575  -19.1846  -12.9336 C   0  0  0  0  0  0  0  0  0  0  0  0
  -20.8690  -19.2315  -14.0423 O   0  0  0  0  0  0  0  0  0  0  0  0
  -21.9938  -13.9120  -16.6311 C   0  0  1  0  0  0  0  0  0  0  0  0
  -22.4394  -12.5687  -16.5566 O   0  0  0  0  0  0  0  0  0  0  0  0
  -24.6395  -10.4536  -12.8563 C   0  0  0  0  0  0  0  0  0  0  0  0
  -22.1288   -8.0426  -15.1155 C   0  0  0  0  0  0  0  0  0  0  0  0
  1  2  1  6  0  0  0
  1  6  1  0  0  0  0
  1 21  1  0  0  0  0
  3  4  1  6  0  0  0
  3  8  1  0  0  0  0
  3 28  1  0  0  0  0
  5  9  1  0  0  0  0
  5 25  1  0  0  0  0
  5 29  1  1  0  0  0
  6  7  1  6  0  0  0
  6 11  1  0  0  0  0
  8 12  1  0  0  0  0
  9 10  1  6  0  0  0
  9 14  1  0  0  0  0
 11 16  1  0  0  0  0
 12 13  1  1  0  0  0
 12 17  1  0  0  0  0
 14 15  1  6  0  0  0
 14 18  1  0  0  0  0
 15 31  1  0  0  0  0
 16 20  1  0  0  0  0
 17  2  1  1  0  0  0
 17 22  1  0  0  0  0
 18 19  1  6  0  0  0
 18 24  1  0  0  0  0
 18 30  1  0  0  0  0
 20 21  1  0  0  0  0
 20 26  1  1  0  0  0
 22 23  1  1  0  0  0
 22 28  1  0  0  0  0
 24 25  1  0  0  0  0
 26 27  1  0  0  0  0
 28 29  1  6  0  0  0
M  END
>  <CHROM.1>
-172.61881467,-175.34469110,-95.28875987,-171.60263547,-112.81359788,79.51312131
-21.36960001,-13.92955923,-15.27955037,-0.29591417,-0.88794348,0.98794833

>  <Name>
ligand

>  <RI>
0

>  <Rbt.Current_Directory>
/home/itssahil/PROJECTS/Mol_Feturizer/New_Systems/rnas/4GPW

>  <Rbt.Executable>
rbdock ($Id: //depot/dev/client3/rdock/2013.1/src/exe/rbdock.cxx#4 $)

>  <Rbt.Library>
libRbt.so (2013.1, Build901 2013/11/27)

>  <Rbt.Parameter_File>
/export/apps/rDock/src/rDock_2013.1_src/data/scripts/dock_solv.prm

>  <Rbt.Receptor>
prm/pocket_docking_6.prm

>  <SCORE>
-13.6099

>  <SCORE.INTER>
-6.07346

>  <SCORE.INTER.CONST>
1

>  <SCORE.INTER.POLAR>
0

>  <SCORE.INTER.ROT>
6

>  <SCORE.INTER.SOLV>
10.1208

>  <SCORE.INTER.VDW>
-15.0226

>  <SCORE.INTER.norm>
-0.195918

>  <SCORE.INTRA>
-7.53648

>  <SCORE.INTRA.DIHEDRAL>
-14.2964

>  <SCORE.INTRA.DIHEDRAL.0>
19.2558

>  <SCORE.INTRA.POLAR>
0

>  <SCORE.INTRA.POLAR.0>
0

>  <SCORE.INTRA.REPUL>
0

>  <SCORE.INTRA.REPUL.0>
0

>  <SCORE.INTRA.SOLV>
-2.4481

>  <SCORE.INTRA.SOLV.lig_0>
-64.5929

>  <SCORE.INTRA.VDW>
0.835783

>  <SCORE.INTRA.VDW.0>
-4.40538

>  <SCORE.INTRA.norm>
-0.243112

>  <SCORE.RESTR>
0

>  <SCORE.RESTR.CAVITY>
0

>  <SCORE.RESTR.norm>
0

>  <SCORE.SYSTEM>
0

>  <SCORE.SYSTEM.CONST>
0

>  <SCORE.SYSTEM.DIHEDRAL>
0

>  <SCORE.SYSTEM.SOLV>
0

>  <SCORE.SYSTEM.norm>
0

>  <SCORE.heavy>
31

>  <SCORE.norm>
-0.43903

>  <RMSD>
2.609

$$$$
ligand
 OpenBabel11021811493D
libRbt.so/2013.1/901 2013/11/27
 31 33  0  0  0  0  0  0  0  0999 V2000
  -19.4962  -17.6513  -14.0202 C   0  0  2  0  0  0  0  0  0  0  0  0
  -20.7063  -17.4789  -13.2974 O   0  0  0  0  0  0  0  0  0  0  0  0
  -23.4913  -16.3610  -16.3255 C   0  0  2  0  0  0  0  0  0  0  0  0
  -24.7309  -16.2140  -17.0175 N   0  0  0  0  0  0  0  0  0  0  0  0
  -24.5100  -13.3431  -14.2428 C   0  0  2  0  0  0  0  0  0  0  0  0
  -18.4365  -18.2592  -13.0102 C   0  0  2  0  0  0  0  0  0  0  0  0
  -18.9415  -19.5382  -12.4898 N   0  0  0  0  0  0  0  0  0  0  0  0
  -23.2267  -17.9121  -16.0929 C   0  0  0  0  0  0  0  0  0  0  0  0
  -24.9448  -12.1147  -15.1090 C   0  0  2  0  0  0  0  0  0  0  0  0
  -25.6976  -12.5938  -16.1982 O   0  0  0  0  0  0  0  0  0  0  0  0
  -18.1707  -17.2370  -11.8350 C   0  0  0  0  0  0  0  0  0  0  0  0
  -21.8382  -18.0784  -15.3256 C   0  0  2  0  0  0  0  0  0  0  0  0
  -21.5700  -19.5158  -15.1037 N   0  0  0  0  0  0  0  0  0  0  0  0
  -23.6542  -11.3347  -15.5980 C   0  0  1  0  0  0  0  0  0  0  0  0
  -24.0530  -10.1488  -16.4377 N   0  0  0  0  0  0  0  0  0  0  0  0
  -18.1060  -15.7363  -12.3411 C   0  0  0  0  0  0  0  0  0  0  0  0
  -21.9268  -17.3285  -13.9331 C   0  0  2  0  0  0  0  0  0  0  0  0
  -22.8265  -10.8082  -14.2998 C   0  0  1  0  0  0  0  0  0  0  0  0
  -23.5675   -9.9162  -13.4921 O   0  0  0  0  0  0  0  0  0  0  0  0
  -18.4998  -15.4039  -13.5913 C   0  0  2  0  0  0  0  0  0  0  0  0
  -18.9910  -16.3709  -14.5254 O   0  0  0  0  0  0  0  0  0  0  0  0
  -22.2098  -15.7905  -14.1823 C   0  0  2  0  0  0  0  0  0  0  0  0
  -22.2990  -15.1182  -12.9151 O   0  0  0  0  0  0  0  0  0  0  0  0
  -22.4236  -12.0453  -13.4301 C   0  0  0  0  0  0  0  0  0  0  0  0
  -23.6608  -12.8690  -13.0776 O   0  0  0  0  0  0  0  0  0  0  0  0
  -18.4494  -13.9690  -14.1143 C   0  0  0  0  0  0  0  0  0  0  0  0
  -17.5009  -13.2400  -13.3200 O   0  0  0  0  0  0  0  0  0  0  0  0
  -23.5844  -15.6204  -14.9430 C   0  0  1  0  0  0  0  0  0  0  0  0
  -23.7950  -14.2355  -15.1582 O   0  0  0  0  0  0  0  0  0  0  0  0
  -21.5284  -10.0414  -14.6312 C   0  0  0  0  0  0  0  0  0  0  0  0
  -24.8593   -9.1096  -15.7656 C   0  0  0  0  0  0  0  0  0  0  0  0
  1  2  1  1  0  0  0
  1  6  1  0  0  0  0
  1 21  1  0  0  0  0
  3  4  1  1  0  0  0
  3  8  1  0  0  0  0
  3 28  1  0  0  0  0
  5  9  1  0  0  0  0
  5 25  1  0  0  0  0
  5 29  1  6  0  0  0
  6  7  1  1  0  0  0
  6 11  1  0  0  0  0
  8 12  1  0  0  0  0
  9 10  1  6  0  0  0
  9 14  1  0  0  0  0
 11 16  1  0  0  0  0
 12 13  1  1  0  0  0
 12 17  1  0  0  0  0
 14 15  1  6  0  0  0
 14 18  1  0  0  0  0
 15 31  1  0  0  0  0
 16 20  1  0  0  0  0
 17  2  1  6  0  0  0
 17 22  1  0  0  0  0
 18 19  1  1  0  0  0
 18 24  1  0  0  0  0
 18 30  1  0  0  0  0
 20 21  1  0  0  0  0
 20 26  1  6  0  0  0
 22 23  1  1  0  0  0
 22 28  1  0  0  0  0
 24 25  1  0  0  0  0
 26 27  1  0  0  0  0
 28 29  1  6  0  0  0
M  END
>  <CHROM.1>
-161.49949208,-159.36398053,62.27832670,27.96416838,21.66736358,150.76243812
-21.86387085,-14.63602315,-14.36681831,0.88839955,0.44680677,-3.04428673

>  <Name>
ligand

>  <RI>
0

>  <Rbt.Current_Directory>
/home/itssahil/PROJECTS/Mol_Feturizer/New_Systems/rnas/4GPW

>  <Rbt.Executable>
rbdock ($Id: //depot/dev/client3/rdock/2013.1/src/exe/rbdock.cxx#4 $)

>  <Rbt.Library>
libRbt.so (2013.1, Build901 2013/11/27)

>  <Rbt.Parameter_File>
/export/apps/rDock/src/rDock_2013.1_src/data/scripts/dock_solv.prm

>  <Rbt.Receptor>
prm/pocket_docking_2.prm

>  <SCORE>
-0.906287

>  <SCORE.INTER>
-3.106

>  <SCORE.INTER.CONST>
1

>  <SCORE.INTER.POLAR>
0

>  <SCORE.INTER.ROT>
6

>  <SCORE.INTER.SOLV>
15.1024

>  <SCORE.INTER.VDW>
-14.7048

>  <SCORE.INTER.norm>
-0.100193

>  <SCORE.INTRA>
1.81443

>  <SCORE.INTRA.DIHEDRAL>
-6.11071

>  <SCORE.INTRA.DIHEDRAL.0>
19.2558

>  <SCORE.INTRA.POLAR>
0

>  <SCORE.INTRA.POLAR.0>
0

>  <SCORE.INTRA.REPUL>
0

>  <SCORE.INTRA.REPUL.0>
0

>  <SCORE.INTRA.SOLV>
-0.825157

>  <SCORE.INTRA.SOLV.lig_0>
-64.5929

>  <SCORE.INTRA.VDW>
5.28236

>  <SCORE.INTRA.VDW.0>
-4.40538

>  <SCORE.INTRA.norm>
0.05853

>  <SCORE.RESTR>
0.385281

>  <SCORE.RESTR.CAVITY>
0.385281

>  <SCORE.RESTR.norm>
0.0124284

>  <SCORE.SYSTEM>
0

>  <SCORE.SYSTEM.CONST>
0

>  <SCORE.SYSTEM.DIHEDRAL>
0

>  <SCORE.SYSTEM.SOLV>
0

>  <SCORE.SYSTEM.norm>
0

>  <SCORE.heavy>
31

>  <SCORE.norm>
-0.0292351

>  <RMSD>
2.613

$$$$
ligand
 OpenBabel11021811493D
libRbt.so/2013.1/901 2013/11/27
 31 33  0  0  0  0  0  0  0  0999 V2000
  -20.0053  -16.3325  -13.8526 C   0  0  2  0  0  0  0  0  0  0  0  0
  -21.2462  -16.7093  -13.2741 O   0  0  0  0  0  0  0  0  0  0  0  0
  -23.8519  -16.2151  -16.6119 C   0  0  2  0  0  0  0  0  0  0  0  0
  -25.0409  -16.2528  -17.4006 N   0  0  0  0  0  0  0  0  0  0  0  0
  -25.4964  -13.1643  -15.3005 C   0  0  2  0  0  0  0  0  0  0  0  0
  -18.8858  -16.6033  -12.7636 C   0  0  2  0  0  0  0  0  0  0  0  0
  -18.9006  -18.0271  -12.3972 N   0  0  0  0  0  0  0  0  0  0  0  0
  -23.5106  -17.6973  -16.1466 C   0  0  0  0  0  0  0  0  0  0  0  0
  -25.7282  -12.0812  -16.4057 C   0  0  2  0  0  0  0  0  0  0  0  0
  -25.9408  -12.7451  -17.6291 O   0  0  0  0  0  0  0  0  0  0  0  0
  -19.1398  -15.6921  -11.4980 C   0  0  0  0  0  0  0  0  0  0  0  0
  -22.1782  -17.6578  -15.2706 C   0  0  2  0  0  0  0  0  0  0  0  0
  -21.8394  -19.0289  -14.8315 N   0  0  0  0  0  0  0  0  0  0  0  0
  -24.4640  -11.1275  -16.4786 C   0  0  1  0  0  0  0  0  0  0  0  0
  -24.6673  -10.0786  -17.5412 N   0  0  0  0  0  0  0  0  0  0  0  0
  -19.6161  -14.2318  -11.8892 C   0  0  0  0  0  0  0  0  0  0  0  0
  -22.4207  -16.7347  -14.0064 C   0  0  2  0  0  0  0  0  0  0  0  0
  -24.2685  -10.3917  -15.0407 C   0  0  1  0  0  0  0  0  0  0  0  0
  -25.3715   -9.5887  -14.6723 O   0  0  0  0  0  0  0  0  0  0  0  0
  -19.9968  -13.9371  -13.1529 C   0  0  2  0  0  0  0  0  0  0  0  0
  -19.9922  -14.9090  -14.2038 O   0  0  0  0  0  0  0  0  0  0  0  0
  -22.7783  -15.2690  -14.4875 C   0  0  2  0  0  0  0  0  0  0  0  0
  -23.0069  -14.4396  -13.3361 O   0  0  0  0  0  0  0  0  0  0  0  0
  -24.0660  -11.4884  -13.9428 C   0  0  0  0  0  0  0  0  0  0  0  0
  -25.2237  -12.4845  -13.9711 O   0  0  0  0  0  0  0  0  0  0  0  0
  -20.4595  -12.5410  -13.5672 C   0  0  0  0  0  0  0  0  0  0  0  0
  -19.5742  -12.0662  -14.5934 O   0  0  0  0  0  0  0  0  0  0  0  0
  -24.0976  -15.3029  -15.3565 C   0  0  1  0  0  0  0  0  0  0  0  0
  -24.3763  -13.9787  -15.7777 O   0  0  0  0  0  0  0  0  0  0  0  0
  -23.0554   -9.4401  -14.9638 C   0  0  0  0  0  0  0  0  0  0  0  0
  -24.2239  -10.4311  -18.9053 C   0  0  0  0  0  0  0  0  0  0  0  0
  1  2  1  1  0  0  0
  1  6  1  0  0  0  0
  1 21  1  0  0  0  0
  3  4  1  6  0  0  0
  3  8  1  0  0  0  0
  3 28  1  0  0  0  0
  5  9  1  0  0  0  0
  5 25  1  0  0  0  0
  5 29  1  6  0  0  0
  6  7  1  1  0  0  0
  6 11  1  0  0  0  0
  8 12  1  0  0  0  0
  9 10  1  6  0  0  0
  9 14  1  0  0  0  0
 11 16  1  0  0  0  0
 12 13  1  1  0  0  0
 12 17  1  0  0  0  0
 14 15  1  6  0  0  0
 14 18  1  0  0  0  0
 15 31  1  0  0  0  0
 16 20  1  0  0  0  0
 17  2  1  1  0  0  0
 17 22  1  0  0  0  0
 18 19  1  1  0  0  0
 18 24  1  0  0  0  0
 18 30  1  0  0  0  0
 20 21  1  0  0  0  0
 20 26  1  6  0  0  0
 22 23  1  1  0  0  0
 22 28  1  0  0  0  0
 24 25  1  0  0  0  0
 26 27  1  0  0  0  0
 28 29  1  6  0  0  0
M  END
>  <CHROM.1>
-172.99814785,-158.02608527,-89.01110548,54.83647909,119.93196016,131.37898236
-22.70187777,-14.03535830,-14.81724406,-0.73483181,-0.64609929,0.09274494

>  <Name>
ligand

>  <RI>
0

>  <Rbt.Current_Directory>
/home/itssahil/PROJECTS/Mol_Feturizer/New_Systems/rnas/4GPW

>  <Rbt.Executable>
rbdock ($Id: //depot/dev/client3/rdock/2013.1/src/exe/rbdock.cxx#4 $)

>  <Rbt.Library>
libRbt.so (2013.1, Build901 2013/11/27)

>  <Rbt.Parameter_File>
/export/apps/rDock/src/rDock_2013.1_src/data/scripts/dock_solv.prm

>  <Rbt.Receptor>
prm/pocket_docking_5.prm

>  <SCORE>
-12.596

>  <SCORE.INTER>
-8.3825

>  <SCORE.INTER.CONST>
1

>  <SCORE.INTER.POLAR>
0

>  <SCORE.INTER.ROT>
6

>  <SCORE.INTER.SOLV>
13.9174

>  <SCORE.INTER.VDW>
-17.8275

>  <SCORE.INTER.norm>
-0.270403

>  <SCORE.INTRA>
-4.21351

>  <SCORE.INTRA.DIHEDRAL>
-7.92562

>  <SCORE.INTRA.DIHEDRAL.0>
19.2558

>  <SCORE.INTRA.POLAR>
0

>  <SCORE.INTRA.POLAR.0>
0

>  <SCORE.INTRA.REPUL>
0

>  <SCORE.INTRA.REPUL.0>
0

>  <SCORE.INTRA.SOLV>
-1.14411

>  <SCORE.INTRA.SOLV.lig_0>
-64.5929

>  <SCORE.INTRA.VDW>
0.321354

>  <SCORE.INTRA.VDW.0>
-4.40538

>  <SCORE.INTRA.norm>
-0.13592

>  <SCORE.RESTR>
0

>  <SCORE.RESTR.CAVITY>
0

>  <SCORE.RESTR.norm>
0

>  <SCORE.SYSTEM>
0

>  <SCORE.SYSTEM.CONST>
0

>  <SCORE.SYSTEM.DIHEDRAL>
0

>  <SCORE.SYSTEM.SOLV>
0

>  <SCORE.SYSTEM.norm>
0

>  <SCORE.heavy>
31

>  <SCORE.norm>
-0.406323

>  <RMSD>
2.644

$$$$
ligand
 OpenBabel11021811493D
libRbt.so/2013.1/901 2013/11/27
 31 33  0  0  0  0  0  0  0  0999 V2000
  -18.1486  -14.3683  -14.4491 C   0  0  2  0  0  0  0  0  0  0  0  0
  -18.5657  -15.0342  -15.6320 O   0  0  0  0  0  0  0  0  0  0  0  0
  -22.1218  -14.7541  -17.9666 C   0  0  2  0  0  0  0  0  0  0  0  0
  -23.4886  -14.9044  -18.3495 N   0  0  0  0  0  0  0  0  0  0  0  0
  -23.9891  -12.3032  -17.1060 C   0  0  2  0  0  0  0  0  0  0  0  0
  -16.5645  -14.3211  -14.4788 C   0  0  2  0  0  0  0  0  0  0  0  0
  -16.1236  -13.6056  -15.6852 N   0  0  0  0  0  0  0  0  0  0  0  0
  -21.5092  -16.2000  -17.7133 C   0  0  0  0  0  0  0  0  0  0  0  0
  -24.0926  -10.7424  -17.0674 C   0  0  2  0  0  0  0  0  0  0  0  0
  -23.2062  -10.2227  -18.0301 O   0  0  0  0  0  0  0  0  0  0  0  0
  -15.9853  -15.7909  -14.4508 C   0  0  0  0  0  0  0  0  0  0  0  0
  -19.9798  -16.0340  -17.2918 C   0  0  2  0  0  0  0  0  0  0  0  0
  -19.3886  -17.3691  -17.0564 N   0  0  0  0  0  0  0  0  0  0  0  0
  -23.7302  -10.2286  -15.6121 C   0  0  1  0  0  0  0  0  0  0  0  0
  -23.8209   -8.7256  -15.5561 N   0  0  0  0  0  0  0  0  0  0  0  0
  -16.7939  -16.7416  -13.4737 C   0  0  0  0  0  0  0  0  0  0  0  0
  -19.9023  -15.1720  -15.9652 C   0  0  2  0  0  0  0  0  0  0  0  0
  -24.7840  -10.8615  -14.5462 C   0  0  1  0  0  0  0  0  0  0  0  0
  -26.1227  -10.4839  -14.7965 O   0  0  0  0  0  0  0  0  0  0  0  0
  -17.9837  -16.3609  -12.9559 C   0  0  2  0  0  0  0  0  0  0  0  0
  -18.5801  -15.0934  -13.2499 O   0  0  0  0  0  0  0  0  0  0  0  0
  -20.5336  -13.7439  -16.2294 C   0  0  2  0  0  0  0  0  0  0  0  0
  -20.4693  -12.9709  -15.0194 O   0  0  0  0  0  0  0  0  0  0  0  0
  -24.6884  -12.4220  -14.6170 C   0  0  0  0  0  0  0  0  0  0  0  0
  -24.9036  -12.9000  -16.0518 O   0  0  0  0  0  0  0  0  0  0  0  0
  -18.7899  -17.2494  -12.0095 C   0  0  0  0  0  0  0  0  0  0  0  0
  -17.8814  -18.1649  -11.3781 O   0  0  0  0  0  0  0  0  0  0  0  0
  -22.0491  -13.9031  -16.6480 C   0  0  1  0  0  0  0  0  0  0  0  0
  -22.5732  -12.6083  -16.8877 O   0  0  0  0  0  0  0  0  0  0  0  0
  -24.5366  -10.4556  -13.0775 C   0  0  0  0  0  0  0  0  0  0  0  0
  -22.6869   -8.0223  -14.9228 C   0  0  0  0  0  0  0  0  0  0  0  0
  1  2  1  6  0  0  0
  1  6  1  0  0  0  0
  1 21  1  0  0  0  0
  3  4  1  1  0  0  0
  3  8  1  0  0  0  0
  3 28  1  0  0  0  0
  5  9  1  0  0  0  0
  5 25  1  0  0  0  0
  5 29  1  1  0  0  0
  6  7  1  6  0  0  0
  6 11  1  0  0  0  0
  8 12  1  0  0  0  0
  9 10  1  6  0  0  0
  9 14  1  0  0  0  0
 11 16  1  0  0  0  0
 12 13  1  1  0  0  0
 12 17  1  0  0  0  0
 14 15  1  6  0  0  0
 14 18  1  0  0  0  0
 15 31  1  0  0  0  0
 16 20  1  0  0  0  0
 17  2  1  6  0  0  0
 17 22  1  0  0  0  0
 18 19  1  6  0  0  0
 18 24  1  0  0  0  0
 18 30  1  0  0  0  0
 20 21  1  0  0  0  0
 20 26  1  1  0  0  0
 22 23  1  1  0  0  0
 22 28  1  0  0  0  0
 24 25  1  0  0  0  0
 26 27  1  0  0  0  0
 28 29  1  6  0  0  0
M  END
>  <CHROM.1>
-175.77873558,170.18356849,-132.71835453,-176.73515856,23.74415364,71.14814743
-21.11391186,-13.58630652,-15.40088479,-0.26872424,-0.67712531,0.84805635

>  <Name>
ligand

>  <RI>
0

>  <Rbt.Current_Directory>
/home/itssahil/PROJECTS/Mol_Feturizer/New_Systems/rnas/4GPW

>  <Rbt.Executable>
rbdock ($Id: //depot/dev/client3/rdock/2013.1/src/exe/rbdock.cxx#4 $)

>  <Rbt.Library>
libRbt.so (2013.1, Build901 2013/11/27)

>  <Rbt.Parameter_File>
/export/apps/rDock/src/rDock_2013.1_src/data/scripts/dock_solv.prm

>  <Rbt.Receptor>
prm/pocket_docking_6.prm

>  <SCORE>
-13.3507

>  <SCORE.INTER>
-6.83523

>  <SCORE.INTER.CONST>
1

>  <SCORE.INTER.POLAR>
0

>  <SCORE.INTER.ROT>
6

>  <SCORE.INTER.SOLV>
8.96625

>  <SCORE.INTER.VDW>
-15.1456

>  <SCORE.INTER.norm>
-0.220491

>  <SCORE.INTRA>
-6.5155

>  <SCORE.INTRA.DIHEDRAL>
-14.636

>  <SCORE.INTRA.DIHEDRAL.0>
19.2558

>  <SCORE.INTRA.POLAR>
0

>  <SCORE.INTRA.POLAR.0>
0

>  <SCORE.INTRA.REPUL>
0

>  <SCORE.INTRA.REPUL.0>
0

>  <SCORE.INTRA.SOLV>
-2.59784

>  <SCORE.INTRA.SOLV.lig_0>
-64.5929

>  <SCORE.INTRA.VDW>
2.10143

>  <SCORE.INTRA.VDW.0>
-4.40538

>  <SCORE.INTRA.norm>
-0.210177

>  <SCORE.RESTR>
0

>  <SCORE.RESTR.CAVITY>
0

>  <SCORE.RESTR.norm>
0

>  <SCORE.SYSTEM>
0

>  <SCORE.SYSTEM.CONST>
0

>  <SCORE.SYSTEM.DIHEDRAL>
0

>  <SCORE.SYSTEM.SOLV>
0

>  <SCORE.SYSTEM.norm>
0

>  <SCORE.heavy>
31

>  <SCORE.norm>
-0.430669

>  <RMSD>
2.671

$$$$
ligand
 OpenBabel11021811493D
libRbt.so/2013.1/901 2013/11/27
 31 33  0  0  0  0  0  0  0  0999 V2000
  -18.1018  -14.3943  -14.4456 C   0  0  2  0  0  0  0  0  0  0  0  0
  -18.5044  -14.9959  -15.6673 O   0  0  0  0  0  0  0  0  0  0  0  0
  -22.0525  -14.6647  -18.0074 C   0  0  2  0  0  0  0  0  0  0  0  0
  -23.4154  -14.8162  -18.4034 N   0  0  0  0  0  0  0  0  0  0  0  0
  -23.9533  -12.2750  -17.0666 C   0  0  2  0  0  0  0  0  0  0  0  0
  -16.5181  -14.3311  -14.4606 C   0  0  2  0  0  0  0  0  0  0  0  0
  -16.0756  -13.5444  -15.6213 N   0  0  0  0  0  0  0  0  0  0  0  0
  -21.4230  -16.1120  -17.8100 C   0  0  0  0  0  0  0  0  0  0  0  0
  -24.0658  -10.7146  -17.0386 C   0  0  2  0  0  0  0  0  0  0  0  0
  -23.1811  -10.1962  -18.0036 O   0  0  0  0  0  0  0  0  0  0  0  0
  -15.9252  -15.7948  -14.5116 C   0  0  0  0  0  0  0  0  0  0  0  0
  -19.8979  -15.9446  -17.3740 C   0  0  2  0  0  0  0  0  0  0  0  0
  -19.2911  -17.2807  -17.1900 N   0  0  0  0  0  0  0  0  0  0  0  0
  -23.7084  -10.1891  -15.5863 C   0  0  1  0  0  0  0  0  0  0  0  0
  -23.8079   -8.6862  -15.5405 N   0  0  0  0  0  0  0  0  0  0  0  0
  -16.7315  -16.8067  -13.5960 C   0  0  0  0  0  0  0  0  0  0  0  0
  -19.8375  -15.1365  -16.0129 C   0  0  2  0  0  0  0  0  0  0  0  0
  -24.7601  -10.8209  -14.5176 C   0  0  1  0  0  0  0  0  0  0  0  0
  -26.1005  -10.4527  -14.7723 O   0  0  0  0  0  0  0  0  0  0  0  0
  -17.9285  -16.4668  -13.0663 C   0  0  2  0  0  0  0  0  0  0  0  0
  -18.5348  -15.1901  -13.2926 O   0  0  0  0  0  0  0  0  0  0  0  0
  -20.4854  -13.7067  -16.2221 C   0  0  2  0  0  0  0  0  0  0  0  0
  -20.4366  -12.9830  -14.9813 O   0  0  0  0  0  0  0  0  0  0  0  0
  -24.6553  -12.3812  -14.5779 C   0  0  0  0  0  0  0  0  0  0  0  0
  -24.8658  -12.8700  -16.0098 O   0  0  0  0  0  0  0  0  0  0  0  0
  -18.7328  -17.4148  -12.1779 C   0  0  0  0  0  0  0  0  0  0  0  0
  -19.9064  -17.8139  -12.9027 O   0  0  0  0  0  0  0  0  0  0  0  0
  -21.9967  -13.8673  -16.6549 C   0  0  1  0  0  0  0  0  0  0  0  0
  -22.5359  -12.5705  -16.8444 O   0  0  0  0  0  0  0  0  0  0  0  0
  -24.5170  -10.4038  -13.0514 C   0  0  0  0  0  0  0  0  0  0  0  0
  -22.6822   -7.9726  -14.9039 C   0  0  0  0  0  0  0  0  0  0  0  0
  1  2  1  6  0  0  0
  1  6  1  0  0  0  0
  1 21  1  0  0  0  0
  3  4  1  1  0  0  0
  3  8  1  0  0  0  0
  3 28  1  0  0  0  0
  5  9  1  0  0  0  0
  5 25  1  0  0  0  0
  5 29  1  1  0  0  0
  6  7  1  6  0  0  0
  6 11  1  0  0  0  0
  8 12  1  0  0  0  0
  9 10  1  6  0  0  0
  9 14  1  0  0  0  0
 11 16  1  0  0  0  0
 12 13  1  1  0  0  0
 12 17  1  0  0  0  0
 14 15  1  6  0  0  0
 14 18  1  0  0  0  0
 15 31  1  0  0  0  0
 16 20  1  0  0  0  0
 17  2  1  6  0  0  0
 17 22  1  0  0  0  0
 18 19  1  6  0  0  0
 18 24  1  0  0  0  0
 18 30  1  0  0  0  0
 20 21  1  0  0  0  0
 20 26  1  1  0  0  0
 22 23  1  1  0  0  0
 22 28  1  0  0  0  0
 24 25  1  0  0  0  0
 26 27  1  0  0  0  0
 28 29  1  6  0  0  0
M  END
>  <CHROM.1>
-176.30991319,173.16517282,-133.03207636,-175.63214805,-111.17503381,70.70862501
-21.14341873,-13.55434638,-15.47195470,-0.40091245,-0.61638373,0.70535798

>  <Name>
ligand

>  <RI>
0

>  <Rbt.Current_Directory>
/home/itssahil/PROJECTS/Mol_Feturizer/New_Systems/rnas/4GPW

>  <Rbt.Executable>
rbdock ($Id: //depot/dev/client3/rdock/2013.1/src/exe/rbdock.cxx#4 $)

>  <Rbt.Library>
libRbt.so (2013.1, Build901 2013/11/27)

>  <Rbt.Parameter_File>
/export/apps/rDock/src/rDock_2013.1_src/data/scripts/dock_solv.prm

>  <Rbt.Receptor>
prm/pocket_docking_5.prm

>  <SCORE>
-14.2231

>  <SCORE.INTER>
-6.3645

>  <SCORE.INTER.CONST>
1

>  <SCORE.INTER.POLAR>
0

>  <SCORE.INTER.ROT>
6

>  <SCORE.INTER.SOLV>
7.64884

>  <SCORE.INTER.VDW>
-14.3926

>  <SCORE.INTER.norm>
-0.205307

>  <SCORE.INTRA>
-7.85864

>  <SCORE.INTRA.DIHEDRAL>
-15.4531

>  <SCORE.INTRA.DIHEDRAL.0>
19.2558

>  <SCORE.INTRA.POLAR>
0

>  <SCORE.INTRA.POLAR.0>
0

>  <SCORE.INTRA.REPUL>
0

>  <SCORE.INTRA.REPUL.0>
0

>  <SCORE.INTRA.SOLV>
-2.503

>  <SCORE.INTRA.SOLV.lig_0>
-64.5929

>  <SCORE.INTRA.VDW>
1.11943

>  <SCORE.INTRA.VDW.0>
-4.40538

>  <SCORE.INTRA.norm>
-0.253505

>  <SCORE.RESTR>
0

>  <SCORE.RESTR.CAVITY>
0

>  <SCORE.RESTR.norm>
0

>  <SCORE.SYSTEM>
0

>  <SCORE.SYSTEM.CONST>
0

>  <SCORE.SYSTEM.DIHEDRAL>
0

>  <SCORE.SYSTEM.SOLV>
0

>  <SCORE.SYSTEM.norm>
0

>  <SCORE.heavy>
31

>  <SCORE.norm>
-0.458811

>  <RMSD>
2.707

$$$$
ligand
 OpenBabel11021811493D
libRbt.so/2013.1/901 2013/11/27
 31 33  0  0  0  0  0  0  0  0999 V2000
  -18.1469  -14.4967  -14.3790 C   0  0  2  0  0  0  0  0  0  0  0  0
  -18.5114  -15.0247  -15.6459 O   0  0  0  0  0  0  0  0  0  0  0  0
  -21.9937  -14.6188  -18.0714 C   0  0  2  0  0  0  0  0  0  0  0  0
  -23.3443  -14.7601  -18.5111 N   0  0  0  0  0  0  0  0  0  0  0  0
  -23.9354  -12.2709  -17.0681 C   0  0  2  0  0  0  0  0  0  0  0  0
  -16.5648  -14.4044  -14.3539 C   0  0  2  0  0  0  0  0  0  0  0  0
  -16.1125  -13.5364  -15.4511 N   0  0  0  0  0  0  0  0  0  0  0  0
  -21.3636  -16.0703  -17.9102 C   0  0  0  0  0  0  0  0  0  0  0  0
  -24.0449  -10.7106  -17.0274 C   0  0  2  0  0  0  0  0  0  0  0  0
  -23.1571  -10.1860  -17.9863 O   0  0  0  0  0  0  0  0  0  0  0  0
  -15.9428  -15.8510  -14.4856 C   0  0  0  0  0  0  0  0  0  0  0  0
  -19.8520  -15.9139  -17.4254 C   0  0  2  0  0  0  0  0  0  0  0  0
  -19.2446  -17.2539  -17.2741 N   0  0  0  0  0  0  0  0  0  0  0  0
  -23.6894  -10.1978  -15.5701 C   0  0  1  0  0  0  0  0  0  0  0  0
  -23.7859   -8.6951  -15.5121 N   0  0  0  0  0  0  0  0  0  0  0  0
  -16.7491  -16.9343  -13.6557 C   0  0  0  0  0  0  0  0  0  0  0  0
  -19.8336  -15.1570  -16.0340 C   0  0  2  0  0  0  0  0  0  0  0  0
  -24.7445  -10.8362  -14.5088 C   0  0  1  0  0  0  0  0  0  0  0  0
  -26.0837  -10.4632  -14.7632 O   0  0  0  0  0  0  0  0  0  0  0  0
  -17.9635  -16.6509  -13.1327 C   0  0  2  0  0  0  0  0  0  0  0  0
  -18.5893  -15.3731  -13.2899 O   0  0  0  0  0  0  0  0  0  0  0  0
  -20.4819  -13.7227  -16.2081 C   0  0  2  0  0  0  0  0  0  0  0  0
  -20.4712  -13.0456  -14.9403 O   0  0  0  0  0  0  0  0  0  0  0  0
  -24.6429  -12.3962  -14.5818 C   0  0  0  0  0  0  0  0  0  0  0  0
  -24.8513  -12.8727  -16.0180 O   0  0  0  0  0  0  0  0  0  0  0  0
  -18.7684  -17.6686  -12.3257 C   0  0  0  0  0  0  0  0  0  0  0  0
  -18.9373  -17.1487  -10.9978 O   0  0  0  0  0  0  0  0  0  0  0  0
  -21.9797  -13.8723  -16.6891 C   0  0  1  0  0  0  0  0  0  0  0  0
  -22.5192  -12.5711  -16.8454 O   0  0  0  0  0  0  0  0  0  0  0  0
  -24.5037  -10.4318  -13.0387 C   0  0  0  0  0  0  0  0  0  0  0  0
  -22.6113   -7.9820  -14.9702 C   0  0  0  0  0  0  0  0  0  0  0  0
  1  2  1  6  0  0  0
  1  6  1  0  0  0  0
  1 21  1  0  0  0  0
  3  4  1  1  0  0  0
  3  8  1  0  0  0  0
  3 28  1  0  0  0  0
  5  9  1  0  0  0  0
  5 25  1  0  0  0  0
  5 29  1  1  0  0  0
  6  7  1  6  0  0  0
  6 11  1  0  0  0  0
  8 12  1  0  0  0  0
  9 10  1  6  0  0  0
  9 14  1  0  0  0  0
 11 16  1  0  0  0  0
 12 13  1  1  0  0  0
 12 17  1  0  0  0  0
 14 15  1  6  0  0  0
 14 18  1  0  0  0  0
 15 31  1  0  0  0  0
 16 20  1  0  0  0  0
 17  2  1  6  0  0  0
 17 22  1  0  0  0  0
 18 19  1  6  0  0  0
 18 24  1  0  0  0  0
 18 30  1  0  0  0  0
 20 21  1  0  0  0  0
 20 26  1  1  0  0  0
 22 23  1  1  0  0  0
 22 28  1  0  0  0  0
 24 25  1  0  0  0  0
 26 27  1  0  0  0  0
 28 29  1  6  0  0  0
M  END
>  <CHROM.1>
-175.81453468,174.34339699,-128.09109522,-174.13139194,117.71965932,72.08176449
-21.10061523,-13.56208355,-15.41080171,-0.18330900,-0.70641019,1.00888123

>  <Name>
ligand

>  <RI>
0

>  <Rbt.Current_Directory>
/home/itssahil/PROJECTS/Mol_Feturizer/New_Systems/rnas/4GPW

>  <Rbt.Executable>
rbdock ($Id: //depot/dev/client3/rdock/2013.1/src/exe/rbdock.cxx#4 $)

>  <Rbt.Library>
libRbt.so (2013.1, Build901 2013/11/27)

>  <Rbt.Parameter_File>
/export/apps/rDock/src/rDock_2013.1_src/data/scripts/dock_solv.prm

>  <Rbt.Receptor>
prm/pocket_docking_7.prm

>  <SCORE>
-14.7227

>  <SCORE.INTER>
-6.86689

>  <SCORE.INTER.CONST>
1

>  <SCORE.INTER.POLAR>
0

>  <SCORE.INTER.ROT>
6

>  <SCORE.INTER.SOLV>
8.46126

>  <SCORE.INTER.VDW>
-14.9983

>  <SCORE.INTER.norm>
-0.221513

>  <SCORE.INTRA>
-7.85579

>  <SCORE.INTRA.DIHEDRAL>
-15.2974

>  <SCORE.INTRA.DIHEDRAL.0>
19.2558

>  <SCORE.INTRA.POLAR>
0

>  <SCORE.INTRA.POLAR.0>
0

>  <SCORE.INTRA.REPUL>
0

>  <SCORE.INTRA.REPUL.0>
0

>  <SCORE.INTRA.SOLV>
-2.58475

>  <SCORE.INTRA.SOLV.lig_0>
-64.5929

>  <SCORE.INTRA.VDW>
1.0853

>  <SCORE.INTRA.VDW.0>
-4.40538

>  <SCORE.INTRA.norm>
-0.253413

>  <SCORE.RESTR>
0

>  <SCORE.RESTR.CAVITY>
0

>  <SCORE.RESTR.norm>
0

>  <SCORE.SYSTEM>
0

>  <SCORE.SYSTEM.CONST>
0

>  <SCORE.SYSTEM.DIHEDRAL>
0

>  <SCORE.SYSTEM.SOLV>
0

>  <SCORE.SYSTEM.norm>
0

>  <SCORE.heavy>
31

>  <SCORE.norm>
-0.474925

>  <RMSD>
2.708

$$$$
ligand
 OpenBabel11021811493D
libRbt.so/2013.1/901 2013/11/27
 31 33  0  0  0  0  0  0  0  0999 V2000
  -19.5511  -16.0310  -14.2242 C   0  0  2  0  0  0  0  0  0  0  0  0
  -20.6390  -16.2848  -13.3474 O   0  0  0  0  0  0  0  0  0  0  0  0
  -23.8881  -16.2859  -16.1075 C   0  0  2  0  0  0  0  0  0  0  0  0
  -25.2153  -16.4224  -16.6147 N   0  0  0  0  0  0  0  0  0  0  0  0
  -25.4457  -13.1664  -15.2243 C   0  0  2  0  0  0  0  0  0  0  0  0
  -18.2249  -16.1625  -13.3662 C   0  0  2  0  0  0  0  0  0  0  0  0
  -18.1514  -17.5139  -12.7916 N   0  0  0  0  0  0  0  0  0  0  0  0
  -23.4454  -17.6779  -15.4779 C   0  0  0  0  0  0  0  0  0  0  0  0
  -25.6680  -12.1648  -16.4057 C   0  0  2  0  0  0  0  0  0  0  0  0
  -25.7502  -12.9087  -17.5985 O   0  0  0  0  0  0  0  0  0  0  0  0
  -18.2124  -15.0646  -12.2299 C   0  0  0  0  0  0  0  0  0  0  0  0
  -21.9597  -17.5289  -14.9166 C   0  0  2  0  0  0  0  0  0  0  0  0
  -21.5258  -18.8156  -14.3306 N   0  0  0  0  0  0  0  0  0  0  0  0
  -24.4659  -11.1324  -16.4511 C   0  0  1  0  0  0  0  0  0  0  0  0
  -24.6605  -10.1605  -17.5861 N   0  0  0  0  0  0  0  0  0  0  0  0
  -18.7714  -13.6686  -12.7309 C   0  0  0  0  0  0  0  0  0  0  0  0
  -21.9403  -16.4002  -13.8054 C   0  0  2  0  0  0  0  0  0  0  0  0
  -24.4205  -10.3061  -15.0502 C   0  0  1  0  0  0  0  0  0  0  0  0
  -25.5962   -9.5612  -14.8055 O   0  0  0  0  0  0  0  0  0  0  0  0
  -19.4127  -13.5585  -13.9164 C   0  0  2  0  0  0  0  0  0  0  0  0
  -19.6231  -14.6776  -14.7836 O   0  0  0  0  0  0  0  0  0  0  0  0
  -22.4021  -15.0267  -14.4441 C   0  0  2  0  0  0  0  0  0  0  0  0
  -22.3919  -14.0097  -13.4285 O   0  0  0  0  0  0  0  0  0  0  0  0
  -24.2260  -11.3237  -13.8772 C   0  0  0  0  0  0  0  0  0  0  0  0
  -25.3123  -12.3967  -13.9230 O   0  0  0  0  0  0  0  0  0  0  0  0
  -19.9627  -12.2296  -14.4326 C   0  0  0  0  0  0  0  0  0  0  0  0
  -19.3321  -11.9471  -15.6915 O   0  0  0  0  0  0  0  0  0  0  0  0
  -23.8736  -15.1694  -15.0023 C   0  0  1  0  0  0  0  0  0  0  0  0
  -24.2445  -13.9275  -15.5755 O   0  0  0  0  0  0  0  0  0  0  0  0
  -23.2797   -9.2709  -14.9497 C   0  0  0  0  0  0  0  0  0  0  0  0
  -24.0671  -10.5397  -18.8845 C   0  0  0  0  0  0  0  0  0  0  0  0
  1  2  1  1  0  0  0
  1  6  1  0  0  0  0
  1 21  1  0  0  0  0
  3  4  1  1  0  0  0
  3  8  1  0  0  0  0
  3 28  1  0  0  0  0
  5  9  1  0  0  0  0
  5 25  1  0  0  0  0
  5 29  1  6  0  0  0
  6  7  1  1  0  0  0
  6 11  1  0  0  0  0
  8 12  1  0  0  0  0
  9 10  1  6  0  0  0
  9 14  1  0  0  0  0
 11 16  1  0  0  0  0
 12 13  1  1  0  0  0
 12 17  1  0  0  0  0
 14 15  1  6  0  0  0
 14 18  1  0  0  0  0
 15 31  1  0  0  0  0
 16 20  1  0  0  0  0
 17  2  1  6  0  0  0
 17 22  1  0  0  0  0
 18 19  1  1  0  0  0
 18 24  1  0  0  0  0
 18 30  1  0  0  0  0
 20 21  1  0  0  0  0
 20 26  1  6  0  0  0
 22 23  1  1  0  0  0
 22 28  1  0  0  0  0
 24 25  1  0  0  0  0
 26 27  1  0  0  0  0
 28 29  1  6  0  0  0
M  END
>  <CHROM.1>
-172.53775481,-161.76113567,-90.67061528,55.52394041,120.75199685,115.96163240
-22.45235583,-13.86472423,-14.91071204,-0.74112673,-0.41661827,-0.04522468

>  <Name>
ligand

>  <RI>
0

>  <Rbt.Current_Directory>
/home/itssahil/PROJECTS/Mol_Feturizer/New_Systems/rnas/4GPW

>  <Rbt.Executable>
rbdock ($Id: //depot/dev/client3/rdock/2013.1/src/exe/rbdock.cxx#4 $)

>  <Rbt.Library>
libRbt.so (2013.1, Build901 2013/11/27)

>  <Rbt.Parameter_File>
/export/apps/rDock/src/rDock_2013.1_src/data/scripts/dock_solv.prm

>  <Rbt.Receptor>
prm/pocket_docking_7.prm

>  <SCORE>
-12.3392

>  <SCORE.INTER>
-8.31397

>  <SCORE.INTER.CONST>
1

>  <SCORE.INTER.POLAR>
0

>  <SCORE.INTER.ROT>
6

>  <SCORE.INTER.SOLV>
14.5425

>  <SCORE.INTER.VDW>
-17.9901

>  <SCORE.INTER.norm>
-0.268192

>  <SCORE.INTRA>
-4.02524

>  <SCORE.INTRA.DIHEDRAL>
-7.94516

>  <SCORE.INTRA.DIHEDRAL.0>
19.2558

>  <SCORE.INTRA.POLAR>
0

>  <SCORE.INTRA.POLAR.0>
0

>  <SCORE.INTRA.REPUL>
0

>  <SCORE.INTRA.REPUL.0>
0

>  <SCORE.INTRA.SOLV>
-1.15513

>  <SCORE.INTRA.SOLV.lig_0>
-64.5929

>  <SCORE.INTRA.VDW>
0.524903

>  <SCORE.INTRA.VDW.0>
-4.40538

>  <SCORE.INTRA.norm>
-0.129847

>  <SCORE.RESTR>
0

>  <SCORE.RESTR.CAVITY>
0

>  <SCORE.RESTR.norm>
0

>  <SCORE.SYSTEM>
0

>  <SCORE.SYSTEM.CONST>
0

>  <SCORE.SYSTEM.DIHEDRAL>
0

>  <SCORE.SYSTEM.SOLV>
0

>  <SCORE.SYSTEM.norm>
0

>  <SCORE.heavy>
31

>  <SCORE.norm>
-0.398039

>  <RMSD>
2.708

$$$$
ligand
 OpenBabel11021811493D
libRbt.so/2013.1/901 2013/11/27
 31 33  0  0  0  0  0  0  0  0999 V2000
  -19.5151  -15.9450  -14.2960 C   0  0  2  0  0  0  0  0  0  0  0  0
  -20.5840  -16.1882  -13.3933 O   0  0  0  0  0  0  0  0  0  0  0  0
  -23.8848  -16.2698  -16.0901 C   0  0  2  0  0  0  0  0  0  0  0  0
  -25.2213  -16.4208  -16.5678 N   0  0  0  0  0  0  0  0  0  0  0  0
  -25.4433  -13.1417  -15.2931 C   0  0  2  0  0  0  0  0  0  0  0  0
  -18.1705  -16.0739  -13.4666 C   0  0  2  0  0  0  0  0  0  0  0  0
  -18.0884  -17.4208  -12.8829 N   0  0  0  0  0  0  0  0  0  0  0  0
  -23.4299  -17.6427  -15.4281 C   0  0  0  0  0  0  0  0  0  0  0  0
  -25.6420  -12.1336  -16.4732 C   0  0  2  0  0  0  0  0  0  0  0  0
  -25.6943  -12.8704  -17.6720 O   0  0  0  0  0  0  0  0  0  0  0  0
  -18.1294  -14.9669  -12.3398 C   0  0  0  0  0  0  0  0  0  0  0  0
  -21.9339  -17.4777  -14.8997 C   0  0  2  0  0  0  0  0  0  0  0  0
  -21.4887  -18.7466  -14.2843 N   0  0  0  0  0  0  0  0  0  0  0  0
  -24.4427  -11.0969  -16.4848 C   0  0  1  0  0  0  0  0  0  0  0  0
  -24.6148  -10.1188  -17.6181 N   0  0  0  0  0  0  0  0  0  0  0  0
  -18.6951  -13.5732  -12.8397 C   0  0  0  0  0  0  0  0  0  0  0  0
  -21.8937  -16.3166  -13.8229 C   0  0  2  0  0  0  0  0  0  0  0  0
  -24.4322  -10.2791  -15.0782 C   0  0  1  0  0  0  0  0  0  0  0  0
  -25.6159   -9.5396  -14.8560 O   0  0  0  0  0  0  0  0  0  0  0  0
  -19.3622  -13.4705  -14.0115 C   0  0  2  0  0  0  0  0  0  0  0  0
  -19.5953  -14.5959  -14.8647 O   0  0  0  0  0  0  0  0  0  0  0  0
  -22.3679  -14.9624  -14.4931 C   0  0  2  0  0  0  0  0  0  0  0  0
  -22.3387  -13.9159  -13.5084 O   0  0  0  0  0  0  0  0  0  0  0  0
  -24.2611  -11.3032  -13.9073 C   0  0  0  0  0  0  0  0  0  0  0  0
  -25.3423  -12.3795  -13.9844 O   0  0  0  0  0  0  0  0  0  0  0  0
  -19.9194  -12.1441  -14.5262 C   0  0  0  0  0  0  0  0  0  0  0  0
  -19.2270  -11.8127  -15.7399 O   0  0  0  0  0  0  0  0  0  0  0  0
  -23.8496  -15.1211  -15.0188 C   0  0  1  0  0  0  0  0  0  0  0  0
  -24.2317  -13.8966  -15.6214 O   0  0  0  0  0  0  0  0  0  0  0  0
  -23.2977   -9.2407  -14.9454 C   0  0  0  0  0  0  0  0  0  0  0  0
  -24.0520  -10.5203  -18.9233 C   0  0  0  0  0  0  0  0  0  0  0  0
  1  2  1  1  0  0  0
  1  6  1  0  0  0  0
  1 21  1  0  0  0  0
  3  4  1  1  0  0  0
  3  8  1  0  0  0  0
  3 28  1  0  0  0  0
  5  9  1  0  0  0  0
  5 25  1  0  0  0  0
  5 29  1  6  0  0  0
  6  7  1  1  0  0  0
  6 11  1  0  0  0  0
  8 12  1  0  0  0  0
  9 10  1  6  0  0  0
  9 14  1  0  0  0  0
 11 16  1  0  0  0  0
 12 13  1  1  0  0  0
 12 17  1  0  0  0  0
 14 15  1  6  0  0  0
 14 18  1  0  0  0  0
 15 31  1  0  0  0  0
 16 20  1  0  0  0  0
 17  2  1  6  0  0  0
 17 22  1  0  0  0  0
 18 19  1  1  0  0  0
 18 24  1  0  0  0  0
 18 30  1  0  0  0  0
 20 21  1  0  0  0  0
 20 26  1  6  0  0  0
 22 23  1  1  0  0  0
 22 28  1  0  0  0  0
 24 25  1  0  0  0  0
 26 27  1  0  0  0  0
 28 29  1  6  0  0  0
M  END
>  <CHROM.1>
-171.86167134,-163.73223822,-87.55816728,56.28306881,115.54585843,114.38044684
-22.42333249,-13.80804644,-14.95505945,-0.73730442,-0.39531029,-0.06168151

>  <Name>
ligand

>  <RI>
0

>  <Rbt.Current_Directory>
/home/itssahil/PROJECTS/Mol_Feturizer/New_Systems/rnas/4GPW

>  <Rbt.Executable>
rbdock ($Id: //depot/dev/client3/rdock/2013.1/src/exe/rbdock.cxx#4 $)

>  <Rbt.Library>
libRbt.so (2013.1, Build901 2013/11/27)

>  <Rbt.Parameter_File>
/export/apps/rDock/src/rDock_2013.1_src/data/scripts/dock_solv.prm

>  <Rbt.Receptor>
prm/pocket_docking_5.prm

>  <SCORE>
-12.3491

>  <SCORE.INTER>
-8.16377

>  <SCORE.INTER.CONST>
1

>  <SCORE.INTER.POLAR>
0

>  <SCORE.INTER.ROT>
6

>  <SCORE.INTER.SOLV>
14.2551

>  <SCORE.INTER.VDW>
-17.7942

>  <SCORE.INTER.norm>
-0.263348

>  <SCORE.INTRA>
-4.18533

>  <SCORE.INTRA.DIHEDRAL>
-8.36303

>  <SCORE.INTRA.DIHEDRAL.0>
19.2558

>  <SCORE.INTRA.POLAR>
0

>  <SCORE.INTRA.POLAR.0>
0

>  <SCORE.INTRA.REPUL>
0

>  <SCORE.INTRA.REPUL.0>
0

>  <SCORE.INTRA.SOLV>
-1.17531

>  <SCORE.INTRA.SOLV.lig_0>
-64.5929

>  <SCORE.INTRA.VDW>
0.583839

>  <SCORE.INTRA.VDW.0>
-4.40538

>  <SCORE.INTRA.norm>
-0.135011

>  <SCORE.RESTR>
0

>  <SCORE.RESTR.CAVITY>
0

>  <SCORE.RESTR.norm>
0

>  <SCORE.SYSTEM>
0

>  <SCORE.SYSTEM.CONST>
0

>  <SCORE.SYSTEM.DIHEDRAL>
0

>  <SCORE.SYSTEM.SOLV>
0

>  <SCORE.SYSTEM.norm>
0

>  <SCORE.heavy>
31

>  <SCORE.norm>
-0.398358

>  <RMSD>
2.743

$$$$
ligand
 OpenBabel11021811493D
libRbt.so/2013.1/901 2013/11/27
 31 33  0  0  0  0  0  0  0  0999 V2000
  -19.0238  -17.2337  -14.7035 C   0  0  2  0  0  0  0  0  0  0  0  0
  -20.0203  -17.2818  -13.6929 O   0  0  0  0  0  0  0  0  0  0  0  0
  -23.5553  -17.0457  -16.0642 C   0  0  2  0  0  0  0  0  0  0  0  0
  -24.9408  -17.0412  -16.4073 N   0  0  0  0  0  0  0  0  0  0  0  0
  -24.8892  -14.0469  -15.8382 C   0  0  2  0  0  0  0  0  0  0  0  0
  -17.6325  -17.5060  -13.9947 C   0  0  2  0  0  0  0  0  0  0  0  0
  -17.6724  -18.8208  -13.3379 N   0  0  0  0  0  0  0  0  0  0  0  0
  -23.2134  -18.4372  -15.3736 C   0  0  0  0  0  0  0  0  0  0  0  0
  -24.7187  -12.8450  -16.8255 C   0  0  2  0  0  0  0  0  0  0  0  0
  -24.1417  -13.3345  -18.0129 O   0  0  0  0  0  0  0  0  0  0  0  0
  -17.3327  -16.3610  -12.9479 C   0  0  0  0  0  0  0  0  0  0  0  0
  -21.6637  -18.4464  -14.9957 C   0  0  2  0  0  0  0  0  0  0  0  0
  -21.3229  -19.7357  -14.3561 N   0  0  0  0  0  0  0  0  0  0  0  0
  -23.8038  -11.7392  -16.1523 C   0  0  1  0  0  0  0  0  0  0  0  0
  -23.6249  -10.5738  -17.0906 N   0  0  0  0  0  0  0  0  0  0  0  0
  -17.7551  -14.9289  -13.4798 C   0  0  0  0  0  0  0  0  0  0  0  0
  -21.3718  -17.2564  -13.9919 C   0  0  2  0  0  0  0  0  0  0  0  0
  -24.5190  -11.2143  -14.7884 C   0  0  1  0  0  0  0  0  0  0  0  0
  -25.7826  -10.6235  -15.0149 O   0  0  0  0  0  0  0  0  0  0  0  0
  -18.5160  -14.7931  -14.5895 C   0  0  2  0  0  0  0  0  0  0  0  0
  -18.9803  -15.9162  -15.3456 O   0  0  0  0  0  0  0  0  0  0  0  0
  -21.7359  -15.8813  -14.6878 C   0  0  2  0  0  0  0  0  0  0  0  0
  -21.4783  -14.8070  -13.7684 O   0  0  0  0  0  0  0  0  0  0  0  0
  -24.7077  -12.4322  -13.8239 C   0  0  0  0  0  0  0  0  0  0  0  0
  -25.4735  -13.5505  -14.5283 O   0  0  0  0  0  0  0  0  0  0  0  0
  -18.9405  -13.4294  -15.1327 C   0  0  0  0  0  0  0  0  0  0  0  0
  -18.3749  -13.2782  -16.4440 O   0  0  0  0  0  0  0  0  0  0  0  0
  -23.2704  -15.8675  -15.0648 C   0  0  1  0  0  0  0  0  0  0  0  0
  -23.5531  -14.6299  -15.6951 O   0  0  0  0  0  0  0  0  0  0  0  0
  -23.7234  -10.1401  -14.0163 C   0  0  0  0  0  0  0  0  0  0  0  0
  -22.5000  -10.6644  -18.0435 C   0  0  0  0  0  0  0  0  0  0  0  0
  1  2  1  1  0  0  0
  1  6  1  0  0  0  0
  1 21  1  0  0  0  0
  3  4  1  1  0  0  0
  3  8  1  0  0  0  0
  3 28  1  0  0  0  0
  5  9  1  0  0  0  0
  5 25  1  0  0  0  0
  5 29  1  1  0  0  0
  6  7  1  1  0  0  0
  6 11  1  0  0  0  0
  8 12  1  0  0  0  0
  9 10  1  6  0  0  0
  9 14  1  0  0  0  0
 11 16  1  0  0  0  0
 12 13  1  1  0  0  0
 12 17  1  0  0  0  0
 14 15  1  6  0  0  0
 14 18  1  0  0  0  0
 15 31  1  0  0  0  0
 16 20  1  0  0  0  0
 17  2  1  6  0  0  0
 17 22  1  0  0  0  0
 18 19  1  6  0  0  0
 18 24  1  0  0  0  0
 18 30  1  0  0  0  0
 20 21  1  0  0  0  0
 20 26  1  6  0  0  0
 22 23  1  1  0  0  0
 22 28  1  0  0  0  0
 24 25  1  0  0  0  0
 26 27  1  0  0  0  0
 28 29  1  6  0  0  0
M  END
>  <CHROM.1>
-171.50049752,-169.35493385,-87.95594295,55.54055106,117.64091898,80.94634087
-21.88577660,-14.78488074,-15.11490286,-0.79003439,-0.18363941,-0.13160433

>  <Name>
ligand

>  <RI>
0

>  <Rbt.Current_Directory>
/home/itssahil/PROJECTS/Mol_Feturizer/New_Systems/rnas/4GPW

>  <Rbt.Executable>
rbdock ($Id: //depot/dev/client3/rdock/2013.1/src/exe/rbdock.cxx#4 $)

>  <Rbt.Library>
libRbt.so (2013.1, Build901 2013/11/27)

>  <Rbt.Parameter_File>
/export/apps/rDock/src/rDock_2013.1_src/data/scripts/dock_solv.prm

>  <Rbt.Receptor>
prm/pocket_docking_4.prm

>  <SCORE>
-10.9888

>  <SCORE.INTER>
-4.39621

>  <SCORE.INTER.CONST>
1

>  <SCORE.INTER.POLAR>
0

>  <SCORE.INTER.ROT>
6

>  <SCORE.INTER.SOLV>
16.7247

>  <SCORE.INTER.VDW>
-16.1057

>  <SCORE.INTER.norm>
-0.141813

>  <SCORE.INTRA>
-6.59263

>  <SCORE.INTRA.DIHEDRAL>
-14.0698

>  <SCORE.INTRA.DIHEDRAL.0>
19.2558

>  <SCORE.INTRA.POLAR>
0

>  <SCORE.INTRA.POLAR.0>
0

>  <SCORE.INTRA.REPUL>
0

>  <SCORE.INTRA.REPUL.0>
0

>  <SCORE.INTRA.SOLV>
-1.11239

>  <SCORE.INTRA.SOLV.lig_0>
-64.5929

>  <SCORE.INTRA.VDW>
0.998479

>  <SCORE.INTRA.VDW.0>
-4.40538

>  <SCORE.INTRA.norm>
-0.212665

>  <SCORE.RESTR>
0

>  <SCORE.RESTR.CAVITY>
0

>  <SCORE.RESTR.norm>
0

>  <SCORE.SYSTEM>
0

>  <SCORE.SYSTEM.CONST>
0

>  <SCORE.SYSTEM.DIHEDRAL>
0

>  <SCORE.SYSTEM.SOLV>
0

>  <SCORE.SYSTEM.norm>
0

>  <SCORE.heavy>
31

>  <SCORE.norm>
-0.354479

>  <RMSD>
2.791

$$$$
ligand
 OpenBabel11021811493D
libRbt.so/2013.1/901 2013/11/27
 31 33  0  0  0  0  0  0  0  0999 V2000
  -21.4067  -17.3972  -14.5874 C   0  0  2  0  0  0  0  0  0  0  0  0
  -22.6882  -17.4584  -13.9787 O   0  0  0  0  0  0  0  0  0  0  0  0
  -25.0879  -15.6051  -16.9756 C   0  0  2  0  0  0  0  0  0  0  0  0
  -26.2324  -15.0454  -17.6191 N   0  0  0  0  0  0  0  0  0  0  0  0
  -25.4239  -12.4219  -16.4450 C   0  0  2  0  0  0  0  0  0  0  0  0
  -20.5650  -18.6132  -14.0172 C   0  0  2  0  0  0  0  0  0  0  0  0
  -21.2547  -19.8718  -14.3362 N   0  0  0  0  0  0  0  0  0  0  0  0
  -25.4189  -17.1103  -16.5821 C   0  0  0  0  0  0  0  0  0  0  0  0
  -24.6715  -11.4961  -17.4574 C   0  0  2  0  0  0  0  0  0  0  0  0
  -24.1739  -12.3024  -18.4990 O   0  0  0  0  0  0  0  0  0  0  0  0
  -20.3808  -18.4505  -12.4563 C   0  0  0  0  0  0  0  0  0  0  0  0
  -24.1383  -17.7394  -15.8689 C   0  0  2  0  0  0  0  0  0  0  0  0
  -24.4231  -19.1427  -15.4989 N   0  0  0  0  0  0  0  0  0  0  0  0
  -23.5003  -10.7382  -16.7043 C   0  0  1  0  0  0  0  0  0  0  0  0
  -22.7609   -9.8432  -17.6650 N   0  0  0  0  0  0  0  0  0  0  0  0
  -20.1065  -16.9479  -12.0326 C   0  0  0  0  0  0  0  0  0  0  0  0
  -23.8089  -16.8983  -14.5676 C   0  0  2  0  0  0  0  0  0  0  0  0
  -24.1342   -9.8269  -15.5147 C   0  0  1  0  0  0  0  0  0  0  0  0
  -25.0290   -8.8401  -15.9867 O   0  0  0  0  0  0  0  0  0  0  0  0
  -20.2825  -15.9326  -12.9084 C   0  0  2  0  0  0  0  0  0  0  0  0
  -20.7189  -16.1456  -14.2549 O   0  0  0  0  0  0  0  0  0  0  0  0
  -23.5014  -15.3993  -14.9753 C   0  0  2  0  0  0  0  0  0  0  0  0
  -23.2135  -14.6399  -13.7895 O   0  0  0  0  0  0  0  0  0  0  0  0
  -24.9064  -10.7634  -14.5268 C   0  0  0  0  0  0  0  0  0  0  0  0
  -25.9420  -11.5920  -15.2847 O   0  0  0  0  0  0  0  0  0  0  0  0
  -20.0261  -14.4729  -12.5365 C   0  0  0  0  0  0  0  0  0  0  0  0
  -18.9522  -14.4396  -11.5836 O   0  0  0  0  0  0  0  0  0  0  0  0
  -24.7672  -14.7717  -15.6830 C   0  0  1  0  0  0  0  0  0  0  0  0
  -24.4488  -13.4385  -16.0432 O   0  0  0  0  0  0  0  0  0  0  0  0
  -23.0975   -9.0419  -14.6828 C   0  0  0  0  0  0  0  0  0  0  0  0
  -21.7501  -10.4938  -18.5233 C   0  0  0  0  0  0  0  0  0  0  0  0
  1  2  1  1  0  0  0
  1  6  1  0  0  0  0
  1 21  1  0  0  0  0
  3  4  1  1  0  0  0
  3  8  1  0  0  0  0
  3 28  1  0  0  0  0
  5  9  1  0  0  0  0
  5 25  1  0  0  0  0
  5 29  1  1  0  0  0
  6  7  1  1  0  0  0
  6 11  1  0  0  0  0
  8 12  1  0  0  0  0
  9 10  1  6  0  0  0
  9 14  1  0  0  0  0
 11 16  1  0  0  0  0
 12 13  1  1  0  0  0
 12 17  1  0  0  0  0
 14 15  1  6  0  0  0
 14 18  1  0  0  0  0
 15 31  1  0  0  0  0
 16 20  1  0  0  0  0
 17  2  1  6  0  0  0
 17 22  1  0  0  0  0
 18 19  1  6  0  0  0
 18 24  1  0  0  0  0
 18 30  1  0  0  0  0
 20 21  1  0  0  0  0
 20 26  1  6  0  0  0
 22 23  1  1  0  0  0
 22 28  1  0  0  0  0
 24 25  1  0  0  0  0
 26 27  1  0  0  0  0
 28 29  1  6  0  0  0
M  END
>  <CHROM.1>
-155.62743385,-148.81935708,-80.84379039,68.00946092,32.55396081,76.06921289
-23.10941303,-14.36653227,-15.20043540,1.10213829,0.67029118,3.05660143

>  <Name>
ligand

>  <RI>
0

>  <Rbt.Current_Directory>
/home/itssahil/PROJECTS/Mol_Feturizer/New_Systems/rnas/4GPW

>  <Rbt.Executable>
rbdock ($Id: //depot/dev/client3/rdock/2013.1/src/exe/rbdock.cxx#4 $)

>  <Rbt.Library>
libRbt.so (2013.1, Build901 2013/11/27)

>  <Rbt.Parameter_File>
/export/apps/rDock/src/rDock_2013.1_src/data/scripts/dock_solv.prm

>  <Rbt.Receptor>
prm/pocket_docking_4.prm

>  <SCORE>
-10.6399

>  <SCORE.INTER>
-8.66689

>  <SCORE.INTER.CONST>
1

>  <SCORE.INTER.POLAR>
0

>  <SCORE.INTER.ROT>
6

>  <SCORE.INTER.SOLV>
20.8043

>  <SCORE.INTER.VDW>
-20.3127

>  <SCORE.INTER.norm>
-0.279577

>  <SCORE.INTRA>
-1.97303

>  <SCORE.INTRA.DIHEDRAL>
-8.2642

>  <SCORE.INTRA.DIHEDRAL.0>
19.2558

>  <SCORE.INTRA.POLAR>
0

>  <SCORE.INTRA.POLAR.0>
0

>  <SCORE.INTRA.REPUL>
0

>  <SCORE.INTRA.REPUL.0>
0

>  <SCORE.INTRA.SOLV>
0.144885

>  <SCORE.INTRA.SOLV.lig_0>
-64.5929

>  <SCORE.INTRA.VDW>
2.08663

>  <SCORE.INTRA.VDW.0>
-4.40538

>  <SCORE.INTRA.norm>
-0.0636461

>  <SCORE.RESTR>
0

>  <SCORE.RESTR.CAVITY>
0

>  <SCORE.RESTR.norm>
0

>  <SCORE.SYSTEM>
0

>  <SCORE.SYSTEM.CONST>
0

>  <SCORE.SYSTEM.DIHEDRAL>
0

>  <SCORE.SYSTEM.SOLV>
0

>  <SCORE.SYSTEM.norm>
0

>  <SCORE.heavy>
31

>  <SCORE.norm>
-0.343223

>  <RMSD>
2.796

$$$$
ligand
 OpenBabel11021811493D
libRbt.so/2013.1/901 2013/11/27
 31 33  0  0  0  0  0  0  0  0999 V2000
  -18.9259  -17.1474  -14.8204 C   0  0  2  0  0  0  0  0  0  0  0  0
  -19.8730  -17.1618  -13.7624 O   0  0  0  0  0  0  0  0  0  0  0  0
  -23.5170  -16.9894  -15.9683 C   0  0  2  0  0  0  0  0  0  0  0  0
  -24.9173  -16.9922  -16.2449 N   0  0  0  0  0  0  0  0  0  0  0  0
  -24.8446  -14.0138  -15.8242 C   0  0  2  0  0  0  0  0  0  0  0  0
  -17.5071  -17.4360  -14.1753 C   0  0  2  0  0  0  0  0  0  0  0  0
  -17.5394  -18.7402  -13.4972 N   0  0  0  0  0  0  0  0  0  0  0  0
  -23.1435  -18.3602  -15.2533 C   0  0  0  0  0  0  0  0  0  0  0  0
  -24.6997  -12.8154  -16.8197 C   0  0  2  0  0  0  0  0  0  0  0  0
  -24.1071  -13.2996  -18.0017 O   0  0  0  0  0  0  0  0  0  0  0  0
  -17.1359  -16.2820  -13.1619 C   0  0  0  0  0  0  0  0  0  0  0  0
  -21.5776  -18.3615  -14.9497 C   0  0  2  0  0  0  0  0  0  0  0  0
  -21.2075  -19.6316  -14.2886 N   0  0  0  0  0  0  0  0  0  0  0  0
  -23.8137  -11.6831  -16.1518 C   0  0  1  0  0  0  0  0  0  0  0  0
  -23.6596  -10.5206  -17.0980 N   0  0  0  0  0  0  0  0  0  0  0  0
  -17.5571  -14.8499  -13.6948 C   0  0  0  0  0  0  0  0  0  0  0  0
  -21.2371  -17.1425  -13.9971 C   0  0  2  0  0  0  0  0  0  0  0  0
  -24.5458  -11.1656  -14.7940 C   0  0  1  0  0  0  0  0  0  0  0  0
  -25.8225  -10.6069  -15.0289 O   0  0  0  0  0  0  0  0  0  0  0  0
  -18.3682  -14.7156  -14.7685 C   0  0  2  0  0  0  0  0  0  0  0  0
  -18.8892  -15.8405  -15.4841 O   0  0  0  0  0  0  0  0  0  0  0  0
  -21.6331  -15.7881  -14.7160 C   0  0  2  0  0  0  0  0  0  0  0  0
  -21.3311  -14.6873  -13.8426 O   0  0  0  0  0  0  0  0  0  0  0  0
  -24.7085  -12.3806  -13.8212 C   0  0  0  0  0  0  0  0  0  0  0  0
  -25.4450  -13.5220  -14.5198 O   0  0  0  0  0  0  0  0  0  0  0  0
  -18.7934  -13.3521  -15.3116 C   0  0  0  0  0  0  0  0  0  0  0  0
  -18.2636  -13.2184  -16.6397 O   0  0  0  0  0  0  0  0  0  0  0  0
  -23.1838  -15.7823  -15.0196 C   0  0  1  0  0  0  0  0  0  0  0  0
  -23.4955  -14.5636  -15.6725 O   0  0  0  0  0  0  0  0  0  0  0  0
  -23.7788  -10.0670  -14.0274 C   0  0  0  0  0  0  0  0  0  0  0  0
  -22.5444  -10.6026  -18.0631 C   0  0  0  0  0  0  0  0  0  0  0  0
  1  2  1  1  0  0  0
  1  6  1  0  0  0  0
  1 21  1  0  0  0  0
  3  4  1  1  0  0  0
  3  8  1  0  0  0  0
  3 28  1  0  0  0  0
  5  9  1  0  0  0  0
  5 25  1  0  0  0  0
  5 29  1  1  0  0  0
  6  7  1  1  0  0  0
  6 11  1  0  0  0  0
  8 12  1  0  0  0  0
  9 10  1  6  0  0  0
  9 14  1  0  0  0  0
 11 16  1  0  0  0  0
 12 13  1  1  0  0  0
 12 17  1  0  0  0  0
 14 15  1  6  0  0  0
 14 18  1  0  0  0  0
 15 31  1  0  0  0  0
 16 20  1  0  0  0  0
 17  2  1  6  0  0  0
 17 22  1  0  0  0  0
 18 19  1  6  0  0  0
 18 24  1  0  0  0  0
 18 30  1  0  0  0  0
 20 21  1  0  0  0  0
 20 26  1  6  0  0  0
 22 23  1  1  0  0  0
 22 28  1  0  0  0  0
 24 25  1  0  0  0  0
 26 27  1  0  0  0  0
 28 29  1  6  0  0  0
M  END
>  <CHROM.1>
-170.15141347,-170.07765729,-86.88139526,55.48168359,116.36335127,77.89490947
-21.81595296,-14.71588301,-15.15489455,-0.77109604,-0.13008647,-0.15912451

>  <Name>
ligand

>  <RI>
0

>  <Rbt.Current_Directory>
/home/itssahil/PROJECTS/Mol_Feturizer/New_Systems/rnas/4GPW

>  <Rbt.Executable>
rbdock ($Id: //depot/dev/client3/rdock/2013.1/src/exe/rbdock.cxx#4 $)

>  <Rbt.Library>
libRbt.so (2013.1, Build901 2013/11/27)

>  <Rbt.Parameter_File>
/export/apps/rDock/src/rDock_2013.1_src/data/scripts/dock_solv.prm

>  <Rbt.Receptor>
prm/pocket_docking_5.prm

>  <SCORE>
-11.034

>  <SCORE.INTER>
-4.32315

>  <SCORE.INTER.CONST>
1

>  <SCORE.INTER.POLAR>
0

>  <SCORE.INTER.ROT>
6

>  <SCORE.INTER.SOLV>
16.7383

>  <SCORE.INTER.VDW>
-16.0615

>  <SCORE.INTER.norm>
-0.139456

>  <SCORE.INTRA>
-6.71086

>  <SCORE.INTRA.DIHEDRAL>
-14.5304

>  <SCORE.INTRA.DIHEDRAL.0>
19.2558

>  <SCORE.INTRA.POLAR>
0

>  <SCORE.INTRA.POLAR.0>
0

>  <SCORE.INTRA.REPUL>
0

>  <SCORE.INTRA.REPUL.0>
0

>  <SCORE.INTRA.SOLV>
-1.00929

>  <SCORE.INTRA.SOLV.lig_0>
-64.5929

>  <SCORE.INTRA.VDW>
1.05898

>  <SCORE.INTRA.VDW.0>
-4.40538

>  <SCORE.INTRA.norm>
-0.216479

>  <SCORE.RESTR>
0

>  <SCORE.RESTR.CAVITY>
0

>  <SCORE.RESTR.norm>
0

>  <SCORE.SYSTEM>
0

>  <SCORE.SYSTEM.CONST>
0

>  <SCORE.SYSTEM.DIHEDRAL>
0

>  <SCORE.SYSTEM.SOLV>
0

>  <SCORE.SYSTEM.norm>
0

>  <SCORE.heavy>
31

>  <SCORE.norm>
-0.355936

>  <RMSD>
2.831

$$$$
ligand
 OpenBabel11021811493D
libRbt.so/2013.1/901 2013/11/27
 31 33  0  0  0  0  0  0  0  0999 V2000
  -21.4038  -17.3622  -14.6424 C   0  0  2  0  0  0  0  0  0  0  0  0
  -22.6867  -17.4414  -14.0385 O   0  0  0  0  0  0  0  0  0  0  0  0
  -25.1095  -15.6140  -17.0326 C   0  0  2  0  0  0  0  0  0  0  0  0
  -26.2563  -15.0497  -17.6680 N   0  0  0  0  0  0  0  0  0  0  0  0
  -25.3885  -12.3987  -16.5131 C   0  0  2  0  0  0  0  0  0  0  0  0
  -20.5305  -18.5341  -14.0289 C   0  0  2  0  0  0  0  0  0  0  0  0
  -21.1813  -19.8220  -14.3106 N   0  0  0  0  0  0  0  0  0  0  0  0
  -25.4573  -17.1048  -16.6008 C   0  0  0  0  0  0  0  0  0  0  0  0
  -24.6229  -11.4180  -17.4620 C   0  0  2  0  0  0  0  0  0  0  0  0
  -24.1143  -12.1645  -18.5422 O   0  0  0  0  0  0  0  0  0  0  0  0
  -20.3604  -18.3160  -12.4732 C   0  0  0  0  0  0  0  0  0  0  0  0
  -24.1744  -17.7392  -15.8965 C   0  0  2  0  0  0  0  0  0  0  0  0
  -24.4749  -19.1295  -15.4913 N   0  0  0  0  0  0  0  0  0  0  0  0
  -23.4596  -10.7068  -16.6533 C   0  0  1  0  0  0  0  0  0  0  0  0
  -22.7078   -9.7599  -17.5526 N   0  0  0  0  0  0  0  0  0  0  0  0
  -20.1327  -16.7931  -12.0969 C   0  0  0  0  0  0  0  0  0  0  0  0
  -23.8086  -16.8759  -14.6198 C   0  0  2  0  0  0  0  0  0  0  0  0
  -24.1061   -9.8638  -15.4210 C   0  0  1  0  0  0  0  0  0  0  0  0
  -24.9939   -8.8497  -15.8462 O   0  0  0  0  0  0  0  0  0  0  0  0
  -20.3329  -15.8122  -13.0059 C   0  0  2  0  0  0  0  0  0  0  0  0
  -20.7548  -16.0811  -14.3471 O   0  0  0  0  0  0  0  0  0  0  0  0
  -23.4846  -15.3912  -15.0652 C   0  0  2  0  0  0  0  0  0  0  0  0
  -23.1636  -14.6113  -13.9014 O   0  0  0  0  0  0  0  0  0  0  0  0
  -24.8911  -10.8536  -14.4973 C   0  0  0  0  0  0  0  0  0  0  0  0
  -25.9190  -11.6353  -15.3133 O   0  0  0  0  0  0  0  0  0  0  0  0
  -20.1214  -14.3344  -12.6800 C   0  0  0  0  0  0  0  0  0  0  0  0
  -19.0898  -13.8325  -13.5438 O   0  0  0  0  0  0  0  0  0  0  0  0
  -24.7527  -14.7584  -15.7642 C   0  0  1  0  0  0  0  0  0  0  0  0
  -24.4196  -13.4385  -16.1587 O   0  0  0  0  0  0  0  0  0  0  0  0
  -23.0782   -9.1298  -14.5335 C   0  0  0  0  0  0  0  0  0  0  0  0
  -21.5822  -10.3346  -18.3171 C   0  0  0  0  0  0  0  0  0  0  0  0
  1  2  1  1  0  0  0
  1  6  1  0  0  0  0
  1 21  1  0  0  0  0
  3  4  1  1  0  0  0
  3  8  1  0  0  0  0
  3 28  1  0  0  0  0
  5  9  1  0  0  0  0
  5 25  1  0  0  0  0
  5 29  1  1  0  0  0
  6  7  1  1  0  0  0
  6 11  1  0  0  0  0
  8 12  1  0  0  0  0
  9 10  1  6  0  0  0
  9 14  1  0  0  0  0
 11 16  1  0  0  0  0
 12 13  1  1  0  0  0
 12 17  1  0  0  0  0
 14 15  1  6  0  0  0
 14 18  1  0  0  0  0
 15 31  1  0  0  0  0
 16 20  1  0  0  0  0
 17  2  1  6  0  0  0
 17 22  1  0  0  0  0
 18 19  1  6  0  0  0
 18 24  1  0  0  0  0
 18 30  1  0  0  0  0
 20 21  1  0  0  0  0
 20 26  1  6  0  0  0
 22 23  1  1  0  0  0
 22 28  1  0  0  0  0
 24 25  1  0  0  0  0
 26 27  1  0  0  0  0
 28 29  1  6  0  0  0
M  END
>  <CHROM.1>
-158.87419687,-154.71034092,-87.80543752,70.87494669,118.71764961,78.69471594
-23.10113122,-14.30850194,-15.28676978,-1.16591081,-0.59307945,-0.11036198

>  <Name>
ligand

>  <RI>
0

>  <Rbt.Current_Directory>
/home/itssahil/PROJECTS/Mol_Feturizer/New_Systems/rnas/4GPW

>  <Rbt.Executable>
rbdock ($Id: //depot/dev/client3/rdock/2013.1/src/exe/rbdock.cxx#4 $)

>  <Rbt.Library>
libRbt.so (2013.1, Build901 2013/11/27)

>  <Rbt.Parameter_File>
/export/apps/rDock/src/rDock_2013.1_src/data/scripts/dock_solv.prm

>  <Rbt.Receptor>
prm/pocket_docking_3.prm

>  <SCORE>
-12.039

>  <SCORE.INTER>
-8.10414

>  <SCORE.INTER.CONST>
1

>  <SCORE.INTER.POLAR>
0

>  <SCORE.INTER.ROT>
6

>  <SCORE.INTER.SOLV>
19.563

>  <SCORE.INTER.VDW>
-19.5237

>  <SCORE.INTER.norm>
-0.261424

>  <SCORE.INTRA>
-3.93489

>  <SCORE.INTRA.DIHEDRAL>
-10.1639

>  <SCORE.INTRA.DIHEDRAL.0>
19.2558

>  <SCORE.INTRA.POLAR>
0

>  <SCORE.INTRA.POLAR.0>
0

>  <SCORE.INTRA.REPUL>
0

>  <SCORE.INTRA.REPUL.0>
0

>  <SCORE.INTRA.SOLV>
-0.232015

>  <SCORE.INTRA.SOLV.lig_0>
-64.5929

>  <SCORE.INTRA.VDW>
1.26309

>  <SCORE.INTRA.VDW.0>
-4.40538

>  <SCORE.INTRA.norm>
-0.126932

>  <SCORE.RESTR>
0

>  <SCORE.RESTR.CAVITY>
0

>  <SCORE.RESTR.norm>
0

>  <SCORE.SYSTEM>
0

>  <SCORE.SYSTEM.CONST>
0

>  <SCORE.SYSTEM.DIHEDRAL>
0

>  <SCORE.SYSTEM.SOLV>
0

>  <SCORE.SYSTEM.norm>
0

>  <SCORE.heavy>
31

>  <SCORE.norm>
-0.388356

>  <RMSD>
2.889

$$$$
ligand
 OpenBabel11021811493D
libRbt.so/2013.1/901 2013/11/27
 31 33  0  0  0  0  0  0  0  0999 V2000
  -19.0097  -17.9909  -14.2215 C   0  0  2  0  0  0  0  0  0  0  0  0
  -20.1063  -17.6099  -13.4036 O   0  0  0  0  0  0  0  0  0  0  0  0
  -23.0469  -16.5975  -16.3195 C   0  0  2  0  0  0  0  0  0  0  0  0
  -24.3249  -16.3356  -16.8988 N   0  0  0  0  0  0  0  0  0  0  0  0
  -23.9017  -13.5707  -16.3005 C   0  0  2  0  0  0  0  0  0  0  0  0
  -17.8330  -18.4168  -13.2488 C   0  0  2  0  0  0  0  0  0  0  0  0
  -18.2848  -19.5285  -12.3992 N   0  0  0  0  0  0  0  0  0  0  0  0
  -23.0523  -18.0785  -15.7395 C   0  0  0  0  0  0  0  0  0  0  0  0
  -23.4095  -12.1152  -16.5964 C   0  0  2  0  0  0  0  0  0  0  0  0
  -22.2541  -12.1999  -17.3968 O   0  0  0  0  0  0  0  0  0  0  0  0
  -17.3906  -17.1795  -12.3712 C   0  0  0  0  0  0  0  0  0  0  0  0
  -21.6225  -18.3751  -15.0977 C   0  0  2  0  0  0  0  0  0  0  0  0
  -21.6041  -19.7513  -14.5564 N   0  0  0  0  0  0  0  0  0  0  0  0
  -23.1102  -11.3743  -15.2273 C   0  0  1  0  0  0  0  0  0  0  0  0
  -22.6311   -9.9704  -15.4922 N   0  0  0  0  0  0  0  0  0  0  0  0
  -17.3687  -15.8277  -13.1985 C   0  0  0  0  0  0  0  0  0  0  0  0
  -21.3566  -17.3367  -13.9314 C   0  0  2  0  0  0  0  0  0  0  0  0
  -24.4773  -11.3086  -14.3475 C   0  0  1  0  0  0  0  0  0  0  0  0
  -25.5158  -10.5937  -14.9860 O   0  0  0  0  0  0  0  0  0  0  0  0
  -17.9239  -15.7536  -14.4293 C   0  0  2  0  0  0  0  0  0  0  0  0
  -18.5556  -16.8745  -15.0566 O   0  0  0  0  0  0  0  0  0  0  0  0
  -21.3741  -15.8676  -14.5223 C   0  0  2  0  0  0  0  0  0  0  0  0
  -21.1425  -14.9305  -13.4575 O   0  0  0  0  0  0  0  0  0  0  0  0
  -24.9715  -12.7699  -14.0841 C   0  0  0  0  0  0  0  0  0  0  0  0
  -25.1262  -13.5215  -15.4050 O   0  0  0  0  0  0  0  0  0  0  0  0
  -17.9198  -14.4689  -15.2566 C   0  0  0  0  0  0  0  0  0  0  0  0
  -18.9388  -13.6018  -14.7350 O   0  0  0  0  0  0  0  0  0  0  0  0
  -22.7888  -15.5692  -15.1601 C   0  0  1  0  0  0  0  0  0  0  0  0
  -22.7602  -14.2542  -15.6878 O   0  0  0  0  0  0  0  0  0  0  0  0
  -24.3260  -10.6236  -12.9724 C   0  0  0  0  0  0  0  0  0  0  0  0
  -21.3040   -9.6160  -14.9491 C   0  0  0  0  0  0  0  0  0  0  0  0
  1  2  1  1  0  0  0
  1  6  1  0  0  0  0
  1 21  1  0  0  0  0
  3  4  1  1  0  0  0
  3  8  1  0  0  0  0
  3 28  1  0  0  0  0
  5  9  1  0  0  0  0
  5 25  1  0  0  0  0
  5 29  1  1  0  0  0
  6  7  1  1  0  0  0
  6 11  1  0  0  0  0
  8 12  1  0  0  0  0
  9 10  1  6  0  0  0
  9 14  1  0  0  0  0
 11 16  1  0  0  0  0
 12 13  1  1  0  0  0
 12 17  1  0  0  0  0
 14 15  1  6  0  0  0
 14 18  1  0  0  0  0
 15 31  1  0  0  0  0
 16 20  1  0  0  0  0
 17  2  1  6  0  0  0
 17 22  1  0  0  0  0
 18 19  1  6  0  0  0
 18 24  1  0  0  0  0
 18 30  1  0  0  0  0
 20 21  1  0  0  0  0
 20 26  1  6  0  0  0
 22 23  1  1  0  0  0
 22 28  1  0  0  0  0
 24 25  1  0  0  0  0
 26 27  1  0  0  0  0
 28 29  1  6  0  0  0
M  END
>  <CHROM.1>
-171.92911567,174.78448431,-122.06284363,38.60449920,-77.58061748,65.20367923
-21.53542234,-14.85184807,-14.75766461,0.88239057,0.29321698,-3.13470504

>  <Name>
ligand

>  <RI>
0

>  <Rbt.Current_Directory>
/home/itssahil/PROJECTS/Mol_Feturizer/New_Systems/rnas/4GPW

>  <Rbt.Executable>
rbdock ($Id: //depot/dev/client3/rdock/2013.1/src/exe/rbdock.cxx#4 $)

>  <Rbt.Library>
libRbt.so (2013.1, Build901 2013/11/27)

>  <Rbt.Parameter_File>
/export/apps/rDock/src/rDock_2013.1_src/data/scripts/dock_solv.prm

>  <Rbt.Receptor>
prm/pocket_docking_4.prm

>  <SCORE>
-8.4844

>  <SCORE.INTER>
-3.36601

>  <SCORE.INTER.CONST>
1

>  <SCORE.INTER.POLAR>
0

>  <SCORE.INTER.ROT>
6

>  <SCORE.INTER.SOLV>
13.825

>  <SCORE.INTER.VDW>
-14.4523

>  <SCORE.INTER.norm>
-0.108581

>  <SCORE.INTRA>
-5.1184

>  <SCORE.INTRA.DIHEDRAL>
-12.2086

>  <SCORE.INTRA.DIHEDRAL.0>
19.2558

>  <SCORE.INTRA.POLAR>
0

>  <SCORE.INTRA.POLAR.0>
0

>  <SCORE.INTRA.REPUL>
0

>  <SCORE.INTRA.REPUL.0>
0

>  <SCORE.INTRA.SOLV>
-0.315636

>  <SCORE.INTRA.SOLV.lig_0>
-64.5929

>  <SCORE.INTRA.VDW>
1.14374

>  <SCORE.INTRA.VDW.0>
-4.40538

>  <SCORE.INTRA.norm>
-0.16511

>  <SCORE.RESTR>
0

>  <SCORE.RESTR.CAVITY>
0

>  <SCORE.RESTR.norm>
0

>  <SCORE.SYSTEM>
0

>  <SCORE.SYSTEM.CONST>
0

>  <SCORE.SYSTEM.DIHEDRAL>
0

>  <SCORE.SYSTEM.SOLV>
0

>  <SCORE.SYSTEM.norm>
0

>  <SCORE.heavy>
31

>  <SCORE.norm>
-0.27369

>  <RMSD>
2.908

$$$$
ligand
 OpenBabel11021811493D
libRbt.so/2013.1/901 2013/11/27
 31 33  0  0  0  0  0  0  0  0999 V2000
  -18.9604  -13.6112  -14.9715 C   0  0  2  0  0  0  0  0  0  0  0  0
  -19.8864  -14.6778  -15.1185 O   0  0  0  0  0  0  0  0  0  0  0  0
  -23.9954  -14.8731  -16.2377 C   0  0  2  0  0  0  0  0  0  0  0  0
  -25.4115  -14.7069  -16.1716 N   0  0  0  0  0  0  0  0  0  0  0  0
  -24.8616  -11.8198  -17.4280 C   0  0  2  0  0  0  0  0  0  0  0  0
  -17.5105  -14.2325  -15.1264 C   0  0  2  0  0  0  0  0  0  0  0  0
  -17.3949  -14.8699  -16.4463 N   0  0  0  0  0  0  0  0  0  0  0  0
  -23.5283  -15.7119  -14.9696 C   0  0  0  0  0  0  0  0  0  0  0  0
  -24.2759  -10.3861  -17.2054 C   0  0  2  0  0  0  0  0  0  0  0  0
  -23.2820  -10.1652  -18.1782 O   0  0  0  0  0  0  0  0  0  0  0  0
  -17.2505  -15.2776  -13.9702 C   0  0  0  0  0  0  0  0  0  0  0  0
  -21.9467  -15.9043  -15.0455 C   0  0  2  0  0  0  0  0  0  0  0  0
  -21.4915  -16.6876  -13.8765 N   0  0  0  0  0  0  0  0  0  0  0  0
  -23.6813  -10.2842  -15.7394 C   0  0  1  0  0  0  0  0  0  0  0  0
  -23.1087   -8.9099  -15.5072 N   0  0  0  0  0  0  0  0  0  0  0  0
  -17.8286  -14.7940  -12.5759 C   0  0  0  0  0  0  0  0  0  0  0  0
  -21.2541  -14.4797  -15.0387 C   0  0  2  0  0  0  0  0  0  0  0  0
  -24.8718  -10.5492  -14.6624 C   0  0  1  0  0  0  0  0  0  0  0  0
  -25.9208   -9.6061  -14.7497 O   0  0  0  0  0  0  0  0  0  0  0  0
  -18.6637  -13.7333  -12.4967 C   0  0  2  0  0  0  0  0  0  0  0  0
  -19.0718  -12.9883  -13.6488 O   0  0  0  0  0  0  0  0  0  0  0  0
  -21.7449  -13.6514  -16.2960 C   0  0  2  0  0  0  0  0  0  0  0  0
  -21.1208  -12.3568  -16.2781 O   0  0  0  0  0  0  0  0  0  0  0  0
  -25.4655  -11.9748  -14.9161 C   0  0  0  0  0  0  0  0  0  0  0  0
  -25.9113  -12.1103  -16.3709 O   0  0  0  0  0  0  0  0  0  0  0  0
  -19.2386  -13.2373  -11.1706 C   0  0  0  0  0  0  0  0  0  0  0  0
  -20.6668  -13.1686  -11.3040 O   0  0  0  0  0  0  0  0  0  0  0  0
  -23.3117  -13.4586  -16.2257 C   0  0  1  0  0  0  0  0  0  0  0  0
  -23.7126  -12.7265  -17.3711 O   0  0  0  0  0  0  0  0  0  0  0  0
  -24.4273  -10.4966  -13.1850 C   0  0  0  0  0  0  0  0  0  0  0  0
  -21.6636   -8.7480  -15.7670 C   0  0  0  0  0  0  0  0  0  0  0  0
  1  2  1  1  0  0  0
  1  6  1  0  0  0  0
  1 21  1  0  0  0  0
  3  4  1  1  0  0  0
  3  8  1  0  0  0  0
  3 28  1  0  0  0  0
  5  9  1  0  0  0  0
  5 25  1  0  0  0  0
  5 29  1  1  0  0  0
  6  7  1  6  0  0  0
  6 11  1  0  0  0  0
  8 12  1  0  0  0  0
  9 10  1  6  0  0  0
  9 14  1  0  0  0  0
 11 16  1  0  0  0  0
 12 13  1  1  0  0  0
 12 17  1  0  0  0  0
 14 15  1  1  0  0  0
 14 18  1  0  0  0  0
 15 31  1  0  0  0  0
 16 20  1  0  0  0  0
 17  2  1  6  0  0  0
 17 22  1  0  0  0  0
 18 19  1  6  0  0  0
 18 24  1  0  0  0  0
 18 30  1  0  0  0  0
 20 21  1  0  0  0  0
 20 26  1  1  0  0  0
 22 23  1  1  0  0  0
 22 28  1  0  0  0  0
 24 25  1  0  0  0  0
 26 27  1  0  0  0  0
 28 29  1  6  0  0  0
M  END
>  <CHROM.1>
-179.94371435,97.20030491,-93.98856290,-172.19456855,-126.77563204,91.72444607
-21.99454397,-12.87043399,-15.09430118,-0.43220152,-0.45513664,0.19543801

>  <Name>
ligand

>  <RI>
0

>  <Rbt.Current_Directory>
/home/itssahil/PROJECTS/Mol_Feturizer/New_Systems/rnas/4GPW

>  <Rbt.Executable>
rbdock ($Id: //depot/dev/client3/rdock/2013.1/src/exe/rbdock.cxx#4 $)

>  <Rbt.Library>
libRbt.so (2013.1, Build901 2013/11/27)

>  <Rbt.Parameter_File>
/export/apps/rDock/src/rDock_2013.1_src/data/scripts/dock_solv.prm

>  <Rbt.Receptor>
prm/pocket_docking_8.prm

>  <SCORE>
-7.65875

>  <SCORE.INTER>
-4.61567

>  <SCORE.INTER.CONST>
1

>  <SCORE.INTER.POLAR>
0

>  <SCORE.INTER.ROT>
6

>  <SCORE.INTER.SOLV>
9.23291

>  <SCORE.INTER.VDW>
-13.7547

>  <SCORE.INTER.norm>
-0.148893

>  <SCORE.INTRA>
-3.04308

>  <SCORE.INTRA.DIHEDRAL>
-7.63725

>  <SCORE.INTRA.DIHEDRAL.0>
19.2558

>  <SCORE.INTRA.POLAR>
0

>  <SCORE.INTRA.POLAR.0>
0

>  <SCORE.INTRA.REPUL>
0

>  <SCORE.INTRA.REPUL.0>
0

>  <SCORE.INTRA.SOLV>
-0.234141

>  <SCORE.INTRA.SOLV.lig_0>
-64.5929

>  <SCORE.INTRA.VDW>
0.892616

>  <SCORE.INTRA.VDW.0>
-4.40538

>  <SCORE.INTRA.norm>
-0.0981638

>  <SCORE.RESTR>
0

>  <SCORE.RESTR.CAVITY>
0

>  <SCORE.RESTR.norm>
0

>  <SCORE.SYSTEM>
0

>  <SCORE.SYSTEM.CONST>
0

>  <SCORE.SYSTEM.DIHEDRAL>
0

>  <SCORE.SYSTEM.SOLV>
0

>  <SCORE.SYSTEM.norm>
0

>  <SCORE.heavy>
31

>  <SCORE.norm>
-0.247056

>  <RMSD>
2.941

$$$$
ligand
 OpenBabel11021811493D
libRbt.so/2013.1/901 2013/11/27
 31 33  0  0  0  0  0  0  0  0999 V2000
  -18.6739  -15.6029  -12.4790 C   0  0  2  0  0  0  0  0  0  0  0  0
  -19.6141  -15.7134  -13.5375 O   0  0  0  0  0  0  0  0  0  0  0  0
  -23.3898  -13.9751  -14.4848 C   0  0  2  0  0  0  0  0  0  0  0  0
  -24.7643  -13.6094  -14.3652 N   0  0  0  0  0  0  0  0  0  0  0  0
  -23.8118  -11.1517  -12.8901 C   0  0  2  0  0  0  0  0  0  0  0  0
  -17.2337  -15.7681  -13.1202 C   0  0  2  0  0  0  0  0  0  0  0  0
  -17.0315  -14.7219  -14.1333 N   0  0  0  0  0  0  0  0  0  0  0  0
  -23.2877  -15.5621  -14.4523 C   0  0  0  0  0  0  0  0  0  0  0  0
  -23.4697   -9.6742  -13.2749 C   0  0  2  0  0  0  0  0  0  0  0  0
  -23.1991   -9.6348  -14.6562 O   0  0  0  0  0  0  0  0  0  0  0  0
  -17.0947  -17.2067  -13.7587 C   0  0  0  0  0  0  0  0  0  0  0  0
  -21.7528  -15.9727  -14.5926 C   0  0  2  0  0  0  0  0  0  0  0  0
  -21.6356  -17.4469  -14.5701 N   0  0  0  0  0  0  0  0  0  0  0  0
  -22.2211   -9.1873  -12.4281 C   0  0  1  0  0  0  0  0  0  0  0  0
  -21.8739   -7.7659  -12.7878 N   0  0  0  0  0  0  0  0  0  0  0  0
  -17.7679  -18.3318  -12.8681 C   0  0  0  0  0  0  0  0  0  0  0  0
  -20.9414  -15.3521  -13.3820 C   0  0  2  0  0  0  0  0  0  0  0  0
  -22.5917   -9.2562  -10.8453 C   0  0  1  0  0  0  0  0  0  0  0  0
  -23.6797   -8.4262  -10.4922 O   0  0  0  0  0  0  0  0  0  0  0  0
  -18.5773  -18.0115  -11.8332 C   0  0  2  0  0  0  0  0  0  0  0  0
  -18.8725  -16.6564  -11.4787 O   0  0  0  0  0  0  0  0  0  0  0  0
  -21.0698  -13.7741  -13.4180 C   0  0  2  0  0  0  0  0  0  0  0  0
  -20.3400  -13.2183  -12.3115 O   0  0  0  0  0  0  0  0  0  0  0  0
  -22.9583  -10.7338  -10.4828 C   0  0  0  0  0  0  0  0  0  0  0  0
  -24.0714  -11.2416  -11.3974 O   0  0  0  0  0  0  0  0  0  0  0  0
  -19.2416  -19.0684  -10.9519 C   0  0  0  0  0  0  0  0  0  0  0  0
  -18.9602  -18.7444   -9.5815 O   0  0  0  0  0  0  0  0  0  0  0  0
  -22.5891  -13.3622  -13.2800 C   0  0  1  0  0  0  0  0  0  0  0  0
  -22.6634  -11.9478  -13.3295 O   0  0  0  0  0  0  0  0  0  0  0  0
  -21.4525   -8.8233   -9.8977 C   0  0  0  0  0  0  0  0  0  0  0  0
  -20.8629   -7.5853  -13.8494 C   0  0  0  0  0  0  0  0  0  0  0  0
  1  2  1  6  0  0  0
  1  6  1  0  0  0  0
  1 21  1  0  0  0  0
  3  4  1  1  0  0  0
  3  8  1  0  0  0  0
  3 28  1  0  0  0  0
  5  9  1  0  0  0  0
  5 25  1  0  0  0  0
  5 29  1  1  0  0  0
  6  7  1  6  0  0  0
  6 11  1  0  0  0  0
  8 12  1  0  0  0  0
  9 10  1  6  0  0  0
  9 14  1  0  0  0  0
 11 16  1  0  0  0  0
 12 13  1  1  0  0  0
 12 17  1  0  0  0  0
 14 15  1  6  0  0  0
 14 18  1  0  0  0  0
 15 31  1  0  0  0  0
 16 20  1  0  0  0  0
 17  2  1  6  0  0  0
 17 22  1  0  0  0  0
 18 19  1  1  0  0  0
 18 24  1  0  0  0  0
 18 30  1  0  0  0  0
 20 21  1  0  0  0  0
 20 26  1  1  0  0  0
 22 23  1  1  0  0  0
 22 28  1  0  0  0  0
 24 25  1  0  0  0  0
 26 27  1  0  0  0  0
 28 29  1  6  0  0  0
M  END
>  <CHROM.1>
-166.68508280,-174.54477765,-92.72019096,-164.54354355,128.59717951,78.80797018
-21.15216763,-13.44561808,-12.70955317,-1.02666266,-0.51351007,0.31509372

>  <Name>
ligand

>  <RI>
0

>  <Rbt.Current_Directory>
/home/itssahil/PROJECTS/Mol_Feturizer/New_Systems/rnas/4GPW

>  <Rbt.Executable>
rbdock ($Id: //depot/dev/client3/rdock/2013.1/src/exe/rbdock.cxx#4 $)

>  <Rbt.Library>
libRbt.so (2013.1, Build901 2013/11/27)

>  <Rbt.Parameter_File>
/export/apps/rDock/src/rDock_2013.1_src/data/scripts/dock_solv.prm

>  <Rbt.Receptor>
prm/pocket_docking_6.prm

>  <SCORE>
-14.2582

>  <SCORE.INTER>
-7.49904

>  <SCORE.INTER.CONST>
1

>  <SCORE.INTER.POLAR>
0

>  <SCORE.INTER.ROT>
6

>  <SCORE.INTER.SOLV>
14.1086

>  <SCORE.INTER.VDW>
-17.3022

>  <SCORE.INTER.norm>
-0.241905

>  <SCORE.INTRA>
-6.76148

>  <SCORE.INTRA.DIHEDRAL>
-13.0728

>  <SCORE.INTRA.DIHEDRAL.0>
19.2558

>  <SCORE.INTRA.POLAR>
0

>  <SCORE.INTRA.POLAR.0>
0

>  <SCORE.INTRA.REPUL>
0

>  <SCORE.INTRA.REPUL.0>
0

>  <SCORE.INTRA.SOLV>
-2.0913

>  <SCORE.INTRA.SOLV.lig_0>
-64.5929

>  <SCORE.INTRA.VDW>
0.820574

>  <SCORE.INTRA.VDW.0>
-4.40538

>  <SCORE.INTRA.norm>
-0.218112

>  <SCORE.RESTR>
0.0023242

>  <SCORE.RESTR.CAVITY>
0.0023242

>  <SCORE.RESTR.norm>
7.49742e-05

>  <SCORE.SYSTEM>
0

>  <SCORE.SYSTEM.CONST>
0

>  <SCORE.SYSTEM.DIHEDRAL>
0

>  <SCORE.SYSTEM.SOLV>
0

>  <SCORE.SYSTEM.norm>
0

>  <SCORE.heavy>
31

>  <SCORE.norm>
-0.459942

>  <RMSD>
3.039

$$$$
ligand
 OpenBabel11021811493D
libRbt.so/2013.1/901 2013/11/27
 31 33  0  0  0  0  0  0  0  0999 V2000
  -19.4523  -17.5991  -14.0827 C   0  0  2  0  0  0  0  0  0  0  0  0
  -20.5486  -17.5046  -13.1852 O   0  0  0  0  0  0  0  0  0  0  0  0
  -23.6879  -16.0503  -15.6761 C   0  0  2  0  0  0  0  0  0  0  0  0
  -25.0062  -15.8119  -16.1688 N   0  0  0  0  0  0  0  0  0  0  0  0
  -22.7680  -13.0770  -14.8138 C   0  0  2  0  0  0  0  0  0  0  0  0
  -18.2433  -18.2264  -13.2720 C   0  0  2  0  0  0  0  0  0  0  0  0
  -18.6370  -19.5471  -12.7596 N   0  0  0  0  0  0  0  0  0  0  0  0
  -23.4493  -17.6219  -15.6198 C   0  0  0  0  0  0  0  0  0  0  0  0
  -23.4085  -11.6650  -14.6035 C   0  0  2  0  0  0  0  0  0  0  0  0
  -23.7251  -11.5287  -13.2382 O   0  0  0  0  0  0  0  0  0  0  0  0
  -17.8344  -17.2612  -12.0898 C   0  0  0  0  0  0  0  0  0  0  0  0
  -21.9740  -17.8898  -15.0758 C   0  0  2  0  0  0  0  0  0  0  0  0
  -21.7291  -19.3473  -15.0206 N   0  0  0  0  0  0  0  0  0  0  0  0
  -24.7014  -11.5351  -15.5116 C   0  0  1  0  0  0  0  0  0  0  0  0
  -25.3349  -10.1814  -15.3199 N   0  0  0  0  0  0  0  0  0  0  0  0
  -17.8794  -15.7341  -12.5121 C   0  0  0  0  0  0  0  0  0  0  0  0
  -21.8399  -17.2685  -13.6249 C   0  0  2  0  0  0  0  0  0  0  0  0
  -24.2745  -11.7021  -17.0727 C   0  0  1  0  0  0  0  0  0  0  0  0
  -23.3622  -10.7147  -17.5086 O   0  0  0  0  0  0  0  0  0  0  0  0
  -18.4580  -15.3474  -13.6715 C   0  0  2  0  0  0  0  0  0  0  0  0
  -19.0563  -16.2778  -14.5800 O   0  0  0  0  0  0  0  0  0  0  0  0
  -22.0996  -15.7080  -13.6960 C   0  0  2  0  0  0  0  0  0  0  0  0
  -21.9864  -15.1525  -12.3752 O   0  0  0  0  0  0  0  0  0  0  0  0
  -23.6107  -13.1068  -17.2606 C   0  0  0  0  0  0  0  0  0  0  0  0
  -22.4485  -13.2769  -16.2840 O   0  0  0  0  0  0  0  0  0  0  0  0
  -18.5182  -13.8856  -14.1122 C   0  0  0  0  0  0  0  0  0  0  0  0
  -19.5105  -13.2218  -13.3142 O   0  0  0  0  0  0  0  0  0  0  0  0
  -23.5601  -15.4373  -14.2352 C   0  0  1  0  0  0  0  0  0  0  0  0
  -23.7489  -14.0340  -14.2965 O   0  0  0  0  0  0  0  0  0  0  0  0
  -25.4463  -11.6139  -18.0738 C   0  0  0  0  0  0  0  0  0  0  0  0
  -24.4408   -9.0131  -15.4519 C   0  0  0  0  0  0  0  0  0  0  0  0
  1  2  1  1  0  0  0
  1  6  1  0  0  0  0
  1 21  1  0  0  0  0
  3  4  1  1  0  0  0
  3  8  1  0  0  0  0
  3 28  1  0  0  0  0
  5  9  1  0  0  0  0
  5 25  1  0  0  0  0
  5 29  1  6  0  0  0
  6  7  1  1  0  0  0
  6 11  1  0  0  0  0
  8 12  1  0  0  0  0
  9 10  1  1  0  0  0
  9 14  1  0  0  0  0
 11 16  1  0  0  0  0
 12 13  1  1  0  0  0
 12 17  1  0  0  0  0
 14 15  1  6  0  0  0
 14 18  1  0  0  0  0
 15 31  1  0  0  0  0
 16 20  1  0  0  0  0
 17  2  1  6  0  0  0
 17 22  1  0  0  0  0
 18 19  1  6  0  0  0
 18 24  1  0  0  0  0
 18 30  1  0  0  0  0
 20 21  1  0  0  0  0
 20 26  1  6  0  0  0
 22 23  1  1  0  0  0
 22 28  1  0  0  0  0
 24 25  1  0  0  0  0
 26 27  1  0  0  0  0
 28 29  1  6  0  0  0
M  END
>  <CHROM.1>
-165.97312772,-177.25222383,50.90424566,29.85596188,-74.45989248,-74.45392344
-21.95962712,-14.66879882,-14.65570085,0.81318235,0.51132161,-3.12199766

>  <Name>
ligand

>  <RI>
0

>  <Rbt.Current_Directory>
/home/itssahil/PROJECTS/Mol_Feturizer/New_Systems/rnas/4GPW

>  <Rbt.Executable>
rbdock ($Id: //depot/dev/client3/rdock/2013.1/src/exe/rbdock.cxx#4 $)

>  <Rbt.Library>
libRbt.so (2013.1, Build901 2013/11/27)

>  <Rbt.Parameter_File>
/export/apps/rDock/src/rDock_2013.1_src/data/scripts/dock_solv.prm

>  <Rbt.Receptor>
prm/pocket_docking_2.prm

>  <SCORE>
-5.56724

>  <SCORE.INTER>
-5.01462

>  <SCORE.INTER.CONST>
1

>  <SCORE.INTER.POLAR>
0

>  <SCORE.INTER.ROT>
6

>  <SCORE.INTER.SOLV>
17.0058

>  <SCORE.INTER.VDW>
-16.6117

>  <SCORE.INTER.norm>
-0.161762

>  <SCORE.INTRA>
-1.37488

>  <SCORE.INTRA.DIHEDRAL>
-10.2668

>  <SCORE.INTRA.DIHEDRAL.0>
19.2558

>  <SCORE.INTRA.POLAR>
0

>  <SCORE.INTRA.POLAR.0>
0

>  <SCORE.INTRA.REPUL>
0

>  <SCORE.INTRA.REPUL.0>
0

>  <SCORE.INTRA.SOLV>
0.783919

>  <SCORE.INTRA.SOLV.lig_0>
-64.5929

>  <SCORE.INTRA.VDW>
3.36653

>  <SCORE.INTRA.VDW.0>
-4.40538

>  <SCORE.INTRA.norm>
-0.044351

>  <SCORE.RESTR>
0.822266

>  <SCORE.RESTR.CAVITY>
0.822266

>  <SCORE.RESTR.norm>
0.0265247

>  <SCORE.SYSTEM>
0

>  <SCORE.SYSTEM.CONST>
0

>  <SCORE.SYSTEM.DIHEDRAL>
0

>  <SCORE.SYSTEM.SOLV>
0

>  <SCORE.SYSTEM.norm>
0

>  <SCORE.heavy>
31

>  <SCORE.norm>
-0.179588

>  <RMSD>
3.050

$$$$
ligand
 OpenBabel11021811493D
libRbt.so/2013.1/901 2013/11/27
 31 33  0  0  0  0  0  0  0  0999 V2000
  -20.1246  -17.8033  -13.6193 C   0  0  2  0  0  0  0  0  0  0  0  0
  -21.4575  -17.6015  -13.1729 O   0  0  0  0  0  0  0  0  0  0  0  0
  -23.1034  -15.5377  -16.5206 C   0  0  2  0  0  0  0  0  0  0  0  0
  -24.0663  -14.9078  -17.3652 N   0  0  0  0  0  0  0  0  0  0  0  0
  -23.4281  -12.3814  -15.9780 C   0  0  2  0  0  0  0  0  0  0  0  0
  -19.4104  -18.7224  -12.5434 C   0  0  2  0  0  0  0  0  0  0  0  0
  -20.1405  -19.9937  -12.4310 N   0  0  0  0  0  0  0  0  0  0  0  0
  -23.5572  -17.0426  -16.2768 C   0  0  0  0  0  0  0  0  0  0  0  0
  -22.6877  -11.0413  -15.6553 C   0  0  2  0  0  0  0  0  0  0  0  0
  -21.3709  -11.1420  -16.1440 O   0  0  0  0  0  0  0  0  0  0  0  0
  -19.3596  -17.9758  -11.1518 C   0  0  0  0  0  0  0  0  0  0  0  0
  -22.4785  -17.7500  -15.3386 C   0  0  2  0  0  0  0  0  0  0  0  0
  -22.8791  -19.1541  -15.1034 N   0  0  0  0  0  0  0  0  0  0  0  0
  -22.7049  -10.7966  -14.0891 C   0  0  1  0  0  0  0  0  0  0  0  0
  -21.9925   -9.5108  -13.7581 N   0  0  0  0  0  0  0  0  0  0  0  0
  -19.0380  -16.4312  -11.3050 C   0  0  0  0  0  0  0  0  0  0  0  0
  -22.4087  -16.9743  -13.9592 C   0  0  2  0  0  0  0  0  0  0  0  0
  -24.2479  -10.6908  -13.5837 C   0  0  1  0  0  0  0  0  0  0  0  0
  -24.9554   -9.6210  -14.1772 O   0  0  0  0  0  0  0  0  0  0  0  0
  -19.0743  -15.8275  -12.5145 C   0  0  2  0  0  0  0  0  0  0  0  0
  -19.3982  -16.5334  -13.7169 O   0  0  0  0  0  0  0  0  0  0  0  0
  -21.9750  -15.4741  -14.2220 C   0  0  2  0  0  0  0  0  0  0  0  0
  -21.9236  -14.7737  -12.9679 O   0  0  0  0  0  0  0  0  0  0  0  0
  -24.9816  -12.0268  -13.9386 C   0  0  0  0  0  0  0  0  0  0  0  0
  -24.8425  -12.3259  -15.4301 O   0  0  0  0  0  0  0  0  0  0  0  0
  -18.7682  -14.3420  -12.7008 C   0  0  0  0  0  0  0  0  0  0  0  0
  -17.8310  -13.9511  -11.6854 O   0  0  0  0  0  0  0  0  0  0  0  0
  -23.0405  -14.7690  -15.1519 C   0  0  1  0  0  0  0  0  0  0  0  0
  -22.6114  -13.4366  -15.3737 O   0  0  0  0  0  0  0  0  0  0  0  0
  -24.4144  -10.4685  -12.0652 C   0  0  0  0  0  0  0  0  0  0  0  0
  -20.5803   -9.6307  -13.3422 C   0  0  0  0  0  0  0  0  0  0  0  0
  1  2  1  1  0  0  0
  1  6  1  0  0  0  0
  1 21  1  0  0  0  0
  3  4  1  6  0  0  0
  3  8  1  0  0  0  0
  3 28  1  0  0  0  0
  5  9  1  0  0  0  0
  5 25  1  0  0  0  0
  5 29  1  1  0  0  0
  6  7  1  1  0  0  0
  6 11  1  0  0  0  0
  8 12  1  0  0  0  0
  9 10  1  1  0  0  0
  9 14  1  0  0  0  0
 11 16  1  0  0  0  0
 12 13  1  1  0  0  0
 12 17  1  0  0  0  0
 14 15  1  6  0  0  0
 14 18  1  0  0  0  0
 15 31  1  0  0  0  0
 16 20  1  0  0  0  0
 17  2  1  1  0  0  0
 17 22  1  0  0  0  0
 18 19  1  6  0  0  0
 18 24  1  0  0  0  0
 18 30  1  0  0  0  0
 20 21  1  0  0  0  0
 20 26  1  6  0  0  0
 22 23  1  1  0  0  0
 22 28  1  0  0  0  0
 24 25  1  0  0  0  0
 26 27  1  0  0  0  0
 28 29  1  6  0  0  0
M  END
>  <CHROM.1>
-172.09651010,164.98396483,-96.99468307,55.04426566,29.97019990,73.31203728
-21.88780471,-14.42220195,-14.02692570,1.02353297,0.66466179,-2.98393168

>  <Name>
ligand

>  <RI>
0

>  <Rbt.Current_Directory>
/home/itssahil/PROJECTS/Mol_Feturizer/New_Systems/rnas/4GPW

>  <Rbt.Executable>
rbdock ($Id: //depot/dev/client3/rdock/2013.1/src/exe/rbdock.cxx#4 $)

>  <Rbt.Library>
libRbt.so (2013.1, Build901 2013/11/27)

>  <Rbt.Parameter_File>
/export/apps/rDock/src/rDock_2013.1_src/data/scripts/dock_solv.prm

>  <Rbt.Receptor>
prm/pocket_docking_4.prm

>  <SCORE>
-9.72231

>  <SCORE.INTER>
-4.20069

>  <SCORE.INTER.CONST>
1

>  <SCORE.INTER.POLAR>
0

>  <SCORE.INTER.ROT>
6

>  <SCORE.INTER.SOLV>
14.1212

>  <SCORE.INTER.VDW>
-15.1075

>  <SCORE.INTER.norm>
-0.135506

>  <SCORE.INTRA>
-5.52162

>  <SCORE.INTRA.DIHEDRAL>
-13.4673

>  <SCORE.INTRA.DIHEDRAL.0>
19.2558

>  <SCORE.INTRA.POLAR>
0

>  <SCORE.INTRA.POLAR.0>
0

>  <SCORE.INTRA.REPUL>
0

>  <SCORE.INTRA.REPUL.0>
0

>  <SCORE.INTRA.SOLV>
-0.861261

>  <SCORE.INTRA.SOLV.lig_0>
-64.5929

>  <SCORE.INTRA.VDW>
1.64268

>  <SCORE.INTRA.VDW.0>
-4.40538

>  <SCORE.INTRA.norm>
-0.178117

>  <SCORE.RESTR>
0

>  <SCORE.RESTR.CAVITY>
0

>  <SCORE.RESTR.norm>
0

>  <SCORE.SYSTEM>
0

>  <SCORE.SYSTEM.CONST>
0

>  <SCORE.SYSTEM.DIHEDRAL>
0

>  <SCORE.SYSTEM.SOLV>
0

>  <SCORE.SYSTEM.norm>
0

>  <SCORE.heavy>
31

>  <SCORE.norm>
-0.313623

>  <RMSD>
3.076

$$$$
ligand
 OpenBabel11021811493D
libRbt.so/2013.1/901 2013/11/27
 31 33  0  0  0  0  0  0  0  0999 V2000
  -20.2702  -17.6811  -15.1468 C   0  0  2  0  0  0  0  0  0  0  0  0
  -20.5013  -16.3417  -15.5582 O   0  0  0  0  0  0  0  0  0  0  0  0
  -22.6865  -14.4095  -18.6672 C   0  0  2  0  0  0  0  0  0  0  0  0
  -23.7785  -14.0480  -19.5124 N   0  0  0  0  0  0  0  0  0  0  0  0
  -24.4852  -11.9182  -17.2361 C   0  0  2  0  0  0  0  0  0  0  0  0
  -21.4163  -18.0531  -14.1170 C   0  0  2  0  0  0  0  0  0  0  0  0
  -22.7237  -17.9079  -14.7737 N   0  0  0  0  0  0  0  0  0  0  0  0
  -22.4634  -15.9804  -18.7791 C   0  0  0  0  0  0  0  0  0  0  0  0
  -24.1595  -10.4027  -17.0230 C   0  0  2  0  0  0  0  0  0  0  0  0
  -23.1587  -10.0381  -17.9440 O   0  0  0  0  0  0  0  0  0  0  0  0
  -21.3164  -17.1198  -12.8459 C   0  0  0  0  0  0  0  0  0  0  0  0
  -21.2390  -16.3850  -17.8404 C   0  0  2  0  0  0  0  0  0  0  0  0
  -21.0107  -17.8433  -17.9338 N   0  0  0  0  0  0  0  0  0  0  0  0
  -23.6801  -10.1743  -15.5293 C   0  0  1  0  0  0  0  0  0  0  0  0
  -23.3580   -8.7194  -15.3056 N   0  0  0  0  0  0  0  0  0  0  0  0
  -19.8172  -16.8627  -12.4001 C   0  0  0  0  0  0  0  0  0  0  0  0
  -21.5847  -15.9914  -16.3455 C   0  0  2  0  0  0  0  0  0  0  0  0
  -24.8735  -10.6133  -14.5142 C   0  0  1  0  0  0  0  0  0  0  0  0
  -26.0568   -9.8605  -14.6883 O   0  0  0  0  0  0  0  0  0  0  0  0
  -18.7826  -17.2060  -13.2003 C   0  0  2  0  0  0  0  0  0  0  0  0
  -18.9708  -17.8167  -14.4811 O   0  0  0  0  0  0  0  0  0  0  0  0
  -21.8229  -14.4284  -16.2559 C   0  0  2  0  0  0  0  0  0  0  0  0
  -22.1460  -14.0797  -14.8995 O   0  0  0  0  0  0  0  0  0  0  0  0
  -25.2064  -12.1227  -14.7590 C   0  0  0  0  0  0  0  0  0  0  0  0
  -25.5345  -12.3592  -16.2321 O   0  0  0  0  0  0  0  0  0  0  0  0
  -17.3251  -16.9756  -12.8032 C   0  0  0  0  0  0  0  0  0  0  0  0
  -16.7341  -18.2539  -12.5223 O   0  0  0  0  0  0  0  0  0  0  0  0
  -23.0349  -14.0223  -17.1850 C   0  0  1  0  0  0  0  0  0  0  0  0
  -23.2075  -12.6190  -17.0877 O   0  0  0  0  0  0  0  0  0  0  0  0
  -24.5342  -10.4583  -13.0162 C   0  0  0  0  0  0  0  0  0  0  0  0
  -21.9326   -8.3418  -15.3904 C   0  0  0  0  0  0  0  0  0  0  0  0
  1  2  1  1  0  0  0
  1  6  1  0  0  0  0
  1 21  1  0  0  0  0
  3  4  1  6  0  0  0
  3  8  1  0  0  0  0
  3 28  1  0  0  0  0
  5  9  1  0  0  0  0
  5 25  1  0  0  0  0
  5 29  1  1  0  0  0
  6  7  1  6  0  0  0
  6 11  1  0  0  0  0
  8 12  1  0  0  0  0
  9 10  1  6  0  0  0
  9 14  1  0  0  0  0
 11 16  1  0  0  0  0
 12 13  1  1  0  0  0
 12 17  1  0  0  0  0
 14 15  1  6  0  0  0
 14 18  1  0  0  0  0
 15 31  1  0  0  0  0
 16 20  1  0  0  0  0
 17  2  1  1  0  0  0
 17 22  1  0  0  0  0
 18 19  1  6  0  0  0
 18 24  1  0  0  0  0
 18 30  1  0  0  0  0
 20 21  1  0  0  0  0
 20 26  1  1  0  0  0
 22 23  1  1  0  0  0
 22 28  1  0  0  0  0
 24 25  1  0  0  0  0
 26 27  1  0  0  0  0
 28 29  1  6  0  0  0
M  END
>  <CHROM.1>
-68.88814816,179.12945855,-98.32430482,-78.76843175,108.83832493,91.73043964
-22.17656071,-14.13687275,-15.58872921,0.38728080,0.93769934,-2.28361626

>  <Name>
ligand

>  <RI>
0

>  <Rbt.Current_Directory>
/home/itssahil/PROJECTS/Mol_Feturizer/New_Systems/rnas/4GPW

>  <Rbt.Executable>
rbdock ($Id: //depot/dev/client3/rdock/2013.1/src/exe/rbdock.cxx#4 $)

>  <Rbt.Library>
libRbt.so (2013.1, Build901 2013/11/27)

>  <Rbt.Parameter_File>
/export/apps/rDock/src/rDock_2013.1_src/data/scripts/dock_solv.prm

>  <Rbt.Receptor>
prm/pocket_docking_5.prm

>  <SCORE>
-10.9265

>  <SCORE.INTER>
-7.28084

>  <SCORE.INTER.CONST>
1

>  <SCORE.INTER.POLAR>
0

>  <SCORE.INTER.ROT>
6

>  <SCORE.INTER.SOLV>
11.7818

>  <SCORE.INTER.VDW>
-16.3812

>  <SCORE.INTER.norm>
-0.234866

>  <SCORE.INTRA>
-3.64565

>  <SCORE.INTRA.DIHEDRAL>
-10.6419

>  <SCORE.INTRA.DIHEDRAL.0>
19.2558

>  <SCORE.INTRA.POLAR>
0

>  <SCORE.INTRA.POLAR.0>
0

>  <SCORE.INTRA.REPUL>
0

>  <SCORE.INTRA.REPUL.0>
0

>  <SCORE.INTRA.SOLV>
1.00437

>  <SCORE.INTRA.SOLV.lig_0>
-64.5929

>  <SCORE.INTRA.VDW>
1.1731

>  <SCORE.INTRA.VDW.0>
-4.40538

>  <SCORE.INTRA.norm>
-0.117602

>  <SCORE.RESTR>
0

>  <SCORE.RESTR.CAVITY>
0

>  <SCORE.RESTR.norm>
0

>  <SCORE.SYSTEM>
0

>  <SCORE.SYSTEM.CONST>
0

>  <SCORE.SYSTEM.DIHEDRAL>
0

>  <SCORE.SYSTEM.SOLV>
0

>  <SCORE.SYSTEM.norm>
0

>  <SCORE.heavy>
31

>  <SCORE.norm>
-0.352467

>  <RMSD>
3.116

$$$$
ligand
 OpenBabel11021811493D
libRbt.so/2013.1/901 2013/11/27
 31 33  0  0  0  0  0  0  0  0999 V2000
  -18.5995  -15.7226  -12.4522 C   0  0  2  0  0  0  0  0  0  0  0  0
  -19.5538  -15.7984  -13.5012 O   0  0  0  0  0  0  0  0  0  0  0  0
  -23.3290  -14.0407  -14.4138 C   0  0  2  0  0  0  0  0  0  0  0  0
  -24.6948  -13.6511  -14.2725 N   0  0  0  0  0  0  0  0  0  0  0  0
  -23.7259  -11.1685  -13.0571 C   0  0  2  0  0  0  0  0  0  0  0  0
  -17.1685  -15.8743  -13.1167 C   0  0  2  0  0  0  0  0  0  0  0  0
  -16.9751  -14.7997  -14.1014 N   0  0  0  0  0  0  0  0  0  0  0  0
  -23.2476  -15.6268  -14.3266 C   0  0  0  0  0  0  0  0  0  0  0  0
  -23.2746   -9.6854  -13.2693 C   0  0  2  0  0  0  0  0  0  0  0  0
  -22.7683   -9.5666  -14.5778 O   0  0  0  0  0  0  0  0  0  0  0  0
  -17.0437  -17.2941  -13.7989 C   0  0  0  0  0  0  0  0  0  0  0  0
  -21.7226  -16.0644  -14.4911 C   0  0  2  0  0  0  0  0  0  0  0  0
  -21.6249  -17.5383  -14.4183 N   0  0  0  0  0  0  0  0  0  0  0  0
  -22.1760   -9.3118  -12.1891 C   0  0  1  0  0  0  0  0  0  0  0  0
  -21.7259   -7.8865  -12.3799 N   0  0  0  0  0  0  0  0  0  0  0  0
  -17.7100  -18.4423  -12.9329 C   0  0  0  0  0  0  0  0  0  0  0  0
  -20.8715  -15.4126  -13.3249 C   0  0  2  0  0  0  0  0  0  0  0  0
  -22.8167   -9.4689  -10.7018 C   0  0  1  0  0  0  0  0  0  0  0  0
  -23.9218   -8.6166  -10.4794 O   0  0  0  0  0  0  0  0  0  0  0  0
  -18.5047  -18.1495  -11.8786 C   0  0  2  0  0  0  0  0  0  0  0  0
  -18.7895  -16.8043  -11.4808 O   0  0  0  0  0  0  0  0  0  0  0  0
  -20.9795  -13.8352  -13.4148 C   0  0  2  0  0  0  0  0  0  0  0  0
  -20.2136  -13.2507  -12.3482 O   0  0  0  0  0  0  0  0  0  0  0  0
  -23.2882  -10.9495  -10.5158 C   0  0  0  0  0  0  0  0  0  0  0  0
  -24.2424  -11.3455  -11.6410 O   0  0  0  0  0  0  0  0  0  0  0  0
  -19.1618  -19.2293  -11.0201 C   0  0  0  0  0  0  0  0  0  0  0  0
  -18.9729  -18.8761   -9.6411 O   0  0  0  0  0  0  0  0  0  0  0  0
  -22.4890  -13.3967  -13.2529 C   0  0  1  0  0  0  0  0  0  0  0  0
  -22.5454  -11.9840  -13.3517 O   0  0  0  0  0  0  0  0  0  0  0  0
  -21.8450   -9.1510   -9.5452 C   0  0  0  0  0  0  0  0  0  0  0  0
  -20.6186   -7.6694  -13.3330 C   0  0  0  0  0  0  0  0  0  0  0  0
  1  2  1  6  0  0  0
  1  6  1  0  0  0  0
  1 21  1  0  0  0  0
  3  4  1  1  0  0  0
  3  8  1  0  0  0  0
  3 28  1  0  0  0  0
  5  9  1  0  0  0  0
  5 25  1  0  0  0  0
  5 29  1  1  0  0  0
  6  7  1  6  0  0  0
  6 11  1  0  0  0  0
  8 12  1  0  0  0  0
  9 10  1  6  0  0  0
  9 14  1  0  0  0  0
 11 16  1  0  0  0  0
 12 13  1  1  0  0  0
 12 17  1  0  0  0  0
 14 15  1  6  0  0  0
 14 18  1  0  0  0  0
 15 31  1  0  0  0  0
 16 20  1  0  0  0  0
 17  2  1  6  0  0  0
 17 22  1  0  0  0  0
 18 19  1  1  0  0  0
 18 24  1  0  0  0  0
 18 30  1  0  0  0  0
 20 21  1  0  0  0  0
 20 26  1  1  0  0  0
 22 23  1  1  0  0  0
 22 28  1  0  0  0  0
 24 25  1  0  0  0  0
 26 27  1  0  0  0  0
 28 29  1  6  0  0  0
M  END
>  <CHROM.1>
-165.41875992,178.26312510,-87.38794809,-161.50794200,134.13973147,71.37796560
-21.11690897,-13.54508953,-12.65571882,-1.04240385,-0.42788474,0.28468606

>  <Name>
ligand

>  <RI>
0

>  <Rbt.Current_Directory>
/home/itssahil/PROJECTS/Mol_Feturizer/New_Systems/rnas/4GPW

>  <Rbt.Executable>
rbdock ($Id: //depot/dev/client3/rdock/2013.1/src/exe/rbdock.cxx#4 $)

>  <Rbt.Library>
libRbt.so (2013.1, Build901 2013/11/27)

>  <Rbt.Parameter_File>
/export/apps/rDock/src/rDock_2013.1_src/data/scripts/dock_solv.prm

>  <Rbt.Receptor>
prm/pocket_docking_6.prm

>  <SCORE>
-13.863

>  <SCORE.INTER>
-7.23564

>  <SCORE.INTER.CONST>
1

>  <SCORE.INTER.POLAR>
0

>  <SCORE.INTER.ROT>
6

>  <SCORE.INTER.SOLV>
14.4865

>  <SCORE.INTER.VDW>
-17.2526

>  <SCORE.INTER.norm>
-0.233408

>  <SCORE.INTRA>
-6.6274

>  <SCORE.INTRA.DIHEDRAL>
-13.5994

>  <SCORE.INTRA.DIHEDRAL.0>
19.2558

>  <SCORE.INTRA.POLAR>
0

>  <SCORE.INTRA.POLAR.0>
0

>  <SCORE.INTRA.REPUL>
0

>  <SCORE.INTRA.REPUL.0>
0

>  <SCORE.INTRA.SOLV>
-1.63942

>  <SCORE.INTRA.SOLV.lig_0>
-64.5929

>  <SCORE.INTRA.VDW>
0.991983

>  <SCORE.INTRA.VDW.0>
-4.40538

>  <SCORE.INTRA.norm>
-0.213787

>  <SCORE.RESTR>
0

>  <SCORE.RESTR.CAVITY>
0

>  <SCORE.RESTR.norm>
0

>  <SCORE.SYSTEM>
0

>  <SCORE.SYSTEM.CONST>
0

>  <SCORE.SYSTEM.DIHEDRAL>
0

>  <SCORE.SYSTEM.SOLV>
0

>  <SCORE.SYSTEM.norm>
0

>  <SCORE.heavy>
31

>  <SCORE.norm>
-0.447195

>  <RMSD>
3.127

$$$$
ligand
 OpenBabel11021811493D
libRbt.so/2013.1/901 2013/11/27
 31 33  0  0  0  0  0  0  0  0999 V2000
  -17.6452  -15.1009  -13.3047 C   0  0  2  0  0  0  0  0  0  0  0  0
  -18.9522  -14.8842  -13.8161 O   0  0  0  0  0  0  0  0  0  0  0  0
  -22.1589  -12.3986  -12.5072 C   0  0  2  0  0  0  0  0  0  0  0  0
  -22.9020  -11.2178  -12.2061 N   0  0  0  0  0  0  0  0  0  0  0  0
  -23.9809  -11.3629  -14.9569 C   0  0  2  0  0  0  0  0  0  0  0  0
  -16.7717  -15.6760  -14.4958 C   0  0  2  0  0  0  0  0  0  0  0  0
  -16.7648  -14.7083  -15.6028 N   0  0  0  0  0  0  0  0  0  0  0  0
  -20.8031  -12.3644  -11.6762 C   0  0  0  0  0  0  0  0  0  0  0  0
  -25.2227  -11.9585  -15.6993 C   0  0  2  0  0  0  0  0  0  0  0  0
  -25.7139  -13.0337  -14.9342 O   0  0  0  0  0  0  0  0  0  0  0  0
  -17.3572  -17.0664  -14.9652 C   0  0  0  0  0  0  0  0  0  0  0  0
  -19.9745  -13.6867  -12.0063 C   0  0  2  0  0  0  0  0  0  0  0  0
  -18.7104  -13.6776  -11.2386 N   0  0  0  0  0  0  0  0  0  0  0  0
  -24.7898  -12.4320  -17.1490 C   0  0  1  0  0  0  0  0  0  0  0  0
  -25.9732  -13.0126  -17.8791 N   0  0  0  0  0  0  0  0  0  0  0  0
  -17.8395  -17.9616  -13.7493 C   0  0  0  0  0  0  0  0  0  0  0  0
  -19.6588  -13.7221  -13.5582 C   0  0  2  0  0  0  0  0  0  0  0  0
  -24.2311  -11.1513  -17.9827 C   0  0  1  0  0  0  0  0  0  0  0  0
  -25.1968  -10.1334  -18.1515 O   0  0  0  0  0  0  0  0  0  0  0  0
  -17.9575  -17.4442  -12.5055 C   0  0  2  0  0  0  0  0  0  0  0  0
  -17.6571  -16.0763  -12.2100 O   0  0  0  0  0  0  0  0  0  0  0  0
  -21.0183  -13.7360  -14.3702 C   0  0  2  0  0  0  0  0  0  0  0  0
  -20.7246  -13.7578  -15.7770 O   0  0  0  0  0  0  0  0  0  0  0  0
  -23.0079  -10.5506  -17.2134 C   0  0  0  0  0  0  0  0  0  0  0  0
  -23.3983  -10.2236  -15.7732 O   0  0  0  0  0  0  0  0  0  0  0  0
  -18.4170  -18.2769  -11.3094 C   0  0  0  0  0  0  0  0  0  0  0  0
  -19.5666  -17.6345  -10.7367 O   0  0  0  0  0  0  0  0  0  0  0  0
  -21.8433  -12.4279  -14.0459 C   0  0  1  0  0  0  0  0  0  0  0  0
  -23.0548  -12.4838  -14.7792 O   0  0  0  0  0  0  0  0  0  0  0  0
  -23.7552  -11.4734  -19.4155 C   0  0  0  0  0  0  0  0  0  0  0  0
  -26.1318  -14.4795  -17.8108 C   0  0  0  0  0  0  0  0  0  0  0  0
  1  2  1  6  0  0  0
  1  6  1  0  0  0  0
  1 21  1  0  0  0  0
  3  4  1  6  0  0  0
  3  8  1  0  0  0  0
  3 28  1  0  0  0  0
  5  9  1  0  0  0  0
  5 25  1  0  0  0  0
  5 29  1  6  0  0  0
  6  7  1  6  0  0  0
  6 11  1  0  0  0  0
  8 12  1  0  0  0  0
  9 10  1  1  0  0  0
  9 14  1  0  0  0  0
 11 16  1  0  0  0  0
 12 13  1  1  0  0  0
 12 17  1  0  0  0  0
 14 15  1  6  0  0  0
 14 18  1  0  0  0  0
 15 31  1  0  0  0  0
 16 20  1  0  0  0  0
 17  2  1  1  0  0  0
 17 22  1  0  0  0  0
 18 19  1  6  0  0  0
 18 24  1  0  0  0  0
 18 30  1  0  0  0  0
 20 21  1  0  0  0  0
 20 26  1  1  0  0  0
 22 23  1  6  0  0  0
 22 28  1  0  0  0  0
 24 25  1  0  0  0  0
 26 27  1  0  0  0  0
 28 29  1  6  0  0  0
M  END
>  <CHROM.1>
-134.77532468,-174.11798687,-94.92960169,-66.13184495,-123.41799022,73.84162454
-21.35623519,-13.68531837,-14.58923386,-0.34115845,0.68856741,-1.80492617

>  <Name>
ligand

>  <RI>
0

>  <Rbt.Current_Directory>
/home/itssahil/PROJECTS/Mol_Feturizer/New_Systems/rnas/4GPW

>  <Rbt.Executable>
rbdock ($Id: //depot/dev/client3/rdock/2013.1/src/exe/rbdock.cxx#4 $)

>  <Rbt.Library>
libRbt.so (2013.1, Build901 2013/11/27)

>  <Rbt.Parameter_File>
/export/apps/rDock/src/rDock_2013.1_src/data/scripts/dock_solv.prm

>  <Rbt.Receptor>
prm/pocket_docking_6.prm

>  <SCORE>
-12.3122

>  <SCORE.INTER>
-8.8733

>  <SCORE.INTER.CONST>
1

>  <SCORE.INTER.POLAR>
0

>  <SCORE.INTER.ROT>
6

>  <SCORE.INTER.SOLV>
14.2594

>  <SCORE.INTER.VDW>
-18.2687

>  <SCORE.INTER.norm>
-0.286236

>  <SCORE.INTRA>
-3.4389

>  <SCORE.INTRA.DIHEDRAL>
-9.36509

>  <SCORE.INTRA.DIHEDRAL.0>
19.2558

>  <SCORE.INTRA.POLAR>
0

>  <SCORE.INTRA.POLAR.0>
0

>  <SCORE.INTRA.REPUL>
0

>  <SCORE.INTRA.REPUL.0>
0

>  <SCORE.INTRA.SOLV>
-0.283153

>  <SCORE.INTRA.SOLV.lig_0>
-64.5929

>  <SCORE.INTRA.VDW>
1.38522

>  <SCORE.INTRA.VDW.0>
-4.40538

>  <SCORE.INTRA.norm>
-0.110932

>  <SCORE.RESTR>
0

>  <SCORE.RESTR.CAVITY>
0

>  <SCORE.RESTR.norm>
0

>  <SCORE.SYSTEM>
0

>  <SCORE.SYSTEM.CONST>
0

>  <SCORE.SYSTEM.DIHEDRAL>
0

>  <SCORE.SYSTEM.SOLV>
0

>  <SCORE.SYSTEM.norm>
0

>  <SCORE.heavy>
31

>  <SCORE.norm>
-0.397168

>  <RMSD>
3.458

$$$$
ligand
 OpenBabel11021811493D
libRbt.so/2013.1/901 2013/11/27
 31 33  0  0  0  0  0  0  0  0999 V2000
  -18.5687  -15.6084  -12.4051 C   0  0  2  0  0  0  0  0  0  0  0  0
  -19.5438  -15.6557  -13.4365 O   0  0  0  0  0  0  0  0  0  0  0  0
  -23.2016  -13.6053  -14.2050 C   0  0  2  0  0  0  0  0  0  0  0  0
  -24.5484  -13.1611  -14.0429 N   0  0  0  0  0  0  0  0  0  0  0  0
  -23.5210  -10.8780  -12.7504 C   0  0  2  0  0  0  0  0  0  0  0  0
  -17.1562  -15.8155  -13.0938 C   0  0  2  0  0  0  0  0  0  0  0  0
  -16.9419  -14.7542  -14.0886 N   0  0  0  0  0  0  0  0  0  0  0  0
  -23.2041  -15.1931  -14.2983 C   0  0  0  0  0  0  0  0  0  0  0  0
  -23.0055   -9.4087  -12.9041 C   0  0  2  0  0  0  0  0  0  0  0  0
  -22.3418   -9.3066  -14.1417 O   0  0  0  0  0  0  0  0  0  0  0  0
  -17.0949  -17.2427  -13.7690 C   0  0  0  0  0  0  0  0  0  0  0  0
  -21.7004  -15.6906  -14.4864 C   0  0  2  0  0  0  0  0  0  0  0  0
  -21.6805  -17.1664  -14.5809 N   0  0  0  0  0  0  0  0  0  0  0  0
  -22.0350   -9.0647  -11.6986 C   0  0  1  0  0  0  0  0  0  0  0  0
  -21.5249   -7.6531  -11.8313 N   0  0  0  0  0  0  0  0  0  0  0  0
  -17.7865  -18.3611  -12.8840 C   0  0  0  0  0  0  0  0  0  0  0  0
  -20.8435  -15.2219  -13.2393 C   0  0  2  0  0  0  0  0  0  0  0  0
  -22.8546   -9.2009  -10.2997 C   0  0  1  0  0  0  0  0  0  0  0  0
  -23.9538   -8.3171  -10.2108 O   0  0  0  0  0  0  0  0  0  0  0  0
  -18.5510  -18.0337  -11.8177 C   0  0  2  0  0  0  0  0  0  0  0  0
  -18.7801  -16.6768  -11.4235 O   0  0  0  0  0  0  0  0  0  0  0  0
  -20.8679  -13.6410  -13.1500 C   0  0  2  0  0  0  0  0  0  0  0  0
  -20.0973  -13.2232  -12.0109 O   0  0  0  0  0  0  0  0  0  0  0  0
  -23.3871  -10.6672  -10.1744 C   0  0  0  0  0  0  0  0  0  0  0  0
  -24.2094  -11.0378  -11.4072 O   0  0  0  0  0  0  0  0  0  0  0  0
  -19.2312  -19.0841  -10.9408 C   0  0  0  0  0  0  0  0  0  0  0  0
  -18.9093  -18.7951   -9.5715 O   0  0  0  0  0  0  0  0  0  0  0  0
  -22.3560  -13.1430  -12.9642 C   0  0  1  0  0  0  0  0  0  0  0  0
  -22.3372  -11.7273  -12.9018 O   0  0  0  0  0  0  0  0  0  0  0  0
  -22.0209   -8.9087   -9.0338 C   0  0  0  0  0  0  0  0  0  0  0  0
  -20.2759   -7.4756  -12.5996 C   0  0  0  0  0  0  0  0  0  0  0  0
  1  2  1  6  0  0  0
  1  6  1  0  0  0  0
  1 21  1  0  0  0  0
  3  4  1  1  0  0  0
  3  8  1  0  0  0  0
  3 28  1  0  0  0  0
  5  9  1  0  0  0  0
  5 25  1  0  0  0  0
  5 29  1  1  0  0  0
  6  7  1  6  0  0  0
  6 11  1  0  0  0  0
  8 12  1  0  0  0  0
  9 10  1  6  0  0  0
  9 14  1  0  0  0  0
 11 16  1  0  0  0  0
 12 13  1  1  0  0  0
 12 17  1  0  0  0  0
 14 15  1  6  0  0  0
 14 18  1  0  0  0  0
 15 31  1  0  0  0  0
 16 20  1  0  0  0  0
 17  2  1  6  0  0  0
 17 22  1  0  0  0  0
 18 19  1  6  0  0  0
 18 24  1  0  0  0  0
 18 30  1  0  0  0  0
 20 21  1  0  0  0  0
 20 26  1  1  0  0  0
 22 23  1  1  0  0  0
 22 28  1  0  0  0  0
 24 25  1  0  0  0  0
 26 27  1  0  0  0  0
 28 29  1  6  0  0  0
M  END
>  <CHROM.1>
-165.44083160,-173.51653846,-89.68586489,-168.77546376,129.27836229,60.92116527
-21.04889738,-13.32447635,-12.43188481,-1.04758425,-0.48227260,0.36443347

>  <Name>
ligand

>  <RI>
0

>  <Rbt.Current_Directory>
/home/itssahil/PROJECTS/Mol_Feturizer/New_Systems/rnas/4GPW

>  <Rbt.Executable>
rbdock ($Id: //depot/dev/client3/rdock/2013.1/src/exe/rbdock.cxx#4 $)

>  <Rbt.Library>
libRbt.so (2013.1, Build901 2013/11/27)

>  <Rbt.Parameter_File>
/export/apps/rDock/src/rDock_2013.1_src/data/scripts/dock_solv.prm

>  <Rbt.Receptor>
prm/pocket_docking_7.prm

>  <SCORE>
-14.7659

>  <SCORE.INTER>
-7.73909

>  <SCORE.INTER.CONST>
1

>  <SCORE.INTER.POLAR>
0

>  <SCORE.INTER.ROT>
6

>  <SCORE.INTER.SOLV>
13.7881

>  <SCORE.INTER.VDW>
-17.3554

>  <SCORE.INTER.norm>
-0.249648

>  <SCORE.INTRA>
-7.02683

>  <SCORE.INTRA.DIHEDRAL>
-15.0485

>  <SCORE.INTRA.DIHEDRAL.0>
19.2558

>  <SCORE.INTRA.POLAR>
0

>  <SCORE.INTRA.POLAR.0>
0

>  <SCORE.INTRA.REPUL>
0

>  <SCORE.INTRA.REPUL.0>
0

>  <SCORE.INTRA.SOLV>
-1.98635

>  <SCORE.INTRA.SOLV.lig_0>
-64.5929

>  <SCORE.INTRA.VDW>
1.49058

>  <SCORE.INTRA.VDW.0>
-4.40538

>  <SCORE.INTRA.norm>
-0.226672

>  <SCORE.RESTR>
0

>  <SCORE.RESTR.CAVITY>
0

>  <SCORE.RESTR.norm>
0

>  <SCORE.SYSTEM>
0

>  <SCORE.SYSTEM.CONST>
0

>  <SCORE.SYSTEM.DIHEDRAL>
0

>  <SCORE.SYSTEM.SOLV>
0

>  <SCORE.SYSTEM.norm>
0

>  <SCORE.heavy>
31

>  <SCORE.norm>
-0.47632

>  <RMSD>
3.497

$$$$
ligand
 OpenBabel11021811493D
libRbt.so/2013.1/901 2013/11/27
 31 33  0  0  0  0  0  0  0  0999 V2000
  -17.0811  -15.0811  -13.7293 C   0  0  2  0  0  0  0  0  0  0  0  0
  -18.3746  -14.7904  -14.2380 O   0  0  0  0  0  0  0  0  0  0  0  0
  -21.5917  -12.6030  -12.4943 C   0  0  2  0  0  0  0  0  0  0  0  0
  -22.3562  -11.4960  -12.0177 N   0  0  0  0  0  0  0  0  0  0  0  0
  -23.5839  -11.3669  -14.6710 C   0  0  2  0  0  0  0  0  0  0  0  0
  -16.2600  -15.7509  -14.9082 C   0  0  2  0  0  0  0  0  0  0  0  0
  -16.1967  -14.8200  -16.0445 N   0  0  0  0  0  0  0  0  0  0  0  0
  -20.1997  -12.6205  -11.7248 C   0  0  0  0  0  0  0  0  0  0  0  0
  -24.8288  -11.9099  -15.4479 C   0  0  2  0  0  0  0  0  0  0  0  0
  -25.2217  -13.1223  -14.8493 O   0  0  0  0  0  0  0  0  0  0  0  0
  -16.9440  -17.1112  -15.3304 C   0  0  0  0  0  0  0  0  0  0  0  0
  -19.3468  -13.8613  -12.2515 C   0  0  2  0  0  0  0  0  0  0  0  0
  -18.0486  -13.8994  -11.5440 N   0  0  0  0  0  0  0  0  0  0  0  0
  -24.4464  -12.1162  -16.9725 C   0  0  1  0  0  0  0  0  0  0  0  0
  -25.6331  -12.6428  -17.7373 N   0  0  0  0  0  0  0  0  0  0  0  0
  -17.4756  -17.9338  -14.0841 C   0  0  0  0  0  0  0  0  0  0  0  0
  -19.1042  -13.6953  -13.8080 C   0  0  2  0  0  0  0  0  0  0  0  0
  -24.0006  -10.6862  -17.6079 C   0  0  1  0  0  0  0  0  0  0  0  0
  -25.0267   -9.7153  -17.5668 O   0  0  0  0  0  0  0  0  0  0  0  0
  -17.5464  -17.3721  -12.8560 C   0  0  2  0  0  0  0  0  0  0  0  0
  -17.1499  -16.0198  -12.6050 O   0  0  0  0  0  0  0  0  0  0  0  0
  -20.4996  -13.6600  -14.5560 C   0  0  2  0  0  0  0  0  0  0  0  0
  -20.2725  -13.4991  -15.9661 O   0  0  0  0  0  0  0  0  0  0  0  0
  -22.7732  -10.1437  -16.8028 C   0  0  0  0  0  0  0  0  0  0  0  0
  -23.1058  -10.0775  -15.3134 O   0  0  0  0  0  0  0  0  0  0  0  0
  -18.0511  -18.1344  -11.6317 C   0  0  0  0  0  0  0  0  0  0  0  0
  -19.1864  -17.4291  -11.1064 O   0  0  0  0  0  0  0  0  0  0  0  0
  -21.3488  -12.4326  -14.0371 C   0  0  1  0  0  0  0  0  0  0  0  0
  -22.5914  -12.4431  -14.7186 O   0  0  0  0  0  0  0  0  0  0  0  0
  -23.5827  -10.7436  -19.0929 C   0  0  0  0  0  0  0  0  0  0  0  0
  -25.8022  -14.1100  -17.7588 C   0  0  0  0  0  0  0  0  0  0  0  0
  1  2  1  6  0  0  0
  1  6  1  0  0  0  0
  1 21  1  0  0  0  0
  3  4  1  1  0  0  0
  3  8  1  0  0  0  0
  3 28  1  0  0  0  0
  5  9  1  0  0  0  0
  5 25  1  0  0  0  0
  5 29  1  6  0  0  0
  6  7  1  6  0  0  0
  6 11  1  0  0  0  0
  8 12  1  0  0  0  0
  9 10  1  1  0  0  0
  9 14  1  0  0  0  0
 11 16  1  0  0  0  0
 12 13  1  1  0  0  0
 12 17  1  0  0  0  0
 14 15  1  6  0  0  0
 14 18  1  0  0  0  0
 15 31  1  0  0  0  0
 16 20  1  0  0  0  0
 17  2  1  6  0  0  0
 17 22  1  0  0  0  0
 18 19  1  1  0  0  0
 18 24  1  0  0  0  0
 18 30  1  0  0  0  0
 20 21  1  0  0  0  0
 20 26  1  1  0  0  0
 22 23  1  6  0  0  0
 22 28  1  0  0  0  0
 24 25  1  0  0  0  0
 26 27  1  0  0  0  0
 28 29  1  6  0  0  0
M  END
>  <CHROM.1>
-147.45131499,-174.07708653,-87.47091073,-60.74397637,-120.86683732,71.15445095
-20.92115173,-13.58985833,-14.64085431,-0.34666414,0.64744702,-1.66371716

>  <Name>
ligand

>  <RI>
0

>  <Rbt.Current_Directory>
/home/itssahil/PROJECTS/Mol_Feturizer/New_Systems/rnas/4GPW

>  <Rbt.Executable>
rbdock ($Id: //depot/dev/client3/rdock/2013.1/src/exe/rbdock.cxx#4 $)

>  <Rbt.Library>
libRbt.so (2013.1, Build901 2013/11/27)

>  <Rbt.Parameter_File>
/export/apps/rDock/src/rDock_2013.1_src/data/scripts/dock_solv.prm

>  <Rbt.Receptor>
prm/pocket_docking_7.prm

>  <SCORE>
-12.5586

>  <SCORE.INTER>
-8.91404

>  <SCORE.INTER.CONST>
1

>  <SCORE.INTER.POLAR>
0

>  <SCORE.INTER.ROT>
6

>  <SCORE.INTER.SOLV>
13.4761

>  <SCORE.INTER.VDW>
-18.0347

>  <SCORE.INTER.norm>
-0.28755

>  <SCORE.INTRA>
-3.64461

>  <SCORE.INTRA.DIHEDRAL>
-12.1917

>  <SCORE.INTRA.DIHEDRAL.0>
19.2558

>  <SCORE.INTRA.POLAR>
0

>  <SCORE.INTRA.POLAR.0>
0

>  <SCORE.INTRA.REPUL>
0

>  <SCORE.INTRA.REPUL.0>
0

>  <SCORE.INTRA.SOLV>
0.394119

>  <SCORE.INTRA.SOLV.lig_0>
-64.5929

>  <SCORE.INTRA.VDW>
2.25416

>  <SCORE.INTRA.VDW.0>
-4.40538

>  <SCORE.INTRA.norm>
-0.117568

>  <SCORE.RESTR>
0

>  <SCORE.RESTR.CAVITY>
0

>  <SCORE.RESTR.norm>
0

>  <SCORE.SYSTEM>
0

>  <SCORE.SYSTEM.CONST>
0

>  <SCORE.SYSTEM.DIHEDRAL>
0

>  <SCORE.SYSTEM.SOLV>
0

>  <SCORE.SYSTEM.norm>
0

>  <SCORE.heavy>
31

>  <SCORE.norm>
-0.405118

>  <RMSD>
3.519

$$$$
ligand
 OpenBabel11021811493D
libRbt.so/2013.1/901 2013/11/27
 31 33  0  0  0  0  0  0  0  0999 V2000
  -17.0724  -15.5447  -13.1047 C   0  0  2  0  0  0  0  0  0  0  0  0
  -18.3164  -15.0967  -13.6226 O   0  0  0  0  0  0  0  0  0  0  0  0
  -20.2518  -11.3038  -13.8286 C   0  0  2  0  0  0  0  0  0  0  0  0
  -20.4873   -9.9360  -14.1619 N   0  0  0  0  0  0  0  0  0  0  0  0
  -22.6498  -12.6758  -15.3836 C   0  0  2  0  0  0  0  0  0  0  0  0
  -16.1628  -15.9218  -14.3468 C   0  0  2  0  0  0  0  0  0  0  0  0
  -15.9965  -14.7379  -15.2027 N   0  0  0  0  0  0  0  0  0  0  0  0
  -18.8792  -11.3970  -13.0303 C   0  0  0  0  0  0  0  0  0  0  0  0
  -23.6805  -12.4264  -16.5341 C   0  0  2  0  0  0  0  0  0  0  0  0
  -23.1511  -12.9714  -17.7196 O   0  0  0  0  0  0  0  0  0  0  0  0
  -16.8224  -17.1113  -15.1508 C   0  0  0  0  0  0  0  0  0  0  0  0
  -18.6179  -12.9242  -12.6511 C   0  0  2  0  0  0  0  0  0  0  0  0
  -17.3472  -13.0329  -11.9023 N   0  0  0  0  0  0  0  0  0  0  0  0
  -23.9377  -10.8689  -16.6794 C   0  0  1  0  0  0  0  0  0  0  0  0
  -24.9263  -10.6083  -17.7863 N   0  0  0  0  0  0  0  0  0  0  0  0
  -17.4634  -18.2038  -14.1979 C   0  0  0  0  0  0  0  0  0  0  0  0
  -18.5300  -13.7773  -13.9829 C   0  0  2  0  0  0  0  0  0  0  0  0
  -24.5457  -10.2971  -15.2827 C   0  0  1  0  0  0  0  0  0  0  0  0
  -25.7796  -10.8887  -14.9297 O   0  0  0  0  0  0  0  0  0  0  0  0
  -17.6306  -17.9663  -12.8772 C   0  0  2  0  0  0  0  0  0  0  0  0
  -17.2433  -16.7329  -12.2627 O   0  0  0  0  0  0  0  0  0  0  0  0
  -19.8964  -13.6575  -14.7743 C   0  0  2  0  0  0  0  0  0  0  0  0
  -19.8061  -14.4253  -15.9859 O   0  0  0  0  0  0  0  0  0  0  0  0
  -23.5162  -10.5790  -14.1382 C   0  0  0  0  0  0  0  0  0  0  0  0
  -23.1690  -12.0659  -14.0943 O   0  0  0  0  0  0  0  0  0  0  0  0
  -18.2424  -18.9959  -11.9282 C   0  0  0  0  0  0  0  0  0  0  0  0
  -19.4681  -18.4523  -11.4139 O   0  0  0  0  0  0  0  0  0  0  0  0
  -20.1601  -12.1458  -15.1517 C   0  0  1  0  0  0  0  0  0  0  0  0
  -21.3944  -12.0787  -15.8451 O   0  0  0  0  0  0  0  0  0  0  0  0
  -24.8295   -8.7797  -15.2772 C   0  0  0  0  0  0  0  0  0  0  0  0
  -24.3590  -10.2701  -19.1074 C   0  0  0  0  0  0  0  0  0  0  0  0
  1  2  1  6  0  0  0
  1  6  1  0  0  0  0
  1 21  1  0  0  0  0
  3  4  1  6  0  0  0
  3  8  1  0  0  0  0
  3 28  1  0  0  0  0
  5  9  1  0  0  0  0
  5 25  1  0  0  0  0
  5 29  1  6  0  0  0
  6  7  1  6  0  0  0
  6 11  1  0  0  0  0
  8 12  1  0  0  0  0
  9 10  1  6  0  0  0
  9 14  1  0  0  0  0
 11 16  1  0  0  0  0
 12 13  1  6  0  0  0
 12 17  1  0  0  0  0
 14 15  1  6  0  0  0
 14 18  1  0  0  0  0
 15 31  1  0  0  0  0
 16 20  1  0  0  0  0
 17  2  1  1  0  0  0
 17 22  1  0  0  0  0
 18 19  1  1  0  0  0
 18 24  1  0  0  0  0
 18 30  1  0  0  0  0
 20 21  1  0  0  0  0
 20 26  1  1  0  0  0
 22 23  1  6  0  0  0
 22 28  1  0  0  0  0
 24 25  1  0  0  0  0
 26 27  1  0  0  0  0
 28 29  1  1  0  0  0
M  END
>  <CHROM.1>
-86.90975104,-175.73012144,-96.26983418,-72.05167276,-116.31580920,-67.99115171
-20.49839992,-13.43239321,-14.59967331,-0.54475888,-0.60938379,0.29327487

>  <Name>
ligand

>  <RI>
0

>  <Rbt.Current_Directory>
/home/itssahil/PROJECTS/Mol_Feturizer/New_Systems/rnas/4GPW

>  <Rbt.Executable>
rbdock ($Id: //depot/dev/client3/rdock/2013.1/src/exe/rbdock.cxx#4 $)

>  <Rbt.Library>
libRbt.so (2013.1, Build901 2013/11/27)

>  <Rbt.Parameter_File>
/export/apps/rDock/src/rDock_2013.1_src/data/scripts/dock_solv.prm

>  <Rbt.Receptor>
prm/pocket_docking_7.prm

>  <SCORE>
-13.274

>  <SCORE.INTER>
-9.10107

>  <SCORE.INTER.CONST>
1

>  <SCORE.INTER.POLAR>
0

>  <SCORE.INTER.ROT>
6

>  <SCORE.INTER.SOLV>
12.8126

>  <SCORE.INTER.VDW>
-17.9383

>  <SCORE.INTER.norm>
-0.293583

>  <SCORE.INTRA>
-4.17297

>  <SCORE.INTRA.DIHEDRAL>
-12.638

>  <SCORE.INTRA.DIHEDRAL.0>
19.2558

>  <SCORE.INTRA.POLAR>
0

>  <SCORE.INTRA.POLAR.0>
0

>  <SCORE.INTRA.REPUL>
0

>  <SCORE.INTRA.REPUL.0>
0

>  <SCORE.INTRA.SOLV>
1.66334

>  <SCORE.INTRA.SOLV.lig_0>
-64.5929

>  <SCORE.INTRA.VDW>
1.31438

>  <SCORE.INTRA.VDW.0>
-4.40538

>  <SCORE.INTRA.norm>
-0.134612

>  <SCORE.RESTR>
0

>  <SCORE.RESTR.CAVITY>
0

>  <SCORE.RESTR.norm>
0

>  <SCORE.SYSTEM>
0

>  <SCORE.SYSTEM.CONST>
0

>  <SCORE.SYSTEM.DIHEDRAL>
0

>  <SCORE.SYSTEM.SOLV>
0

>  <SCORE.SYSTEM.norm>
0

>  <SCORE.heavy>
31

>  <SCORE.norm>
-0.428195

>  <RMSD>
3.540

$$$$
ligand
 OpenBabel11021811493D
libRbt.so/2013.1/901 2013/11/27
 31 33  0  0  0  0  0  0  0  0999 V2000
  -18.9408  -15.0202  -11.5679 C   0  0  2  0  0  0  0  0  0  0  0  0
  -20.1304  -14.7677  -12.3012 O   0  0  0  0  0  0  0  0  0  0  0  0
  -22.7562  -11.4111  -12.4163 C   0  0  2  0  0  0  0  0  0  0  0  0
  -23.2267  -10.0858  -12.6599 N   0  0  0  0  0  0  0  0  0  0  0  0
  -24.3819  -11.0510  -14.9778 C   0  0  2  0  0  0  0  0  0  0  0  0
  -17.7508  -15.0555  -12.6143 C   0  0  2  0  0  0  0  0  0  0  0  0
  -17.6872  -13.7669  -13.3195 N   0  0  0  0  0  0  0  0  0  0  0  0
  -21.4783  -11.3250  -11.4731 C   0  0  0  0  0  0  0  0  0  0  0  0
  -25.5496  -11.6772  -15.8100 C   0  0  2  0  0  0  0  0  0  0  0  0
  -26.1557  -12.6780  -15.0265 O   0  0  0  0  0  0  0  0  0  0  0  0
  -17.9684  -16.2453  -13.6311 C   0  0  0  0  0  0  0  0  0  0  0  0
  -20.9553  -12.8059  -11.1943 C   0  0  2  0  0  0  0  0  0  0  0  0
  -19.7687  -12.7489  -10.3133 N   0  0  0  0  0  0  0  0  0  0  0  0
  -24.9706  -12.2729  -17.1603 C   0  0  1  0  0  0  0  0  0  0  0  0
  -26.0811  -12.8843  -17.9747 N   0  0  0  0  0  0  0  0  0  0  0  0
  -18.5248  -17.5508  -12.9251 C   0  0  0  0  0  0  0  0  0  0  0  0
  -20.5672  -13.4825  -12.5730 C   0  0  2  0  0  0  0  0  0  0  0  0
  -24.2836  -11.0742  -18.0196 C   0  0  1  0  0  0  0  0  0  0  0  0
  -25.1932  -10.0527  -18.3749 O   0  0  0  0  0  0  0  0  0  0  0  0
  -18.9888  -17.5137  -11.6554 C   0  0  2  0  0  0  0  0  0  0  0  0
  -19.0053  -16.3122  -10.8776 O   0  0  0  0  0  0  0  0  0  0  0  0
  -21.8451  -13.5423  -13.5064 C   0  0  2  0  0  0  0  0  0  0  0  0
  -21.4837  -14.1479  -14.7589 O   0  0  0  0  0  0  0  0  0  0  0  0
  -23.1373  -10.4403  -17.1632 C   0  0  0  0  0  0  0  0  0  0  0  0
  -23.6773   -9.9924  -15.8063 O   0  0  0  0  0  0  0  0  0  0  0  0
  -19.5303  -18.7517  -10.9421 C   0  0  0  0  0  0  0  0  0  0  0  0
  -19.1954  -19.9022  -11.7335 O   0  0  0  0  0  0  0  0  0  0  0  0
  -22.3676  -12.0773  -13.7851 C   0  0  1  0  0  0  0  0  0  0  0  0
  -23.5157  -12.1736  -14.6104 O   0  0  0  0  0  0  0  0  0  0  0  0
  -23.6593  -11.5185  -19.3597 C   0  0  0  0  0  0  0  0  0  0  0  0
  -26.2550  -14.3462  -17.8552 C   0  0  0  0  0  0  0  0  0  0  0  0
  1  2  1  6  0  0  0
  1  6  1  0  0  0  0
  1 21  1  0  0  0  0
  3  4  1  6  0  0  0
  3  8  1  0  0  0  0
  3 28  1  0  0  0  0
  5  9  1  0  0  0  0
  5 25  1  0  0  0  0
  5 29  1  6  0  0  0
  6  7  1  6  0  0  0
  6 11  1  0  0  0  0
  8 12  1  0  0  0  0
  9 10  1  1  0  0  0
  9 14  1  0  0  0  0
 11 16  1  0  0  0  0
 12 13  1  1  0  0  0
 12 17  1  0  0  0  0
 14 15  1  6  0  0  0
 14 18  1  0  0  0  0
 15 31  1  0  0  0  0
 16 20  1  0  0  0  0
 17  2  1  1  0  0  0
 17 22  1  0  0  0  0
 18 19  1  6  0  0  0
 18 24  1  0  0  0  0
 18 30  1  0  0  0  0
 20 21  1  0  0  0  0
 20 26  1  1  0  0  0
 22 23  1  6  0  0  0
 22 28  1  0  0  0  0
 24 25  1  0  0  0  0
 26 27  1  0  0  0  0
 28 29  1  6  0  0  0
M  END
>  <CHROM.1>
-88.09478622,-176.31874466,-97.31771887,-65.95333786,11.51370404,54.78838799
-21.92567415,-13.46549080,-14.10110426,-0.24762419,-0.86045819,0.44943092

>  <Name>
ligand

>  <RI>
0

>  <Rbt.Current_Directory>
/home/itssahil/PROJECTS/Mol_Feturizer/New_Systems/rnas/4GPW

>  <Rbt.Executable>
rbdock ($Id: //depot/dev/client3/rdock/2013.1/src/exe/rbdock.cxx#4 $)

>  <Rbt.Library>
libRbt.so (2013.1, Build901 2013/11/27)

>  <Rbt.Parameter_File>
/export/apps/rDock/src/rDock_2013.1_src/data/scripts/dock_solv.prm

>  <Rbt.Receptor>
prm/pocket_docking_8.prm

>  <SCORE>
-12.7728

>  <SCORE.INTER>
-10.0089

>  <SCORE.INTER.CONST>
1

>  <SCORE.INTER.POLAR>
0

>  <SCORE.INTER.ROT>
6

>  <SCORE.INTER.SOLV>
14.4339

>  <SCORE.INTER.VDW>
-19.0839

>  <SCORE.INTER.norm>
-0.322868

>  <SCORE.INTRA>
-2.76395

>  <SCORE.INTRA.DIHEDRAL>
-12.954

>  <SCORE.INTRA.DIHEDRAL.0>
19.2558

>  <SCORE.INTRA.POLAR>
0

>  <SCORE.INTRA.POLAR.0>
0

>  <SCORE.INTRA.REPUL>
0

>  <SCORE.INTRA.REPUL.0>
0

>  <SCORE.INTRA.SOLV>
1.05355

>  <SCORE.INTRA.SOLV.lig_0>
-64.5929

>  <SCORE.INTRA.VDW>
3.18628

>  <SCORE.INTRA.VDW.0>
-4.40538

>  <SCORE.INTRA.norm>
-0.0891597

>  <SCORE.RESTR>
0

>  <SCORE.RESTR.CAVITY>
0

>  <SCORE.RESTR.norm>
0

>  <SCORE.SYSTEM>
0

>  <SCORE.SYSTEM.CONST>
0

>  <SCORE.SYSTEM.DIHEDRAL>
0

>  <SCORE.SYSTEM.SOLV>
0

>  <SCORE.SYSTEM.norm>
0

>  <SCORE.heavy>
31

>  <SCORE.norm>
-0.412027

>  <RMSD>
3.543

$$$$
ligand
 OpenBabel11021811493D
libRbt.so/2013.1/901 2013/11/27
 31 33  0  0  0  0  0  0  0  0999 V2000
  -18.6194  -14.7746  -11.8838 C   0  0  2  0  0  0  0  0  0  0  0  0
  -19.8567  -14.6118  -12.5615 O   0  0  0  0  0  0  0  0  0  0  0  0
  -22.8560  -11.5851  -12.4269 C   0  0  2  0  0  0  0  0  0  0  0  0
  -23.4789  -10.3087  -12.5691 N   0  0  0  0  0  0  0  0  0  0  0  0
  -24.4467  -11.1853  -15.0732 C   0  0  2  0  0  0  0  0  0  0  0  0
  -17.4734  -14.4362  -12.9252 C   0  0  2  0  0  0  0  0  0  0  0  0
  -17.6480  -13.0580  -13.4069 N   0  0  0  0  0  0  0  0  0  0  0  0
  -21.5921  -11.4239  -11.4748 C   0  0  0  0  0  0  0  0  0  0  0  0
  -25.5805  -11.8824  -15.8959 C   0  0  2  0  0  0  0  0  0  0  0  0
  -26.1449  -12.8916  -15.0924 O   0  0  0  0  0  0  0  0  0  0  0  0
  -17.5207  -15.4635  -14.1248 C   0  0  0  0  0  0  0  0  0  0  0  0
  -20.8988  -12.8509  -11.3094 C   0  0  2  0  0  0  0  0  0  0  0  0
  -19.7224  -12.7244  -10.4219 N   0  0  0  0  0  0  0  0  0  0  0  0
  -24.9679  -12.4817  -17.2297 C   0  0  1  0  0  0  0  0  0  0  0  0
  -26.0453  -13.1610  -18.0348 N   0  0  0  0  0  0  0  0  0  0  0  0
  -17.8289  -16.9420  -13.6435 C   0  0  0  0  0  0  0  0  0  0  0  0
  -20.4416  -13.3691  -12.7347 C   0  0  2  0  0  0  0  0  0  0  0  0
  -24.3311  -11.2728  -18.1132 C   0  0  1  0  0  0  0  0  0  0  0  0
  -25.2841  -10.3019  -18.4957 O   0  0  0  0  0  0  0  0  0  0  0  0
  -18.2529  -17.1919  -12.3839 C   0  0  2  0  0  0  0  0  0  0  0  0
  -18.4456  -16.1538  -11.4174 O   0  0  0  0  0  0  0  0  0  0  0  0
  -21.7085  -13.5050  -13.6751 C   0  0  2  0  0  0  0  0  0  0  0  0
  -21.2855  -13.9657  -14.9691 O   0  0  0  0  0  0  0  0  0  0  0  0
  -23.2192  -10.5685  -17.2665 C   0  0  0  0  0  0  0  0  0  0  0  0
  -23.7862  -10.1149  -15.9226 O   0  0  0  0  0  0  0  0  0  0  0  0
  -18.5574  -18.6034  -11.8843 C   0  0  0  0  0  0  0  0  0  0  0  0
  -19.9073  -18.6194  -11.3946 O   0  0  0  0  0  0  0  0  0  0  0  0
  -22.3995  -12.0936  -13.8416 C   0  0  1  0  0  0  0  0  0  0  0  0
  -23.5327  -12.2590  -14.6764 O   0  0  0  0  0  0  0  0  0  0  0  0
  -23.6802  -11.7187  -19.4401 C   0  0  0  0  0  0  0  0  0  0  0  0
  -26.2150  -14.6114  -17.8129 C   0  0  0  0  0  0  0  0  0  0  0  0
  1  2  1  6  0  0  0
  1  6  1  0  0  0  0
  1 21  1  0  0  0  0
  3  4  1  6  0  0  0
  3  8  1  0  0  0  0
  3 28  1  0  0  0  0
  5  9  1  0  0  0  0
  5 25  1  0  0  0  0
  5 29  1  6  0  0  0
  6  7  1  6  0  0  0
  6 11  1  0  0  0  0
  8 12  1  0  0  0  0
  9 10  1  1  0  0  0
  9 14  1  0  0  0  0
 11 16  1  0  0  0  0
 12 13  1  1  0  0  0
 12 17  1  0  0  0  0
 14 15  1  6  0  0  0
 14 18  1  0  0  0  0
 15 31  1  0  0  0  0
 16 20  1  0  0  0  0
 17  2  1  1  0  0  0
 17 22  1  0  0  0  0
 18 19  1  6  0  0  0
 18 24  1  0  0  0  0
 18 30  1  0  0  0  0
 20 21  1  0  0  0  0
 20 26  1  1  0  0  0
 22 23  1  6  0  0  0
 22 28  1  0  0  0  0
 24 25  1  0  0  0  0
 26 27  1  0  0  0  0
 28 29  1  6  0  0  0
M  END
>  <CHROM.1>
-81.24236002,-175.89250617,-93.24453722,-68.10328073,-123.98195234,61.60476172
-21.82272481,-13.38075058,-14.28298986,-0.05239693,-0.79776592,0.63603928

>  <Name>
ligand

>  <RI>
0

>  <Rbt.Current_Directory>
/home/itssahil/PROJECTS/Mol_Feturizer/New_Systems/rnas/4GPW

>  <Rbt.Executable>
rbdock ($Id: //depot/dev/client3/rdock/2013.1/src/exe/rbdock.cxx#4 $)

>  <Rbt.Library>
libRbt.so (2013.1, Build901 2013/11/27)

>  <Rbt.Parameter_File>
/export/apps/rDock/src/rDock_2013.1_src/data/scripts/dock_solv.prm

>  <Rbt.Receptor>
prm/pocket_docking_7.prm

>  <SCORE>
-13.7294

>  <SCORE.INTER>
-9.1077

>  <SCORE.INTER.CONST>
1

>  <SCORE.INTER.POLAR>
0

>  <SCORE.INTER.ROT>
6

>  <SCORE.INTER.SOLV>
13.334

>  <SCORE.INTER.VDW>
-18.1165

>  <SCORE.INTER.norm>
-0.293797

>  <SCORE.INTRA>
-4.62174

>  <SCORE.INTRA.DIHEDRAL>
-14.4162

>  <SCORE.INTRA.DIHEDRAL.0>
19.2558

>  <SCORE.INTRA.POLAR>
0

>  <SCORE.INTRA.POLAR.0>
0

>  <SCORE.INTRA.REPUL>
0

>  <SCORE.INTRA.REPUL.0>
0

>  <SCORE.INTRA.SOLV>
1.22187

>  <SCORE.INTRA.SOLV.lig_0>
-64.5929

>  <SCORE.INTRA.VDW>
1.97543

>  <SCORE.INTRA.VDW.0>
-4.40538

>  <SCORE.INTRA.norm>
-0.149089

>  <SCORE.RESTR>
0

>  <SCORE.RESTR.CAVITY>
0

>  <SCORE.RESTR.norm>
0

>  <SCORE.SYSTEM>
0

>  <SCORE.SYSTEM.CONST>
0

>  <SCORE.SYSTEM.DIHEDRAL>
0

>  <SCORE.SYSTEM.SOLV>
0

>  <SCORE.SYSTEM.norm>
0

>  <SCORE.heavy>
31

>  <SCORE.norm>
-0.442885

>  <RMSD>
3.565

$$$$
ligand
 OpenBabel11021811493D
libRbt.so/2013.1/901 2013/11/27
 31 33  0  0  0  0  0  0  0  0999 V2000
  -18.9820  -15.0935  -11.5543 C   0  0  2  0  0  0  0  0  0  0  0  0
  -20.1958  -14.8076  -12.2338 O   0  0  0  0  0  0  0  0  0  0  0  0
  -22.6880  -11.3531  -12.4076 C   0  0  2  0  0  0  0  0  0  0  0  0
  -23.1077  -10.0159  -12.6780 N   0  0  0  0  0  0  0  0  0  0  0  0
  -24.2882  -10.9806  -15.0075 C   0  0  2  0  0  0  0  0  0  0  0  0
  -17.8267  -15.0650  -12.6391 C   0  0  2  0  0  0  0  0  0  0  0  0
  -17.7907  -13.7393  -13.2740 N   0  0  0  0  0  0  0  0  0  0  0  0
  -21.4008  -11.2965  -11.4749 C   0  0  0  0  0  0  0  0  0  0  0  0
  -25.4941  -11.5764  -15.8070 C   0  0  2  0  0  0  0  0  0  0  0  0
  -26.1602  -12.4939  -14.9720 O   0  0  0  0  0  0  0  0  0  0  0  0
  -18.0730  -16.1983  -13.7122 C   0  0  0  0  0  0  0  0  0  0  0  0
  -20.9345  -12.7904  -11.1662 C   0  0  2  0  0  0  0  0  0  0  0  0
  -19.7401  -12.7608  -10.2945 N   0  0  0  0  0  0  0  0  0  0  0  0
  -24.9555  -12.2786  -17.1223 C   0  0  1  0  0  0  0  0  0  0  0  0
  -26.1034  -12.8623  -17.9047 N   0  0  0  0  0  0  0  0  0  0  0  0
  -18.6014  -17.5435  -13.0614 C   0  0  0  0  0  0  0  0  0  0  0  0
  -20.5836  -13.5125  -12.5317 C   0  0  2  0  0  0  0  0  0  0  0  0
  -24.1964  -11.1729  -18.0435 C   0  0  1  0  0  0  0  0  0  0  0  0
  -25.0411  -10.1172  -18.4547 O   0  0  0  0  0  0  0  0  0  0  0  0
  -19.0239  -17.5786  -11.7773 C   0  0  2  0  0  0  0  0  0  0  0  0
  -19.0193  -16.4217  -10.9344 O   0  0  0  0  0  0  0  0  0  0  0  0
  -21.8697  -13.5425  -13.4552 C   0  0  2  0  0  0  0  0  0  0  0  0
  -21.5418  -14.1897  -14.6959 O   0  0  0  0  0  0  0  0  0  0  0  0
  -23.0114  -10.5669  -17.2203 C   0  0  0  0  0  0  0  0  0  0  0  0
  -23.5202  -10.0139  -15.8904 O   0  0  0  0  0  0  0  0  0  0  0  0
  -19.5374  -18.8569  -11.1159 C   0  0  0  0  0  0  0  0  0  0  0  0
  -18.8419  -19.0226   -9.8705 O   0  0  0  0  0  0  0  0  0  0  0  0
  -22.3361  -12.0645  -13.7634 C   0  0  1  0  0  0  0  0  0  0  0  0
  -23.4932  -12.1337  -14.5788 O   0  0  0  0  0  0  0  0  0  0  0  0
  -23.6032  -11.7266  -19.3567 C   0  0  0  0  0  0  0  0  0  0  0  0
  -26.2805  -14.3261  -17.8176 C   0  0  0  0  0  0  0  0  0  0  0  0
  1  2  1  6  0  0  0
  1  6  1  0  0  0  0
  1 21  1  0  0  0  0
  3  4  1  6  0  0  0
  3  8  1  0  0  0  0
  3 28  1  0  0  0  0
  5  9  1  0  0  0  0
  5 25  1  0  0  0  0
  5 29  1  6  0  0  0
  6  7  1  6  0  0  0
  6 11  1  0  0  0  0
  8 12  1  0  0  0  0
  9 10  1  1  0  0  0
  9 14  1  0  0  0  0
 11 16  1  0  0  0  0
 12 13  1  1  0  0  0
 12 17  1  0  0  0  0
 14 15  1  6  0  0  0
 14 18  1  0  0  0  0
 15 31  1  0  0  0  0
 16 20  1  0  0  0  0
 17  2  1  1  0  0  0
 17 22  1  0  0  0  0
 18 19  1  6  0  0  0
 18 24  1  0  0  0  0
 18 30  1  0  0  0  0
 20 21  1  0  0  0  0
 20 26  1  1  0  0  0
 22 23  1  6  0  0  0
 22 28  1  0  0  0  0
 24 25  1  0  0  0  0
 26 27  1  0  0  0  0
 28 29  1  6  0  0  0
M  END
>  <CHROM.1>
-81.85487214,-176.65625435,-103.50930364,-68.79161518,129.40674913,57.22275468
-21.89858485,-13.44366914,-14.04248255,-0.18800407,-0.88599472,0.49412638

>  <Name>
ligand

>  <RI>
0

>  <Rbt.Current_Directory>
/home/itssahil/PROJECTS/Mol_Feturizer/New_Systems/rnas/4GPW

>  <Rbt.Executable>
rbdock ($Id: //depot/dev/client3/rdock/2013.1/src/exe/rbdock.cxx#4 $)

>  <Rbt.Library>
libRbt.so (2013.1, Build901 2013/11/27)

>  <Rbt.Parameter_File>
/export/apps/rDock/src/rDock_2013.1_src/data/scripts/dock_solv.prm

>  <Rbt.Receptor>
prm/pocket_docking_6.prm

>  <SCORE>
-14.0039

>  <SCORE.INTER>
-9.69106

>  <SCORE.INTER.CONST>
1

>  <SCORE.INTER.POLAR>
0

>  <SCORE.INTER.ROT>
6

>  <SCORE.INTER.SOLV>
15.691

>  <SCORE.INTER.VDW>
-19.291

>  <SCORE.INTER.norm>
-0.312615

>  <SCORE.INTRA>
-4.31288

>  <SCORE.INTRA.DIHEDRAL>
-13.8784

>  <SCORE.INTRA.DIHEDRAL.0>
19.2558

>  <SCORE.INTRA.POLAR>
0

>  <SCORE.INTRA.POLAR.0>
0

>  <SCORE.INTRA.REPUL>
0

>  <SCORE.INTRA.REPUL.0>
0

>  <SCORE.INTRA.SOLV>
1.2581

>  <SCORE.INTRA.SOLV.lig_0>
-64.5929

>  <SCORE.INTRA.VDW>
1.99725

>  <SCORE.INTRA.VDW.0>
-4.40538

>  <SCORE.INTRA.norm>
-0.139125

>  <SCORE.RESTR>
0

>  <SCORE.RESTR.CAVITY>
0

>  <SCORE.RESTR.norm>
0

>  <SCORE.SYSTEM>
0

>  <SCORE.SYSTEM.CONST>
0

>  <SCORE.SYSTEM.DIHEDRAL>
0

>  <SCORE.SYSTEM.SOLV>
0

>  <SCORE.SYSTEM.norm>
0

>  <SCORE.heavy>
31

>  <SCORE.norm>
-0.45174

>  <RMSD>
3.582

$$$$
ligand
 OpenBabel11021811493D
libRbt.so/2013.1/901 2013/11/27
 31 33  0  0  0  0  0  0  0  0999 V2000
  -18.8700  -15.1939  -11.6870 C   0  0  2  0  0  0  0  0  0  0  0  0
  -20.0473  -14.9154  -12.4307 O   0  0  0  0  0  0  0  0  0  0  0  0
  -22.3536  -11.3446  -12.7538 C   0  0  2  0  0  0  0  0  0  0  0  0
  -22.7181  -10.0131  -13.1166 N   0  0  0  0  0  0  0  0  0  0  0  0
  -24.1533  -11.1052  -15.1965 C   0  0  2  0  0  0  0  0  0  0  0  0
  -17.6718  -15.2544  -12.7229 C   0  0  2  0  0  0  0  0  0  0  0  0
  -17.5741  -13.9671  -13.4265 N   0  0  0  0  0  0  0  0  0  0  0  0
  -21.0022  -11.2851  -11.9171 C   0  0  0  0  0  0  0  0  0  0  0  0
  -25.4234  -11.6995  -15.8907 C   0  0  2  0  0  0  0  0  0  0  0  0
  -26.0470  -12.5762  -14.9822 O   0  0  0  0  0  0  0  0  0  0  0  0
  -17.9058  -16.4386  -13.7424 C   0  0  0  0  0  0  0  0  0  0  0  0
  -20.5972  -12.7718  -11.5050 C   0  0  2  0  0  0  0  0  0  0  0  0
  -19.3440  -12.7388  -10.7203 N   0  0  0  0  0  0  0  0  0  0  0  0
  -24.9920  -12.4534  -17.2168 C   0  0  1  0  0  0  0  0  0  0  0  0
  -26.2028  -13.0363  -17.8984 N   0  0  0  0  0  0  0  0  0  0  0  0
  -18.4965  -17.7321  -13.0422 C   0  0  0  0  0  0  0  0  0  0  0  0
  -20.3842  -13.6301  -12.8192 C   0  0  2  0  0  0  0  0  0  0  0  0
  -24.2781  -11.3933  -18.2238 C   0  0  1  0  0  0  0  0  0  0  0  0
  -25.1291  -10.3329  -18.6093 O   0  0  0  0  0  0  0  0  0  0  0  0
  -18.9709  -17.6857  -11.7767 C   0  0  2  0  0  0  0  0  0  0  0  0
  -18.9684  -16.4845  -10.9982 O   0  0  0  0  0  0  0  0  0  0  0  0
  -21.7324  -13.6625  -13.6492 C   0  0  2  0  0  0  0  0  0  0  0  0
  -21.5293  -14.4341  -14.8447 O   0  0  0  0  0  0  0  0  0  0  0  0
  -23.0270  -10.7876  -17.5049 C   0  0  0  0  0  0  0  0  0  0  0  0
  -23.4307  -10.1830  -16.1614 O   0  0  0  0  0  0  0  0  0  0  0  0
  -19.5453  -18.9121  -11.0690 C   0  0  0  0  0  0  0  0  0  0  0  0
  -18.8286  -19.0904   -9.8375 O   0  0  0  0  0  0  0  0  0  0  0  0
  -22.1384  -12.1915  -14.0594 C   0  0  1  0  0  0  0  0  0  0  0  0
  -23.3526  -12.2613  -14.7870 O   0  0  0  0  0  0  0  0  0  0  0  0
  -23.7892  -11.9999  -19.5564 C   0  0  0  0  0  0  0  0  0  0  0  0
  -26.3633  -14.5021  -17.8117 C   0  0  0  0  0  0  0  0  0  0  0  0
  1  2  1  6  0  0  0
  1  6  1  0  0  0  0
  1 21  1  0  0  0  0
  3  4  1  6  0  0  0
  3  8  1  0  0  0  0
  3 28  1  0  0  0  0
  5  9  1  0  0  0  0
  5 25  1  0  0  0  0
  5 29  1  6  0  0  0
  6  7  1  6  0  0  0
  6 11  1  0  0  0  0
  8 12  1  0  0  0  0
  9 10  1  1  0  0  0
  9 14  1  0  0  0  0
 11 16  1  0  0  0  0
 12 13  1  6  0  0  0
 12 17  1  0  0  0  0
 14 15  1  6  0  0  0
 14 18  1  0  0  0  0
 15 31  1  0  0  0  0
 16 20  1  0  0  0  0
 17  2  1  1  0  0  0
 17 22  1  0  0  0  0
 18 19  1  6  0  0  0
 18 24  1  0  0  0  0
 18 30  1  0  0  0  0
 20 21  1  0  0  0  0
 20 26  1  1  0  0  0
 22 23  1  6  0  0  0
 22 28  1  0  0  0  0
 24 25  1  0  0  0  0
 26 27  1  0  0  0  0
 28 29  1  1  0  0  0
M  END
>  <CHROM.1>
-81.56465592,-176.82018383,-106.61329781,-62.12713644,124.74313275,53.38080574
-21.79285305,-13.57271915,-14.20606676,-0.35291078,-0.83480119,0.26094214

>  <Name>
ligand

>  <RI>
0

>  <Rbt.Current_Directory>
/home/itssahil/PROJECTS/Mol_Feturizer/New_Systems/rnas/4GPW

>  <Rbt.Executable>
rbdock ($Id: //depot/dev/client3/rdock/2013.1/src/exe/rbdock.cxx#4 $)

>  <Rbt.Library>
libRbt.so (2013.1, Build901 2013/11/27)

>  <Rbt.Parameter_File>
/export/apps/rDock/src/rDock_2013.1_src/data/scripts/dock_solv.prm

>  <Rbt.Receptor>
prm/pocket_docking_4.prm

>  <SCORE>
-13.0686

>  <SCORE.INTER>
-9.39805

>  <SCORE.INTER.CONST>
1

>  <SCORE.INTER.POLAR>
0

>  <SCORE.INTER.ROT>
6

>  <SCORE.INTER.SOLV>
14.8005

>  <SCORE.INTER.VDW>
-18.7989

>  <SCORE.INTER.norm>
-0.303163

>  <SCORE.INTRA>
-3.6711

>  <SCORE.INTRA.DIHEDRAL>
-14.1253

>  <SCORE.INTRA.DIHEDRAL.0>
19.2558

>  <SCORE.INTRA.POLAR>
0

>  <SCORE.INTRA.POLAR.0>
0

>  <SCORE.INTRA.REPUL>
0

>  <SCORE.INTRA.REPUL.0>
0

>  <SCORE.INTRA.SOLV>
1.73233

>  <SCORE.INTRA.SOLV.lig_0>
-64.5929

>  <SCORE.INTRA.VDW>
2.52539

>  <SCORE.INTRA.VDW.0>
-4.40538

>  <SCORE.INTRA.norm>
-0.118423

>  <SCORE.RESTR>
0.000537396

>  <SCORE.RESTR.CAVITY>
0.000537396

>  <SCORE.RESTR.norm>
1.73354e-05

>  <SCORE.SYSTEM>
0

>  <SCORE.SYSTEM.CONST>
0

>  <SCORE.SYSTEM.DIHEDRAL>
0

>  <SCORE.SYSTEM.SOLV>
0

>  <SCORE.SYSTEM.norm>
0

>  <SCORE.heavy>
31

>  <SCORE.norm>
-0.421568

>  <RMSD>
3.601

$$$$
ligand
 OpenBabel11021811493D
libRbt.so/2013.1/901 2013/11/27
 31 33  0  0  0  0  0  0  0  0999 V2000
  -18.4245  -14.8513  -12.1771 C   0  0  2  0  0  0  0  0  0  0  0  0
  -19.6995  -14.6617  -12.7728 O   0  0  0  0  0  0  0  0  0  0  0  0
  -22.4621  -11.4149  -12.7371 C   0  0  2  0  0  0  0  0  0  0  0  0
  -23.0049  -10.1148  -12.9662 N   0  0  0  0  0  0  0  0  0  0  0  0
  -24.2797  -11.1682  -15.2019 C   0  0  2  0  0  0  0  0  0  0  0  0
  -17.3497  -14.7294  -13.3357 C   0  0  2  0  0  0  0  0  0  0  0  0
  -17.4611  -13.4041  -13.9625 N   0  0  0  0  0  0  0  0  0  0  0  0
  -21.1176  -11.2579  -11.9020 C   0  0  0  0  0  0  0  0  0  0  0  0
  -25.4796  -11.8544  -15.9351 C   0  0  2  0  0  0  0  0  0  0  0  0
  -26.0090  -12.8385  -15.0783 O   0  0  0  0  0  0  0  0  0  0  0  0
  -17.5762  -15.8770  -14.3979 C   0  0  0  0  0  0  0  0  0  0  0  0
  -20.5133  -12.7105  -11.6392 C   0  0  2  0  0  0  0  0  0  0  0  0
  -19.2634  -12.5876  -10.8582 N   0  0  0  0  0  0  0  0  0  0  0  0
  -24.9696  -12.4877  -17.2960 C   0  0  1  0  0  0  0  0  0  0  0  0
  -26.1118  -13.1571  -18.0156 N   0  0  0  0  0  0  0  0  0  0  0  0
  -17.9520  -17.2610  -13.7227 C   0  0  0  0  0  0  0  0  0  0  0  0
  -20.2093  -13.4010  -13.0320 C   0  0  2  0  0  0  0  0  0  0  0  0
  -24.3695  -11.3069  -18.2408 C   0  0  1  0  0  0  0  0  0  0  0  0
  -25.3264  -10.3224  -18.5759 O   0  0  0  0  0  0  0  0  0  0  0  0
  -18.2841  -17.3316  -12.4137 C   0  0  2  0  0  0  0  0  0  0  0  0
  -18.3152  -16.1793  -11.5652 O   0  0  0  0  0  0  0  0  0  0  0  0
  -21.5542  -13.5315  -13.8579 C   0  0  2  0  0  0  0  0  0  0  0  0
  -21.2695  -14.1493  -15.1240 O   0  0  0  0  0  0  0  0  0  0  0  0
  -23.1897  -10.6126  -17.4825 C   0  0  0  0  0  0  0  0  0  0  0  0
  -23.6564  -10.1256  -16.1119 O   0  0  0  0  0  0  0  0  0  0  0  0
  -18.6497  -18.6476  -11.7286 C   0  0  0  0  0  0  0  0  0  0  0  0
  -19.9979  -18.5375  -11.2464 O   0  0  0  0  0  0  0  0  0  0  0  0
  -22.1572  -12.0947  -14.1203 C   0  0  1  0  0  0  0  0  0  0  0  0
  -23.3627  -12.2543  -14.8482 O   0  0  0  0  0  0  0  0  0  0  0  0
  -23.8178  -11.7875  -19.6001 C   0  0  0  0  0  0  0  0  0  0  0  0
  -26.3220  -14.5899  -17.7245 C   0  0  0  0  0  0  0  0  0  0  0  0
  1  2  1  6  0  0  0
  1  6  1  0  0  0  0
  1 21  1  0  0  0  0
  3  4  1  6  0  0  0
  3  8  1  0  0  0  0
  3 28  1  0  0  0  0
  5  9  1  0  0  0  0
  5 25  1  0  0  0  0
  5 29  1  6  0  0  0
  6  7  1  6  0  0  0
  6 11  1  0  0  0  0
  8 12  1  0  0  0  0
  9 10  1  1  0  0  0
  9 14  1  0  0  0  0
 11 16  1  0  0  0  0
 12 13  1  1  0  0  0
 12 17  1  0  0  0  0
 14 15  1  6  0  0  0
 14 18  1  0  0  0  0
 15 31  1  0  0  0  0
 16 20  1  0  0  0  0
 17  2  1  1  0  0  0
 17 22  1  0  0  0  0
 18 19  1  6  0  0  0
 18 24  1  0  0  0  0
 18 30  1  0  0  0  0
 20 21  1  0  0  0  0
 20 26  1  1  0  0  0
 22 23  1  6  0  0  0
 22 28  1  0  0  0  0
 24 25  1  0  0  0  0
 26 27  1  0  0  0  0
 28 29  1  6  0  0  0
M  END
>  <CHROM.1>
-82.04684349,-177.44051197,-91.34551056,-68.26142782,-118.72577023,56.84710346
-21.71092388,-13.41655095,-14.45836444,-0.22586356,-0.77323871,0.41313596

>  <Name>
ligand

>  <RI>
0

>  <Rbt.Current_Directory>
/home/itssahil/PROJECTS/Mol_Feturizer/New_Systems/rnas/4GPW

>  <Rbt.Executable>
rbdock ($Id: //depot/dev/client3/rdock/2013.1/src/exe/rbdock.cxx#4 $)

>  <Rbt.Library>
libRbt.so (2013.1, Build901 2013/11/27)

>  <Rbt.Parameter_File>
/export/apps/rDock/src/rDock_2013.1_src/data/scripts/dock_solv.prm

>  <Rbt.Receptor>
prm/pocket_docking_4.prm

>  <SCORE>
-13.0716

>  <SCORE.INTER>
-8.69016

>  <SCORE.INTER.CONST>
1

>  <SCORE.INTER.POLAR>
0

>  <SCORE.INTER.ROT>
6

>  <SCORE.INTER.SOLV>
11.9256

>  <SCORE.INTER.VDW>
-17.3686

>  <SCORE.INTER.norm>
-0.280328

>  <SCORE.INTRA>
-4.38147

>  <SCORE.INTRA.DIHEDRAL>
-14.3594

>  <SCORE.INTRA.DIHEDRAL.0>
19.2558

>  <SCORE.INTRA.POLAR>
0

>  <SCORE.INTRA.POLAR.0>
0

>  <SCORE.INTRA.REPUL>
0

>  <SCORE.INTRA.REPUL.0>
0

>  <SCORE.INTRA.SOLV>
1.35565

>  <SCORE.INTRA.SOLV.lig_0>
-64.5929

>  <SCORE.INTRA.VDW>
2.12039

>  <SCORE.INTRA.VDW.0>
-4.40538

>  <SCORE.INTRA.norm>
-0.141338

>  <SCORE.RESTR>
0

>  <SCORE.RESTR.CAVITY>
0

>  <SCORE.RESTR.norm>
0

>  <SCORE.SYSTEM>
0

>  <SCORE.SYSTEM.CONST>
0

>  <SCORE.SYSTEM.DIHEDRAL>
0

>  <SCORE.SYSTEM.SOLV>
0

>  <SCORE.SYSTEM.norm>
0

>  <SCORE.heavy>
31

>  <SCORE.norm>
-0.421666

>  <RMSD>
3.614

$$$$
ligand
 OpenBabel11021811493D
libRbt.so/2013.1/901 2013/11/27
 31 33  0  0  0  0  0  0  0  0999 V2000
  -18.6059  -14.7339  -11.8239 C   0  0  2  0  0  0  0  0  0  0  0  0
  -19.8116  -14.5550  -12.5526 O   0  0  0  0  0  0  0  0  0  0  0  0
  -22.7933  -11.5091  -12.4736 C   0  0  2  0  0  0  0  0  0  0  0  0
  -23.4038  -10.2276  -12.6226 N   0  0  0  0  0  0  0  0  0  0  0  0
  -24.3207  -11.0825  -15.1457 C   0  0  2  0  0  0  0  0  0  0  0  0
  -17.4213  -14.2657  -12.7671 C   0  0  2  0  0  0  0  0  0  0  0  0
  -17.6245  -12.8573  -13.1375 N   0  0  0  0  0  0  0  0  0  0  0  0
  -21.5535  -11.3633  -11.4879 C   0  0  0  0  0  0  0  0  0  0  0  0
  -25.4891  -11.7797  -15.9184 C   0  0  2  0  0  0  0  0  0  0  0  0
  -26.0496  -12.7562  -15.0729 O   0  0  0  0  0  0  0  0  0  0  0  0
  -17.3654  -15.1846  -14.0513 C   0  0  0  0  0  0  0  0  0  0  0  0
  -20.8741  -12.7960  -11.3151 C   0  0  2  0  0  0  0  0  0  0  0  0
  -19.7204  -12.6839  -10.3965 N   0  0  0  0  0  0  0  0  0  0  0  0
  -24.9244  -12.4257  -17.2514 C   0  0  1  0  0  0  0  0  0  0  0  0
  -26.0356  -13.1057  -18.0085 N   0  0  0  0  0  0  0  0  0  0  0  0
  -17.6400  -16.7094  -13.7168 C   0  0  0  0  0  0  0  0  0  0  0  0
  -20.3835  -13.3072  -12.7318 C   0  0  2  0  0  0  0  0  0  0  0  0
  -24.2902  -11.2531  -18.1843 C   0  0  1  0  0  0  0  0  0  0  0  0
  -25.2355  -10.2748  -18.5672 O   0  0  0  0  0  0  0  0  0  0  0  0
  -18.1189  -17.0836  -12.5088 C   0  0  2  0  0  0  0  0  0  0  0  0
  -18.4026  -16.1419  -11.4688 O   0  0  0  0  0  0  0  0  0  0  0  0
  -21.6265  -13.4278  -13.7056 C   0  0  2  0  0  0  0  0  0  0  0  0
  -21.1731  -13.8821  -14.9916 O   0  0  0  0  0  0  0  0  0  0  0  0
  -23.1429  -10.5476  -17.3873 C   0  0  0  0  0  0  0  0  0  0  0  0
  -23.6644  -10.0477  -16.0414 O   0  0  0  0  0  0  0  0  0  0  0  0
  -18.3935  -18.5434  -12.1500 C   0  0  0  0  0  0  0  0  0  0  0  0
  -19.8149  -18.7125  -12.0350 O   0  0  0  0  0  0  0  0  0  0  0  0
  -22.3036  -12.0106  -13.8797 C   0  0  1  0  0  0  0  0  0  0  0  0
  -23.4158  -12.1623  -14.7448 O   0  0  0  0  0  0  0  0  0  0  0  0
  -23.6842  -11.7463  -19.5156 C   0  0  0  0  0  0  0  0  0  0  0  0
  -26.1860  -14.5587  -17.7897 C   0  0  0  0  0  0  0  0  0  0  0  0
  1  2  1  6  0  0  0
  1  6  1  0  0  0  0
  1 21  1  0  0  0  0
  3  4  1  6  0  0  0
  3  8  1  0  0  0  0
  3 28  1  0  0  0  0
  5  9  1  0  0  0  0
  5 25  1  0  0  0  0
  5 29  1  6  0  0  0
  6  7  1  6  0  0  0
  6 11  1  0  0  0  0
  8 12  1  0  0  0  0
  9 10  1  1  0  0  0
  9 14  1  0  0  0  0
 11 16  1  0  0  0  0
 12 13  1  1  0  0  0
 12 17  1  0  0  0  0
 14 15  1  6  0  0  0
 14 18  1  0  0  0  0
 15 31  1  0  0  0  0
 16 20  1  0  0  0  0
 17  2  1  1  0  0  0
 17 22  1  0  0  0  0
 18 19  1  6  0  0  0
 18 24  1  0  0  0  0
 18 30  1  0  0  0  0
 20 21  1  0  0  0  0
 20 26  1  1  0  0  0
 22 23  1  6  0  0  0
 22 28  1  0  0  0  0
 24 25  1  0  0  0  0
 26 27  1  0  0  0  0
 28 29  1  6  0  0  0
M  END
>  <CHROM.1>
-76.47995934,-171.85695308,-95.95498060,-66.95302142,-111.08934602,60.90734178
-21.74952613,-13.30475987,-14.32953408,-0.05884311,-0.78829718,0.62280391

>  <Name>
ligand

>  <RI>
0

>  <Rbt.Current_Directory>
/home/itssahil/PROJECTS/Mol_Feturizer/New_Systems/rnas/4GPW

>  <Rbt.Executable>
rbdock ($Id: //depot/dev/client3/rdock/2013.1/src/exe/rbdock.cxx#4 $)

>  <Rbt.Library>
libRbt.so (2013.1, Build901 2013/11/27)

>  <Rbt.Parameter_File>
/export/apps/rDock/src/rDock_2013.1_src/data/scripts/dock_solv.prm

>  <Rbt.Receptor>
prm/pocket_docking_6.prm

>  <SCORE>
-13.4349

>  <SCORE.INTER>
-8.9775

>  <SCORE.INTER.CONST>
1

>  <SCORE.INTER.POLAR>
0

>  <SCORE.INTER.ROT>
6

>  <SCORE.INTER.SOLV>
12.6725

>  <SCORE.INTER.VDW>
-17.8092

>  <SCORE.INTER.norm>
-0.289597

>  <SCORE.INTRA>
-4.45741

>  <SCORE.INTRA.DIHEDRAL>
-14.8515

>  <SCORE.INTRA.DIHEDRAL.0>
19.2558

>  <SCORE.INTRA.POLAR>
0

>  <SCORE.INTRA.POLAR.0>
0

>  <SCORE.INTRA.REPUL>
0

>  <SCORE.INTRA.REPUL.0>
0

>  <SCORE.INTRA.SOLV>
1.62572

>  <SCORE.INTRA.SOLV.lig_0>
-64.5929

>  <SCORE.INTRA.VDW>
2.15547

>  <SCORE.INTRA.VDW.0>
-4.40538

>  <SCORE.INTRA.norm>
-0.143788

>  <SCORE.RESTR>
0

>  <SCORE.RESTR.CAVITY>
0

>  <SCORE.RESTR.norm>
0

>  <SCORE.SYSTEM>
0

>  <SCORE.SYSTEM.CONST>
0

>  <SCORE.SYSTEM.DIHEDRAL>
0

>  <SCORE.SYSTEM.SOLV>
0

>  <SCORE.SYSTEM.norm>
0

>  <SCORE.heavy>
31

>  <SCORE.norm>
-0.433384

>  <RMSD>
3.619

$$$$
ligand
 OpenBabel11021811493D
libRbt.so/2013.1/901 2013/11/27
 31 33  0  0  0  0  0  0  0  0999 V2000
  -18.6554  -14.7243  -11.7997 C   0  0  2  0  0  0  0  0  0  0  0  0
  -19.8482  -14.5224  -12.5433 O   0  0  0  0  0  0  0  0  0  0  0  0
  -22.8853  -11.5413  -12.2892 C   0  0  2  0  0  0  0  0  0  0  0  0
  -23.5200  -10.2653  -12.3665 N   0  0  0  0  0  0  0  0  0  0  0  0
  -24.3946  -10.9853  -14.9798 C   0  0  2  0  0  0  0  0  0  0  0  0
  -17.4681  -14.1153  -12.6551 C   0  0  2  0  0  0  0  0  0  0  0  0
  -17.7230  -12.6863  -12.8894 N   0  0  0  0  0  0  0  0  0  0  0  0
  -21.6438  -11.4257  -11.3016 C   0  0  0  0  0  0  0  0  0  0  0  0
  -25.5360  -11.6480  -15.8201 C   0  0  2  0  0  0  0  0  0  0  0  0
  -26.1276  -12.6554  -15.0341 O   0  0  0  0  0  0  0  0  0  0  0  0
  -17.3385  -14.8970  -14.0221 C   0  0  0  0  0  0  0  0  0  0  0  0
  -20.9373  -12.8528  -11.2088 C   0  0  2  0  0  0  0  0  0  0  0  0
  -19.7816  -12.7688  -10.2897 N   0  0  0  0  0  0  0  0  0  0  0  0
  -24.9255  -12.2427  -17.1568 C   0  0  1  0  0  0  0  0  0  0  0  0
  -26.0103  -12.8891  -17.9788 N   0  0  0  0  0  0  0  0  0  0  0  0
  -17.5547  -16.4577  -13.8497 C   0  0  0  0  0  0  0  0  0  0  0  0
  -20.4439  -13.2776  -12.6529 C   0  0  2  0  0  0  0  0  0  0  0  0
  -24.2568  -11.0362  -18.0197 C   0  0  1  0  0  0  0  0  0  0  0  0
  -25.1864  -10.0408  -18.3968 O   0  0  0  0  0  0  0  0  0  0  0  0
  -18.0483  -16.9711  -12.7001 C   0  0  2  0  0  0  0  0  0  0  0  0
  -18.4000  -16.1514  -11.5806 O   0  0  0  0  0  0  0  0  0  0  0  0
  -21.6890  -13.3687  -13.6272 C   0  0  2  0  0  0  0  0  0  0  0  0
  -21.2332  -13.7445  -14.9375 O   0  0  0  0  0  0  0  0  0  0  0  0
  -23.1373  -10.3661  -17.1555 C   0  0  0  0  0  0  0  0  0  0  0  0
  -23.7054   -9.9180  -15.8102 O   0  0  0  0  0  0  0  0  0  0  0  0
  -18.2679  -18.4696  -12.4971 C   0  0  0  0  0  0  0  0  0  0  0  0
  -17.2879  -18.9387  -11.5580 O   0  0  0  0  0  0  0  0  0  0  0  0
  -22.3929  -11.9571  -13.7220 C   0  0  1  0  0  0  0  0  0  0  0  0
  -23.5061  -12.0827  -14.5900 O   0  0  0  0  0  0  0  0  0  0  0  0
  -23.6049  -11.4784  -19.3473 C   0  0  0  0  0  0  0  0  0  0  0  0
  -26.1620  -14.3511  -17.8329 C   0  0  0  0  0  0  0  0  0  0  0  0
  1  2  1  6  0  0  0
  1  6  1  0  0  0  0
  1 21  1  0  0  0  0
  3  4  1  6  0  0  0
  3  8  1  0  0  0  0
  3 28  1  0  0  0  0
  5  9  1  0  0  0  0
  5 25  1  0  0  0  0
  5 29  1  6  0  0  0
  6  7  1  6  0  0  0
  6 11  1  0  0  0  0
  8 12  1  0  0  0  0
  9 10  1  1  0  0  0
  9 14  1  0  0  0  0
 11 16  1  0  0  0  0
 12 13  1  1  0  0  0
 12 17  1  0  0  0  0
 14 15  1  6  0  0  0
 14 18  1  0  0  0  0
 15 31  1  0  0  0  0
 16 20  1  0  0  0  0
 17  2  1  1  0  0  0
 17 22  1  0  0  0  0
 18 19  1  6  0  0  0
 18 24  1  0  0  0  0
 18 30  1  0  0  0  0
 20 21  1  0  0  0  0
 20 26  1  1  0  0  0
 22 23  1  6  0  0  0
 22 28  1  0  0  0  0
 24 25  1  0  0  0  0
 26 27  1  0  0  0  0
 28 29  1  6  0  0  0
M  END
>  <CHROM.1>
-74.19069183,-174.49052639,-96.53226260,-65.22623234,109.26655975,64.02302760
-21.68069887,-13.21146641,-14.23716241,0.05669874,-0.76826432,0.83428531

>  <Name>
ligand

>  <RI>
0

>  <Rbt.Current_Directory>
/home/itssahil/PROJECTS/Mol_Feturizer/New_Systems/rnas/4GPW

>  <Rbt.Executable>
rbdock ($Id: //depot/dev/client3/rdock/2013.1/src/exe/rbdock.cxx#4 $)

>  <Rbt.Library>
libRbt.so (2013.1, Build901 2013/11/27)

>  <Rbt.Parameter_File>
/export/apps/rDock/src/rDock_2013.1_src/data/scripts/dock_solv.prm

>  <Rbt.Receptor>
prm/pocket_docking_6.prm

>  <SCORE>
-13.6343

>  <SCORE.INTER>
-9.14346

>  <SCORE.INTER.CONST>
1

>  <SCORE.INTER.POLAR>
0

>  <SCORE.INTER.ROT>
6

>  <SCORE.INTER.SOLV>
14.566

>  <SCORE.INTER.VDW>
-18.551

>  <SCORE.INTER.norm>
-0.29495

>  <SCORE.INTRA>
-4.4908

>  <SCORE.INTRA.DIHEDRAL>
-15.298

>  <SCORE.INTRA.DIHEDRAL.0>
19.2558

>  <SCORE.INTRA.POLAR>
0

>  <SCORE.INTRA.POLAR.0>
0

>  <SCORE.INTRA.REPUL>
0

>  <SCORE.INTRA.REPUL.0>
0

>  <SCORE.INTRA.SOLV>
1.79561

>  <SCORE.INTRA.SOLV.lig_0>
-64.5929

>  <SCORE.INTRA.VDW>
2.26042

>  <SCORE.INTRA.VDW.0>
-4.40538

>  <SCORE.INTRA.norm>
-0.144864

>  <SCORE.RESTR>
0

>  <SCORE.RESTR.CAVITY>
0

>  <SCORE.RESTR.norm>
0

>  <SCORE.SYSTEM>
0

>  <SCORE.SYSTEM.CONST>
0

>  <SCORE.SYSTEM.DIHEDRAL>
0

>  <SCORE.SYSTEM.SOLV>
0

>  <SCORE.SYSTEM.norm>
0

>  <SCORE.heavy>
31

>  <SCORE.norm>
-0.439815

>  <RMSD>
3.627

$$$$
ligand
 OpenBabel11021811493D
libRbt.so/2013.1/901 2013/11/27
 31 33  0  0  0  0  0  0  0  0999 V2000
  -18.2611  -14.5533  -12.1347 C   0  0  2  0  0  0  0  0  0  0  0  0
  -19.4975  -14.3638  -12.8070 O   0  0  0  0  0  0  0  0  0  0  0  0
  -22.6574  -11.5550  -12.2588 C   0  0  2  0  0  0  0  0  0  0  0  0
  -23.3514  -10.3081  -12.2276 N   0  0  0  0  0  0  0  0  0  0  0  0
  -24.2206  -10.8619  -14.9320 C   0  0  2  0  0  0  0  0  0  0  0  0
  -17.1406  -13.8738  -13.0264 C   0  0  2  0  0  0  0  0  0  0  0  0
  -17.4521  -12.4464  -13.1915 N   0  0  0  0  0  0  0  0  0  0  0  0
  -21.3931  -11.4502  -11.2993 C   0  0  0  0  0  0  0  0  0  0  0  0
  -25.4070  -11.5237  -15.7083 C   0  0  2  0  0  0  0  0  0  0  0  0
  -25.9670  -12.5182  -14.8837 O   0  0  0  0  0  0  0  0  0  0  0  0
  -17.0594  -14.5996  -14.4276 C   0  0  0  0  0  0  0  0  0  0  0  0
  -20.6202  -12.8452  -11.3278 C   0  0  2  0  0  0  0  0  0  0  0  0
  -19.4421  -12.7712  -10.4367 N   0  0  0  0  0  0  0  0  0  0  0  0
  -24.8674  -12.1369  -17.0670 C   0  0  1  0  0  0  0  0  0  0  0  0
  -25.9963  -12.7827  -17.8280 N   0  0  0  0  0  0  0  0  0  0  0  0
  -17.2173  -16.1720  -14.3048 C   0  0  0  0  0  0  0  0  0  0  0  0
  -20.1521  -13.1440  -12.8113 C   0  0  2  0  0  0  0  0  0  0  0  0
  -24.2327  -10.9448  -17.9743 C   0  0  1  0  0  0  0  0  0  0  0  0
  -25.1719   -9.9456  -18.3158 O   0  0  0  0  0  0  0  0  0  0  0  0
  -17.6327  -16.7438  -13.1520 C   0  0  2  0  0  0  0  0  0  0  0  0
  -17.9499  -15.9783  -11.9847 O   0  0  0  0  0  0  0  0  0  0  0  0
  -21.4207  -13.2255  -13.7557 C   0  0  2  0  0  0  0  0  0  0  0  0
  -20.9882  -13.4865  -15.1013 O   0  0  0  0  0  0  0  0  0  0  0  0
  -23.0669  -10.2752  -17.1731 C   0  0  0  0  0  0  0  0  0  0  0  0
  -23.5647   -9.8089  -15.8063 O   0  0  0  0  0  0  0  0  0  0  0  0
  -17.7943  -18.2552  -12.9960 C   0  0  0  0  0  0  0  0  0  0  0  0
  -16.9308  -18.6867  -11.9328 O   0  0  0  0  0  0  0  0  0  0  0  0
  -22.1904  -11.8456  -13.7304 C   0  0  1  0  0  0  0  0  0  0  0  0
  -23.3226  -11.9626  -14.5747 O   0  0  0  0  0  0  0  0  0  0  0  0
  -23.6501  -11.4058  -19.3275 C   0  0  0  0  0  0  0  0  0  0  0  0
  -26.0827  -14.2552  -17.7508 C   0  0  0  0  0  0  0  0  0  0  0  0
  1  2  1  6  0  0  0
  1  6  1  0  0  0  0
  1 21  1  0  0  0  0
  3  4  1  6  0  0  0
  3  8  1  0  0  0  0
  3 28  1  0  0  0  0
  5  9  1  0  0  0  0
  5 25  1  0  0  0  0
  5 29  1  6  0  0  0
  6  7  1  6  0  0  0
  6 11  1  0  0  0  0
  8 12  1  0  0  0  0
  9 10  1  1  0  0  0
  9 14  1  0  0  0  0
 11 16  1  0  0  0  0
 12 13  1  1  0  0  0
 12 17  1  0  0  0  0
 14 15  1  6  0  0  0
 14 18  1  0  0  0  0
 15 31  1  0  0  0  0
 16 20  1  0  0  0  0
 17  2  1  1  0  0  0
 17 22  1  0  0  0  0
 18 19  1  6  0  0  0
 18 24  1  0  0  0  0
 18 30  1  0  0  0  0
 20 21  1  0  0  0  0
 20 26  1  1  0  0  0
 22 23  1  6  0  0  0
 22 28  1  0  0  0  0
 24 25  1  0  0  0  0
 26 27  1  0  0  0  0
 28 29  1  6  0  0  0
M  END
>  <CHROM.1>
-75.70234818,-172.44669920,-101.53215774,-66.52680054,120.52696963,68.31788948
-21.45616558,-13.07783918,-14.35449313,0.07898723,-0.71195997,0.90793985

>  <Name>
ligand

>  <RI>
0

>  <Rbt.Current_Directory>
/home/itssahil/PROJECTS/Mol_Feturizer/New_Systems/rnas/4GPW

>  <Rbt.Executable>
rbdock ($Id: //depot/dev/client3/rdock/2013.1/src/exe/rbdock.cxx#4 $)

>  <Rbt.Library>
libRbt.so (2013.1, Build901 2013/11/27)

>  <Rbt.Parameter_File>
/export/apps/rDock/src/rDock_2013.1_src/data/scripts/dock_solv.prm

>  <Rbt.Receptor>
prm/pocket_docking_6.prm

>  <SCORE>
-13.8779

>  <SCORE.INTER>
-9.27404

>  <SCORE.INTER.CONST>
1

>  <SCORE.INTER.POLAR>
0

>  <SCORE.INTER.ROT>
6

>  <SCORE.INTER.SOLV>
14.1157

>  <SCORE.INTER.VDW>
-18.4879

>  <SCORE.INTER.norm>
-0.299163

>  <SCORE.INTRA>
-4.60384

>  <SCORE.INTRA.DIHEDRAL>
-14.6469

>  <SCORE.INTRA.DIHEDRAL.0>
19.2558

>  <SCORE.INTRA.POLAR>
0

>  <SCORE.INTRA.POLAR.0>
0

>  <SCORE.INTRA.REPUL>
0

>  <SCORE.INTRA.REPUL.0>
0

>  <SCORE.INTRA.SOLV>
1.51469

>  <SCORE.INTRA.SOLV.lig_0>
-64.5929

>  <SCORE.INTRA.VDW>
1.96227

>  <SCORE.INTRA.VDW.0>
-4.40538

>  <SCORE.INTRA.norm>
-0.148511

>  <SCORE.RESTR>
0

>  <SCORE.RESTR.CAVITY>
0

>  <SCORE.RESTR.norm>
0

>  <SCORE.SYSTEM>
0

>  <SCORE.SYSTEM.CONST>
0

>  <SCORE.SYSTEM.DIHEDRAL>
0

>  <SCORE.SYSTEM.SOLV>
0

>  <SCORE.SYSTEM.norm>
0

>  <SCORE.heavy>
31

>  <SCORE.norm>
-0.447673

>  <RMSD>
3.725

$$$$
ligand
 OpenBabel11021811493D
libRbt.so/2013.1/901 2013/11/27
 31 33  0  0  0  0  0  0  0  0999 V2000
  -17.8349  -14.3166  -13.7750 C   0  0  2  0  0  0  0  0  0  0  0  0
  -18.6662  -14.6512  -14.8767 O   0  0  0  0  0  0  0  0  0  0  0  0
  -21.8469  -12.5960  -16.8348 C   0  0  2  0  0  0  0  0  0  0  0  0
  -23.1344  -12.0216  -17.0577 N   0  0  0  0  0  0  0  0  0  0  0  0
  -22.0596   -9.5802  -16.2419 C   0  0  2  0  0  0  0  0  0  0  0  0
  -16.3901  -14.8836  -14.0965 C   0  0  2  0  0  0  0  0  0  0  0  0
  -15.9000  -14.2815  -15.3452 N   0  0  0  0  0  0  0  0  0  0  0  0
  -22.0336  -14.1476  -16.5386 C   0  0  0  0  0  0  0  0  0  0  0  0
  -21.3705   -8.1802  -16.3566 C   0  0  2  0  0  0  0  0  0  0  0  0
  -20.3190   -8.2866  -17.2871 O   0  0  0  0  0  0  0  0  0  0  0  0
  -16.4478  -16.4583  -14.2139 C   0  0  0  0  0  0  0  0  0  0  0  0
  -20.5950  -14.7924  -16.2959 C   0  0  2  0  0  0  0  0  0  0  0  0
  -20.7455  -16.2383  -16.0236 N   0  0  0  0  0  0  0  0  0  0  0  0
  -20.8367   -7.7400  -14.9303 C   0  0  1  0  0  0  0  0  0  0  0  0
  -20.1658   -6.3938  -15.0213 N   0  0  0  0  0  0  0  0  0  0  0  0
  -17.4003  -17.1116  -13.1284 C   0  0  0  0  0  0  0  0  0  0  0  0
  -19.9151  -14.0812  -15.0545 C   0  0  2  0  0  0  0  0  0  0  0  0
  -22.0922   -7.6359  -13.9007 C   0  0  1  0  0  0  0  0  0  0  0  0
  -23.0564   -6.6805  -14.2943 O   0  0  0  0  0  0  0  0  0  0  0  0
  -18.2405  -16.3521  -12.3895 C   0  0  2  0  0  0  0  0  0  0  0  0
  -18.3214  -14.9305  -12.5355 O   0  0  0  0  0  0  0  0  0  0  0  0
  -19.7549  -12.5352  -15.3582 C   0  0  2  0  0  0  0  0  0  0  0  0
  -19.1470  -11.8946  -14.2242 O   0  0  0  0  0  0  0  0  0  0  0  0
  -22.7872   -9.0357  -13.8187 C   0  0  0  0  0  0  0  0  0  0  0  0
  -23.1762   -9.5152  -15.2159 O   0  0  0  0  0  0  0  0  0  0  0  0
  -19.1710  -16.9463  -11.3331 C   0  0  0  0  0  0  0  0  0  0  0  0
  -20.5186  -16.8381  -11.8171 O   0  0  0  0  0  0  0  0  0  0  0  0
  -21.1778  -11.8918  -15.6000 C   0  0  1  0  0  0  0  0  0  0  0  0
  -20.9915  -10.5152  -15.8805 O   0  0  0  0  0  0  0  0  0  0  0  0
  -21.7123   -7.2303  -12.4606 C   0  0  0  0  0  0  0  0  0  0  0  0
  -20.9379   -5.3182  -15.6760 C   0  0  0  0  0  0  0  0  0  0  0  0
  1  2  1  6  0  0  0
  1  6  1  0  0  0  0
  1 21  1  0  0  0  0
  3  4  1  1  0  0  0
  3  8  1  0  0  0  0
  3 28  1  0  0  0  0
  5  9  1  0  0  0  0
  5 25  1  0  0  0  0
  5 29  1  1  0  0  0
  6  7  1  6  0  0  0
  6 11  1  0  0  0  0
  8 12  1  0  0  0  0
  9 10  1  6  0  0  0
  9 14  1  0  0  0  0
 11 16  1  0  0  0  0
 12 13  1  1  0  0  0
 12 17  1  0  0  0  0
 14 15  1  6  0  0  0
 14 18  1  0  0  0  0
 15 31  1  0  0  0  0
 16 20  1  0  0  0  0
 17  2  1  6  0  0  0
 17 22  1  0  0  0  0
 18 19  1  6  0  0  0
 18 24  1  0  0  0  0
 18 30  1  0  0  0  0
 20 21  1  0  0  0  0
 20 26  1  1  0  0  0
 22 23  1  1  0  0  0
 22 28  1  0  0  0  0
 24 25  1  0  0  0  0
 26 27  1  0  0  0  0
 28 29  1  6  0  0  0
M  END
>  <CHROM.1>
-166.64418445,176.35909724,51.35187198,-174.66391313,-110.05533163,57.84799235
-20.23059916,-12.00476865,-14.74204830,-1.07602481,-0.66180865,0.13827303

>  <Name>
ligand

>  <RI>
0

>  <Rbt.Current_Directory>
/home/itssahil/PROJECTS/Mol_Feturizer/New_Systems/rnas/4GPW

>  <Rbt.Executable>
rbdock ($Id: //depot/dev/client3/rdock/2013.1/src/exe/rbdock.cxx#4 $)

>  <Rbt.Library>
libRbt.so (2013.1, Build901 2013/11/27)

>  <Rbt.Parameter_File>
/export/apps/rDock/src/rDock_2013.1_src/data/scripts/dock_solv.prm

>  <Rbt.Receptor>
prm/pocket_docking_6.prm

>  <SCORE>
-9.42542

>  <SCORE.INTER>
-3.84804

>  <SCORE.INTER.CONST>
1

>  <SCORE.INTER.POLAR>
0

>  <SCORE.INTER.ROT>
6

>  <SCORE.INTER.SOLV>
6.32568

>  <SCORE.INTER.VDW>
-12.2739

>  <SCORE.INTER.norm>
-0.12413

>  <SCORE.INTRA>
-5.57738

>  <SCORE.INTRA.DIHEDRAL>
-16.2987

>  <SCORE.INTRA.DIHEDRAL.0>
19.2558

>  <SCORE.INTRA.POLAR>
0

>  <SCORE.INTRA.POLAR.0>
0

>  <SCORE.INTRA.REPUL>
0

>  <SCORE.INTRA.REPUL.0>
0

>  <SCORE.INTRA.SOLV>
-1.69477

>  <SCORE.INTRA.SOLV.lig_0>
-64.5929

>  <SCORE.INTRA.VDW>
3.41933

>  <SCORE.INTRA.VDW.0>
-4.40538

>  <SCORE.INTRA.norm>
-0.179916

>  <SCORE.RESTR>
0

>  <SCORE.RESTR.CAVITY>
0

>  <SCORE.RESTR.norm>
0

>  <SCORE.SYSTEM>
0

>  <SCORE.SYSTEM.CONST>
0

>  <SCORE.SYSTEM.DIHEDRAL>
0

>  <SCORE.SYSTEM.SOLV>
0

>  <SCORE.SYSTEM.norm>
0

>  <SCORE.heavy>
31

>  <SCORE.norm>
-0.304046

>  <RMSD>
3.737

$$$$
ligand
 OpenBabel11021811493D
libRbt.so/2013.1/901 2013/11/27
 31 33  0  0  0  0  0  0  0  0999 V2000
  -17.8042  -16.0241  -14.8989 C   0  0  2  0  0  0  0  0  0  0  0  0
  -18.9966  -16.7136  -15.2444 O   0  0  0  0  0  0  0  0  0  0  0  0
  -21.0468  -13.6939  -17.4472 C   0  0  2  0  0  0  0  0  0  0  0  0
  -22.0758  -13.0464  -18.1951 N   0  0  0  0  0  0  0  0  0  0  0  0
  -21.1001  -11.6765  -15.2264 C   0  0  2  0  0  0  0  0  0  0  0  0
  -16.7880  -17.1065  -14.3438 C   0  0  2  0  0  0  0  0  0  0  0  0
  -16.5446  -18.1196  -15.3812 N   0  0  0  0  0  0  0  0  0  0  0  0
  -20.6256  -15.0206  -18.2168 C   0  0  0  0  0  0  0  0  0  0  0  0
  -21.5014  -10.9937  -13.8770 C   0  0  2  0  0  0  0  0  0  0  0  0
  -21.3466  -11.9404  -12.8462 O   0  0  0  0  0  0  0  0  0  0  0  0
  -17.3748  -17.7689  -13.0348 C   0  0  0  0  0  0  0  0  0  0  0  0
  -19.4709  -15.7419  -17.3857 C   0  0  2  0  0  0  0  0  0  0  0  0
  -19.0601  -16.9771  -18.0878 N   0  0  0  0  0  0  0  0  0  0  0  0
  -22.9996  -10.4841  -13.9723 C   0  0  1  0  0  0  0  0  0  0  0  0
  -23.4059   -9.8258  -12.6792 N   0  0  0  0  0  0  0  0  0  0  0  0
  -18.0996  -16.7167  -12.0967 C   0  0  0  0  0  0  0  0  0  0  0  0
  -20.0221  -16.1023  -15.9451 C   0  0  2  0  0  0  0  0  0  0  0  0
  -23.1166   -9.3975  -15.1777 C   0  0  1  0  0  0  0  0  0  0  0  0
  -22.3041   -8.2582  -14.9803 O   0  0  0  0  0  0  0  0  0  0  0  0
  -18.3835  -15.4695  -12.5357 C   0  0  2  0  0  0  0  0  0  0  0  0
  -18.0510  -15.0245  -13.8549 O   0  0  0  0  0  0  0  0  0  0  0  0
  -20.4548  -14.7730  -15.2010 C   0  0  2  0  0  0  0  0  0  0  0  0
  -20.9631  -15.1080  -13.8990 O   0  0  0  0  0  0  0  0  0  0  0  0
  -22.6854  -10.0874  -16.5146 C   0  0  0  0  0  0  0  0  0  0  0  0
  -21.2921  -10.6965  -16.3693 O   0  0  0  0  0  0  0  0  0  0  0  0
  -19.0788  -14.4284  -11.6596 C   0  0  0  0  0  0  0  0  0  0  0  0
  -18.2843  -13.2323  -11.6761 O   0  0  0  0  0  0  0  0  0  0  0  0
  -21.5985  -14.0542  -16.0210 C   0  0  1  0  0  0  0  0  0  0  0  0
  -21.9481  -12.8662  -15.3318 O   0  0  0  0  0  0  0  0  0  0  0  0
  -24.5346   -8.8274  -15.3954 C   0  0  0  0  0  0  0  0  0  0  0  0
  -24.4247  -10.5310  -11.8751 C   0  0  0  0  0  0  0  0  0  0  0  0
  1  2  1  1  0  0  0
  1  6  1  0  0  0  0
  1 21  1  0  0  0  0
  3  4  1  6  0  0  0
  3  8  1  0  0  0  0
  3 28  1  0  0  0  0
  5  9  1  0  0  0  0
  5 25  1  0  0  0  0
  5 29  1  6  0  0  0
  6  7  1  6  0  0  0
  6 11  1  0  0  0  0
  8 12  1  0  0  0  0
  9 10  1  1  0  0  0
  9 14  1  0  0  0  0
 11 16  1  0  0  0  0
 12 13  1  6  0  0  0
 12 17  1  0  0  0  0
 14 15  1  1  0  0  0
 14 18  1  0  0  0  0
 15 31  1  0  0  0  0
 16 20  1  0  0  0  0
 17  2  1  1  0  0  0
 17 22  1  0  0  0  0
 18 19  1  1  0  0  0
 18 24  1  0  0  0  0
 18 30  1  0  0  0  0
 20 21  1  0  0  0  0
 20 26  1  1  0  0  0
 22 23  1  1  0  0  0
 22 28  1  0  0  0  0
 24 25  1  0  0  0  0
 26 27  1  0  0  0  0
 28 29  1  1  0  0  0
M  END
>  <CHROM.1>
-170.21738855,-151.65450278,-111.82807708,64.93829008,127.62561197,-47.98883959
-20.50881111,-13.53537833,-14.78274126,-0.26174071,-0.90976686,1.23381247

>  <Name>
ligand

>  <RI>
0

>  <Rbt.Current_Directory>
/home/itssahil/PROJECTS/Mol_Feturizer/New_Systems/rnas/4GPW

>  <Rbt.Executable>
rbdock ($Id: //depot/dev/client3/rdock/2013.1/src/exe/rbdock.cxx#4 $)

>  <Rbt.Library>
libRbt.so (2013.1, Build901 2013/11/27)

>  <Rbt.Parameter_File>
/export/apps/rDock/src/rDock_2013.1_src/data/scripts/dock_solv.prm

>  <Rbt.Receptor>
prm/pocket_docking_5.prm

>  <SCORE>
-8.38576

>  <SCORE.INTER>
-3.59843

>  <SCORE.INTER.CONST>
1

>  <SCORE.INTER.POLAR>
0

>  <SCORE.INTER.ROT>
6

>  <SCORE.INTER.SOLV>
9.36604

>  <SCORE.INTER.VDW>
-13.121

>  <SCORE.INTER.norm>
-0.116078

>  <SCORE.INTRA>
-4.78733

>  <SCORE.INTRA.DIHEDRAL>
-11.7799

>  <SCORE.INTRA.DIHEDRAL.0>
19.2558

>  <SCORE.INTRA.POLAR>
0

>  <SCORE.INTRA.POLAR.0>
0

>  <SCORE.INTRA.REPUL>
0

>  <SCORE.INTRA.REPUL.0>
0

>  <SCORE.INTRA.SOLV>
0.409198

>  <SCORE.INTRA.SOLV.lig_0>
-64.5929

>  <SCORE.INTRA.VDW>
0.898026

>  <SCORE.INTRA.VDW.0>
-4.40538

>  <SCORE.INTRA.norm>
-0.15443

>  <SCORE.RESTR>
0

>  <SCORE.RESTR.CAVITY>
0

>  <SCORE.RESTR.norm>
0

>  <SCORE.SYSTEM>
0

>  <SCORE.SYSTEM.CONST>
0

>  <SCORE.SYSTEM.DIHEDRAL>
0

>  <SCORE.SYSTEM.SOLV>
0

>  <SCORE.SYSTEM.norm>
0

>  <SCORE.heavy>
31

>  <SCORE.norm>
-0.270508

>  <RMSD>
3.813

$$$$
ligand
 OpenBabel11021811493D
libRbt.so/2013.1/901 2013/11/27
 31 33  0  0  0  0  0  0  0  0999 V2000
  -17.6277  -13.5475  -14.9477 C   0  0  2  0  0  0  0  0  0  0  0  0
  -17.6725  -13.7859  -16.3469 O   0  0  0  0  0  0  0  0  0  0  0  0
  -20.9027  -13.7150  -19.1281 C   0  0  2  0  0  0  0  0  0  0  0  0
  -22.0812  -14.1210  -19.8236 N   0  0  0  0  0  0  0  0  0  0  0  0
  -23.6492  -12.6416  -17.6608 C   0  0  2  0  0  0  0  0  0  0  0  0
  -16.1220  -13.2122  -14.5834 C   0  0  2  0  0  0  0  0  0  0  0  0
  -15.6902  -12.0318  -15.3463 N   0  0  0  0  0  0  0  0  0  0  0  0
  -19.8062  -14.8558  -19.2893 C   0  0  0  0  0  0  0  0  0  0  0  0
  -24.2602  -11.2137  -17.4710 C   0  0  2  0  0  0  0  0  0  0  0  0
  -23.6244  -10.3433  -18.3770 O   0  0  0  0  0  0  0  0  0  0  0  0
  -15.2043  -14.4579  -14.9036 C   0  0  0  0  0  0  0  0  0  0  0  0
  -18.4862  -14.4005  -18.5182 C   0  0  2  0  0  0  0  0  0  0  0  0
  -17.4502  -15.4464  -18.6602 N   0  0  0  0  0  0  0  0  0  0  0  0
  -24.0434  -10.7455  -15.9720 C   0  0  1  0  0  0  0  0  0  0  0  0
  -24.6228   -9.3692  -15.7704 N   0  0  0  0  0  0  0  0  0  0  0  0
  -15.8921  -15.8321  -14.5149 C   0  0  0  0  0  0  0  0  0  0  0  0
  -18.8311  -14.1923  -16.9863 C   0  0  2  0  0  0  0  0  0  0  0  0
  -24.7968  -11.7871  -14.9746 C   0  0  1  0  0  0  0  0  0  0  0  0
  -26.1920  -11.8525  -15.1896 O   0  0  0  0  0  0  0  0  0  0  0  0
  -17.2056  -15.8902  -14.1987 C   0  0  2  0  0  0  0  0  0  0  0  0
  -18.0469  -14.7322  -14.1923 O   0  0  0  0  0  0  0  0  0  0  0  0
  -19.9375  -13.0680  -16.8454 C   0  0  2  0  0  0  0  0  0  0  0  0
  -20.2529  -12.8914  -15.4544 O   0  0  0  0  0  0  0  0  0  0  0  0
  -24.1943  -13.2143  -15.1965 C   0  0  0  0  0  0  0  0  0  0  0  0
  -24.2834  -13.6020  -16.6713 O   0  0  0  0  0  0  0  0  0  0  0  0
  -17.9018  -17.1958  -13.8171 C   0  0  0  0  0  0  0  0  0  0  0  0
  -18.9673  -17.4209  -14.7532 O   0  0  0  0  0  0  0  0  0  0  0  0
  -21.2474  -13.5142  -17.6085 C   0  0  1  0  0  0  0  0  0  0  0  0
  -22.2060  -12.4795  -17.4705 O   0  0  0  0  0  0  0  0  0  0  0  0
  -24.6525  -11.4596  -13.4729 C   0  0  0  0  0  0  0  0  0  0  0  0
  -23.7462   -8.3770  -15.1156 C   0  0  0  0  0  0  0  0  0  0  0  0
  1  2  1  6  0  0  0
  1  6  1  0  0  0  0
  1 21  1  0  0  0  0
  3  4  1  6  0  0  0
  3  8  1  0  0  0  0
  3 28  1  0  0  0  0
  5  9  1  0  0  0  0
  5 25  1  0  0  0  0
  5 29  1  1  0  0  0
  6  7  1  6  0  0  0
  6 11  1  0  0  0  0
  8 12  1  0  0  0  0
  9 10  1  6  0  0  0
  9 14  1  0  0  0  0
 11 16  1  0  0  0  0
 12 13  1  1  0  0  0
 12 17  1  0  0  0  0
 14 15  1  6  0  0  0
 14 18  1  0  0  0  0
 15 31  1  0  0  0  0
 16 20  1  0  0  0  0
 17  2  1  1  0  0  0
 17 22  1  0  0  0  0
 18 19  1  6  0  0  0
 18 24  1  0  0  0  0
 18 30  1  0  0  0  0
 20 21  1  0  0  0  0
 20 26  1  1  0  0  0
 22 23  1  1  0  0  0
 22 28  1  0  0  0  0
 24 25  1  0  0  0  0
 26 27  1  0  0  0  0
 28 29  1  6  0  0  0
M  END
>  <CHROM.1>
175.76522311,-177.20060449,-130.46787318,-178.18039969,-120.64924096,81.35158023
-20.66796287,-13.26624422,-16.21223214,-0.03284198,-0.47963781,1.29939379

>  <Name>
ligand

>  <RI>
0

>  <Rbt.Current_Directory>
/home/itssahil/PROJECTS/Mol_Feturizer/New_Systems/rnas/4GPW

>  <Rbt.Executable>
rbdock ($Id: //depot/dev/client3/rdock/2013.1/src/exe/rbdock.cxx#4 $)

>  <Rbt.Library>
libRbt.so (2013.1, Build901 2013/11/27)

>  <Rbt.Parameter_File>
/export/apps/rDock/src/rDock_2013.1_src/data/scripts/dock_solv.prm

>  <Rbt.Receptor>
prm/pocket_docking_7.prm

>  <SCORE>
-11.9215

>  <SCORE.INTER>
-4.37626

>  <SCORE.INTER.CONST>
1

>  <SCORE.INTER.POLAR>
0

>  <SCORE.INTER.ROT>
6

>  <SCORE.INTER.SOLV>
7.42418

>  <SCORE.INTER.VDW>
-12.9922

>  <SCORE.INTER.norm>
-0.14117

>  <SCORE.INTRA>
-7.54523

>  <SCORE.INTRA.DIHEDRAL>
-14.2822

>  <SCORE.INTRA.DIHEDRAL.0>
19.2558

>  <SCORE.INTRA.POLAR>
0

>  <SCORE.INTRA.POLAR.0>
0

>  <SCORE.INTRA.REPUL>
0

>  <SCORE.INTRA.REPUL.0>
0

>  <SCORE.INTRA.SOLV>
-2.84948

>  <SCORE.INTRA.SOLV.lig_0>
-64.5929

>  <SCORE.INTRA.VDW>
1.02059

>  <SCORE.INTRA.VDW.0>
-4.40538

>  <SCORE.INTRA.norm>
-0.243395

>  <SCORE.RESTR>
0

>  <SCORE.RESTR.CAVITY>
0

>  <SCORE.RESTR.norm>
0

>  <SCORE.SYSTEM>
0

>  <SCORE.SYSTEM.CONST>
0

>  <SCORE.SYSTEM.DIHEDRAL>
0

>  <SCORE.SYSTEM.SOLV>
0

>  <SCORE.SYSTEM.norm>
0

>  <SCORE.heavy>
31

>  <SCORE.norm>
-0.384564

>  <RMSD>
3.857

$$$$
ligand
 OpenBabel11021811493D
libRbt.so/2013.1/901 2013/11/27
 31 33  0  0  0  0  0  0  0  0999 V2000
  -19.8938  -12.2076  -11.7604 C   0  0  2  0  0  0  0  0  0  0  0  0
  -19.6016  -13.5849  -11.9459 O   0  0  0  0  0  0  0  0  0  0  0  0
  -21.4529  -16.5740  -14.3569 C   0  0  2  0  0  0  0  0  0  0  0  0
  -22.4124  -17.5332  -14.8002 N   0  0  0  0  0  0  0  0  0  0  0  0
  -23.8977  -14.9308  -16.1414 C   0  0  2  0  0  0  0  0  0  0  0  0
  -18.5325  -11.4937  -11.3738 C   0  0  2  0  0  0  0  0  0  0  0  0
  -17.5549  -11.6977  -12.4529 N   0  0  0  0  0  0  0  0  0  0  0  0
  -20.9634  -16.9890  -12.9015 C   0  0  0  0  0  0  0  0  0  0  0  0
  -23.8942  -14.1974  -17.5236 C   0  0  2  0  0  0  0  0  0  0  0  0
  -22.8739  -14.7609  -18.3136 O   0  0  0  0  0  0  0  0  0  0  0  0
  -17.9936  -12.0748  -10.0068 C   0  0  0  0  0  0  0  0  0  0  0  0
  -19.8858  -15.9217  -12.4074 C   0  0  2  0  0  0  0  0  0  0  0  0
  -19.4128  -16.2923  -11.0560 N   0  0  0  0  0  0  0  0  0  0  0  0
  -23.6566  -12.6469  -17.2940 C   0  0  1  0  0  0  0  0  0  0  0  0
  -23.6463  -11.9233  -18.6156 N   0  0  0  0  0  0  0  0  0  0  0  0
  -19.1542  -12.3277   -8.9573 C   0  0  0  0  0  0  0  0  0  0  0  0
  -20.5619  -14.4899  -12.3646 C   0  0  2  0  0  0  0  0  0  0  0  0
  -24.8621  -12.0537  -16.3763 C   0  0  1  0  0  0  0  0  0  0  0  0
  -26.1355  -12.1929  -16.9731 O   0  0  0  0  0  0  0  0  0  0  0  0
  -20.4535  -12.2848   -9.3297 C   0  0  2  0  0  0  0  0  0  0  0  0
  -20.8592  -12.0100  -10.6746 O   0  0  0  0  0  0  0  0  0  0  0  0
  -21.0606  -14.1012  -13.8165 C   0  0  2  0  0  0  0  0  0  0  0  0
  -21.6818  -12.8060  -13.7685 O   0  0  0  0  0  0  0  0  0  0  0  0
  -24.8699  -12.8161  -15.0096 C   0  0  0  0  0  0  0  0  0  0  0  0
  -24.9612  -14.3226  -15.2455 O   0  0  0  0  0  0  0  0  0  0  0  0
  -21.5985  -12.5212   -8.3458 C   0  0  0  0  0  0  0  0  0  0  0  0
  -21.0747  -12.3895   -7.0152 O   0  0  0  0  0  0  0  0  0  0  0  0
  -22.1282  -15.1562  -14.3109 C   0  0  1  0  0  0  0  0  0  0  0  0
  -22.5391  -14.7822  -15.6147 O   0  0  0  0  0  0  0  0  0  0  0  0
  -24.7476  -10.5476  -16.0577 C   0  0  0  0  0  0  0  0  0  0  0  0
  -22.7281  -10.7717  -18.7268 C   0  0  0  0  0  0  0  0  0  0  0  0
  1  2  1  1  0  0  0
  1  6  1  0  0  0  0
  1 21  1  0  0  0  0
  3  4  1  1  0  0  0
  3  8  1  0  0  0  0
  3 28  1  0  0  0  0
  5  9  1  0  0  0  0
  5 25  1  0  0  0  0
  5 29  1  1  0  0  0
  6  7  1  6  0  0  0
  6 11  1  0  0  0  0
  8 12  1  0  0  0  0
  9 10  1  6  0  0  0
  9 14  1  0  0  0  0
 11 16  1  0  0  0  0
 12 13  1  1  0  0  0
 12 17  1  0  0  0  0
 14 15  1  6  0  0  0
 14 18  1  0  0  0  0
 15 31  1  0  0  0  0
 16 20  1  0  0  0  0
 17  2  1  6  0  0  0
 17 22  1  0  0  0  0
 18 19  1  6  0  0  0
 18 24  1  0  0  0  0
 18 30  1  0  0  0  0
 20 21  1  0  0  0  0
 20 26  1  1  0  0  0
 22 23  1  1  0  0  0
 22 28  1  0  0  0  0
 24 25  1  0  0  0  0
 26 27  1  0  0  0  0
 28 29  1  6  0  0  0
M  END
>  <CHROM.1>
-176.42820340,172.10602731,-145.35631095,-178.03999182,16.47461797,97.75771055
-21.80629210,-13.47250952,-13.66727047,0.31610507,-0.99283461,0.34316132

>  <Name>
ligand

>  <RI>
0

>  <Rbt.Current_Directory>
/home/itssahil/PROJECTS/Mol_Feturizer/New_Systems/rnas/4GPW

>  <Rbt.Executable>
rbdock ($Id: //depot/dev/client3/rdock/2013.1/src/exe/rbdock.cxx#4 $)

>  <Rbt.Library>
libRbt.so (2013.1, Build901 2013/11/27)

>  <Rbt.Parameter_File>
/export/apps/rDock/src/rDock_2013.1_src/data/scripts/dock_solv.prm

>  <Rbt.Receptor>
prm/pocket_docking_8.prm

>  <SCORE>
-6.49154

>  <SCORE.INTER>
-1.50224

>  <SCORE.INTER.CONST>
1

>  <SCORE.INTER.POLAR>
0

>  <SCORE.INTER.ROT>
6

>  <SCORE.INTER.SOLV>
13.6688

>  <SCORE.INTER.VDW>
-13.1577

>  <SCORE.INTER.norm>
-0.0484592

>  <SCORE.INTRA>
-4.98931

>  <SCORE.INTRA.DIHEDRAL>
-11.0847

>  <SCORE.INTRA.DIHEDRAL.0>
19.2558

>  <SCORE.INTRA.POLAR>
0

>  <SCORE.INTRA.POLAR.0>
0

>  <SCORE.INTRA.REPUL>
0

>  <SCORE.INTRA.REPUL.0>
0

>  <SCORE.INTRA.SOLV>
-3.23485

>  <SCORE.INTRA.SOLV.lig_0>
-64.5929

>  <SCORE.INTRA.VDW>
2.17045

>  <SCORE.INTRA.VDW.0>
-4.40538

>  <SCORE.INTRA.norm>
-0.160945

>  <SCORE.RESTR>
0

>  <SCORE.RESTR.CAVITY>
0

>  <SCORE.RESTR.norm>
0

>  <SCORE.SYSTEM>
0

>  <SCORE.SYSTEM.CONST>
0

>  <SCORE.SYSTEM.DIHEDRAL>
0

>  <SCORE.SYSTEM.SOLV>
0

>  <SCORE.SYSTEM.norm>
0

>  <SCORE.heavy>
31

>  <SCORE.norm>
-0.209405

>  <RMSD>
3.928

$$$$
ligand
 OpenBabel11021811493D
libRbt.so/2013.1/901 2013/11/27
 31 33  0  0  0  0  0  0  0  0999 V2000
  -20.3635  -15.5476  -14.0572 C   0  0  2  0  0  0  0  0  0  0  0  0
  -20.7492  -14.5887  -13.0834 O   0  0  0  0  0  0  0  0  0  0  0  0
  -23.5141  -11.3516  -12.8555 C   0  0  2  0  0  0  0  0  0  0  0  0
  -24.1648  -10.1207  -13.1696 N   0  0  0  0  0  0  0  0  0  0  0  0
  -25.8413  -11.8938  -15.2953 C   0  0  2  0  0  0  0  0  0  0  0  0
  -20.1280  -16.9155  -13.2918 C   0  0  2  0  0  0  0  0  0  0  0  0
  -21.3694  -17.3086  -12.6090 N   0  0  0  0  0  0  0  0  0  0  0  0
  -21.9834  -11.0466  -12.5490 C   0  0  0  0  0  0  0  0  0  0  0  0
  -25.6612  -12.6447  -16.6561 C   0  0  2  0  0  0  0  0  0  0  0  0
  -25.9888  -13.9991  -16.4535 O   0  0  0  0  0  0  0  0  0  0  0  0
  -18.9430  -16.7531  -12.2593 C   0  0  0  0  0  0  0  0  0  0  0  0
  -21.2562  -12.4204  -12.1912 C   0  0  2  0  0  0  0  0  0  0  0  0
  -19.8306  -12.1583  -11.8971 N   0  0  0  0  0  0  0  0  0  0  0  0
  -24.1642  -12.4809  -17.1513 C   0  0  1  0  0  0  0  0  0  0  0  0
  -23.9700  -13.2013  -18.4605 N   0  0  0  0  0  0  0  0  0  0  0  0
  -17.7522  -15.8809  -12.8370 C   0  0  0  0  0  0  0  0  0  0  0  0
  -21.3764  -13.4035  -13.4274 C   0  0  2  0  0  0  0  0  0  0  0  0
  -23.8443  -10.9001  -17.3657 C   0  0  1  0  0  0  0  0  0  0  0  0
  -24.6703  -10.2924  -18.3382 O   0  0  0  0  0  0  0  0  0  0  0  0
  -17.8984  -15.1679  -13.9767 C   0  0  2  0  0  0  0  0  0  0  0  0
  -19.1184  -15.1564  -14.7253 O   0  0  0  0  0  0  0  0  0  0  0  0
  -22.9057  -13.6806  -13.7309 C   0  0  2  0  0  0  0  0  0  0  0  0
  -23.0077  -14.5648  -14.8595 O   0  0  0  0  0  0  0  0  0  0  0  0
  -24.0560  -10.1592  -16.0036 C   0  0  0  0  0  0  0  0  0  0  0  0
  -25.4585  -10.4349  -15.4646 O   0  0  0  0  0  0  0  0  0  0  0  0
  -16.7726  -14.3181  -14.5643 C   0  0  0  0  0  0  0  0  0  0  0  0
  -16.8977  -14.3431  -15.9947 O   0  0  0  0  0  0  0  0  0  0  0  0
  -23.6309  -12.3222  -14.0854 C   0  0  1  0  0  0  0  0  0  0  0  0
  -24.9957  -12.6095  -14.3370 O   0  0  0  0  0  0  0  0  0  0  0  0
  -22.4059  -10.5917  -17.8338 C   0  0  0  0  0  0  0  0  0  0  0  0
  -23.5984  -14.6283  -18.3760 C   0  0  0  0  0  0  0  0  0  0  0  0
  1  2  1  1  0  0  0
  1  6  1  0  0  0  0
  1 21  1  0  0  0  0
  3  4  1  6  0  0  0
  3  8  1  0  0  0  0
  3 28  1  0  0  0  0
  5  9  1  0  0  0  0
  5 25  1  0  0  0  0
  5 29  1  1  0  0  0
  6  7  1  1  0  0  0
  6 11  1  0  0  0  0
  8 12  1  0  0  0  0
  9 10  1  1  0  0  0
  9 14  1  0  0  0  0
 11 16  1  0  0  0  0
 12 13  1  6  0  0  0
 12 17  1  0  0  0  0
 14 15  1  6  0  0  0
 14 18  1  0  0  0  0
 15 31  1  0  0  0  0
 16 20  1  0  0  0  0
 17  2  1  1  0  0  0
 17 22  1  0  0  0  0
 18 19  1  6  0  0  0
 18 24  1  0  0  0  0
 18 30  1  0  0  0  0
 20 21  1  0  0  0  0
 20 26  1  6  0  0  0
 22 23  1  6  0  0  0
 22 28  1  0  0  0  0
 24 25  1  0  0  0  0
 26 27  1  0  0  0  0
 28 29  1  1  0  0  0
M  END
>  <CHROM.1>
-162.06427567,89.07124655,-87.75614838,-163.10577229,147.12900002,94.52110261
-22.14493753,-13.25732877,-14.81055037,-0.23655106,0.63953933,-1.84560253

>  <Name>
ligand

>  <RI>
0

>  <Rbt.Current_Directory>
/home/itssahil/PROJECTS/Mol_Feturizer/New_Systems/rnas/4GPW

>  <Rbt.Executable>
rbdock ($Id: //depot/dev/client3/rdock/2013.1/src/exe/rbdock.cxx#4 $)

>  <Rbt.Library>
libRbt.so (2013.1, Build901 2013/11/27)

>  <Rbt.Parameter_File>
/export/apps/rDock/src/rDock_2013.1_src/data/scripts/dock_solv.prm

>  <Rbt.Receptor>
prm/pocket_docking_3.prm

>  <SCORE>
-5.64921

>  <SCORE.INTER>
-4.62339

>  <SCORE.INTER.CONST>
1

>  <SCORE.INTER.POLAR>
0

>  <SCORE.INTER.ROT>
6

>  <SCORE.INTER.SOLV>
11.7414

>  <SCORE.INTER.VDW>
-14.5961

>  <SCORE.INTER.norm>
-0.149142

>  <SCORE.INTRA>
-1.09571

>  <SCORE.INTRA.DIHEDRAL>
-5.56562

>  <SCORE.INTRA.DIHEDRAL.0>
19.2558

>  <SCORE.INTRA.POLAR>
0

>  <SCORE.INTRA.POLAR.0>
0

>  <SCORE.INTRA.REPUL>
0

>  <SCORE.INTRA.REPUL.0>
0

>  <SCORE.INTRA.SOLV>
0.736142

>  <SCORE.INTRA.SOLV.lig_0>
-64.5929

>  <SCORE.INTRA.VDW>
1.31903

>  <SCORE.INTRA.VDW.0>
-4.40538

>  <SCORE.INTRA.norm>
-0.0353456

>  <SCORE.RESTR>
0.0698917

>  <SCORE.RESTR.CAVITY>
0.0698917

>  <SCORE.RESTR.norm>
0.00225457

>  <SCORE.SYSTEM>
0

>  <SCORE.SYSTEM.CONST>
0

>  <SCORE.SYSTEM.DIHEDRAL>
0

>  <SCORE.SYSTEM.SOLV>
0

>  <SCORE.SYSTEM.norm>
0

>  <SCORE.heavy>
31

>  <SCORE.norm>
-0.182233

>  <RMSD>
3.953

$$$$
ligand
 OpenBabel11021811493D
libRbt.so/2013.1/901 2013/11/27
 31 33  0  0  0  0  0  0  0  0999 V2000
  -19.4319  -16.3473  -14.2776 C   0  0  2  0  0  0  0  0  0  0  0  0
  -19.7493  -15.4974  -13.1850 O   0  0  0  0  0  0  0  0  0  0  0  0
  -22.1027  -11.9591  -12.8441 C   0  0  2  0  0  0  0  0  0  0  0  0
  -22.5035  -10.5971  -12.9914 N   0  0  0  0  0  0  0  0  0  0  0  0
  -24.0056  -11.3993  -15.2354 C   0  0  2  0  0  0  0  0  0  0  0  0
  -19.2656  -17.8109  -13.6922 C   0  0  2  0  0  0  0  0  0  0  0  0
  -20.5187  -18.2167  -13.0388 N   0  0  0  0  0  0  0  0  0  0  0  0
  -20.6948  -11.9912  -12.1046 C   0  0  0  0  0  0  0  0  0  0  0  0
  -25.3233  -11.9102  -15.9068 C   0  0  2  0  0  0  0  0  0  0  0  0
  -25.9487  -12.8035  -15.0160 O   0  0  0  0  0  0  0  0  0  0  0  0
  -18.0601  -17.8446  -12.6714 C   0  0  0  0  0  0  0  0  0  0  0  0
  -20.2486  -13.5130  -11.9332 C   0  0  2  0  0  0  0  0  0  0  0  0
  -18.9423  -13.5659  -11.2419 N   0  0  0  0  0  0  0  0  0  0  0  0
  -24.9715  -12.6174  -17.2813 C   0  0  1  0  0  0  0  0  0  0  0  0
  -26.2292  -13.1198  -17.9419 N   0  0  0  0  0  0  0  0  0  0  0  0
  -16.8286  -16.9745  -13.1602 C   0  0  0  0  0  0  0  0  0  0  0  0
  -20.1241  -14.1771  -13.3659 C   0  0  2  0  0  0  0  0  0  0  0  0
  -24.2521  -11.5400  -18.2656 C   0  0  1  0  0  0  0  0  0  0  0  0
  -25.0724  -10.4301  -18.5698 O   0  0  0  0  0  0  0  0  0  0  0  0
  -16.9482  -16.1179  -14.1997 C   0  0  2  0  0  0  0  0  0  0  0  0
  -18.1750  -15.9454  -14.9167 O   0  0  0  0  0  0  0  0  0  0  0  0
  -21.5285  -14.1191  -14.0953 C   0  0  2  0  0  0  0  0  0  0  0  0
  -21.4060  -14.7140  -15.3979 O   0  0  0  0  0  0  0  0  0  0  0  0
  -22.9519  -11.0181  -17.5683 C   0  0  0  0  0  0  0  0  0  0  0  0
  -23.2814  -10.4619  -16.1843 O   0  0  0  0  0  0  0  0  0  0  0  0
  -15.7830  -15.2652  -14.6999 C   0  0  0  0  0  0  0  0  0  0  0  0
  -16.0503  -13.8986  -14.3488 O   0  0  0  0  0  0  0  0  0  0  0  0
  -21.9754  -12.6131  -14.2669 C   0  0  1  0  0  0  0  0  0  0  0  0
  -23.2384  -12.6038  -14.9098 O   0  0  0  0  0  0  0  0  0  0  0  0
  -23.8371  -12.1021  -19.6422 C   0  0  0  0  0  0  0  0  0  0  0  0
  -26.5049  -14.5654  -17.8156 C   0  0  0  0  0  0  0  0  0  0  0  0
  1  2  1  1  0  0  0
  1  6  1  0  0  0  0
  1 21  1  0  0  0  0
  3  4  1  6  0  0  0
  3  8  1  0  0  0  0
  3 28  1  0  0  0  0
  5  9  1  0  0  0  0
  5 25  1  0  0  0  0
  5 29  1  6  0  0  0
  6  7  1  1  0  0  0
  6 11  1  0  0  0  0
  8 12  1  0  0  0  0
  9 10  1  1  0  0  0
  9 14  1  0  0  0  0
 11 16  1  0  0  0  0
 12 13  1  6  0  0  0
 12 17  1  0  0  0  0
 14 15  1  6  0  0  0
 14 18  1  0  0  0  0
 15 31  1  0  0  0  0
 16 20  1  0  0  0  0
 17  2  1  1  0  0  0
 17 22  1  0  0  0  0
 18 19  1  6  0  0  0
 18 24  1  0  0  0  0
 18 30  1  0  0  0  0
 20 21  1  0  0  0  0
 20 26  1  6  0  0  0
 22 23  1  6  0  0  0
 22 28  1  0  0  0  0
 24 25  1  0  0  0  0
 26 27  1  0  0  0  0
 28 29  1  1  0  0  0
M  END
>  <CHROM.1>
-171.82386637,-179.07154729,-101.53992967,-174.17433714,-109.30863223,60.86475837
-21.49210824,-13.72248488,-14.89675983,0.12952745,0.66623680,-2.52596564

>  <Name>
ligand

>  <RI>
0

>  <Rbt.Current_Directory>
/home/itssahil/PROJECTS/Mol_Feturizer/New_Systems/rnas/4GPW

>  <Rbt.Executable>
rbdock ($Id: //depot/dev/client3/rdock/2013.1/src/exe/rbdock.cxx#4 $)

>  <Rbt.Library>
libRbt.so (2013.1, Build901 2013/11/27)

>  <Rbt.Parameter_File>
/export/apps/rDock/src/rDock_2013.1_src/data/scripts/dock_solv.prm

>  <Rbt.Receptor>
prm/pocket_docking_4.prm

>  <SCORE>
-13.7703

>  <SCORE.INTER>
-6.03133

>  <SCORE.INTER.CONST>
1

>  <SCORE.INTER.POLAR>
0

>  <SCORE.INTER.ROT>
6

>  <SCORE.INTER.SOLV>
13.0521

>  <SCORE.INTER.VDW>
-15.9716

>  <SCORE.INTER.norm>
-0.194559

>  <SCORE.INTRA>
-7.73896

>  <SCORE.INTRA.DIHEDRAL>
-15.9721

>  <SCORE.INTRA.DIHEDRAL.0>
19.2558

>  <SCORE.INTRA.POLAR>
0

>  <SCORE.INTRA.POLAR.0>
0

>  <SCORE.INTRA.REPUL>
0

>  <SCORE.INTRA.REPUL.0>
0

>  <SCORE.INTRA.SOLV>
-2.17669

>  <SCORE.INTRA.SOLV.lig_0>
-64.5929

>  <SCORE.INTRA.VDW>
1.33542

>  <SCORE.INTRA.VDW.0>
-4.40538

>  <SCORE.INTRA.norm>
-0.249644

>  <SCORE.RESTR>
0

>  <SCORE.RESTR.CAVITY>
0

>  <SCORE.RESTR.norm>
0

>  <SCORE.SYSTEM>
0

>  <SCORE.SYSTEM.CONST>
0

>  <SCORE.SYSTEM.DIHEDRAL>
0

>  <SCORE.SYSTEM.SOLV>
0

>  <SCORE.SYSTEM.norm>
0

>  <SCORE.heavy>
31

>  <SCORE.norm>
-0.444203

>  <RMSD>
4.084

$$$$
ligand
 OpenBabel11021811493D
libRbt.so/2013.1/901 2013/11/27
 31 33  0  0  0  0  0  0  0  0999 V2000
  -19.4414  -16.3781  -14.2388 C   0  0  2  0  0  0  0  0  0  0  0  0
  -19.7645  -15.5266  -13.1493 O   0  0  0  0  0  0  0  0  0  0  0  0
  -22.0630  -11.9521  -12.8105 C   0  0  2  0  0  0  0  0  0  0  0  0
  -22.4438  -10.5847  -12.9604 N   0  0  0  0  0  0  0  0  0  0  0  0
  -23.9695  -11.3713  -15.1903 C   0  0  2  0  0  0  0  0  0  0  0  0
  -19.2033  -17.8261  -13.6396 C   0  0  2  0  0  0  0  0  0  0  0  0
  -20.4228  -18.2714  -12.9495 N   0  0  0  0  0  0  0  0  0  0  0  0
  -20.6530  -12.0031  -12.0762 C   0  0  0  0  0  0  0  0  0  0  0  0
  -25.2967  -11.8643  -15.8563 C   0  0  2  0  0  0  0  0  0  0  0  0
  -25.9294  -12.7508  -14.9638 O   0  0  0  0  0  0  0  0  0  0  0  0
  -17.9723  -17.7990  -12.6494 C   0  0  0  0  0  0  0  0  0  0  0  0
  -20.2291  -13.5309  -11.9018 C   0  0  2  0  0  0  0  0  0  0  0  0
  -18.9211  -13.6014  -11.2152 N   0  0  0  0  0  0  0  0  0  0  0  0
  -24.9602  -12.5740  -17.2334 C   0  0  1  0  0  0  0  0  0  0  0  0
  -26.2272  -13.0594  -17.8889 N   0  0  0  0  0  0  0  0  0  0  0  0
  -16.7885  -16.8884  -13.1802 C   0  0  0  0  0  0  0  0  0  0  0  0
  -20.1201  -14.2013  -13.3328 C   0  0  2  0  0  0  0  0  0  0  0  0
  -24.2316  -11.5045  -18.2195 C   0  0  1  0  0  0  0  0  0  0  0  0
  -25.0391  -10.3839  -18.5184 O   0  0  0  0  0  0  0  0  0  0  0  0
  -16.9674  -16.0512  -14.2270 C   0  0  2  0  0  0  0  0  0  0  0  0
  -18.2175  -15.9363  -14.9147 O   0  0  0  0  0  0  0  0  0  0  0  0
  -21.5263  -14.1243  -14.0571 C   0  0  2  0  0  0  0  0  0  0  0  0
  -21.4178  -14.7250  -15.3583 O   0  0  0  0  0  0  0  0  0  0  0  0
  -22.9216  -11.0003  -17.5274 C   0  0  0  0  0  0  0  0  0  0  0  0
  -23.2377  -10.4418  -16.1412 O   0  0  0  0  0  0  0  0  0  0  0  0
  -15.8494  -15.1606  -14.7672 C   0  0  0  0  0  0  0  0  0  0  0  0
  -15.5977  -15.5409  -16.1289 O   0  0  0  0  0  0  0  0  0  0  0  0
  -21.9510  -12.6123  -14.2317 C   0  0  1  0  0  0  0  0  0  0  0  0
  -23.2162  -12.5859  -14.8697 O   0  0  0  0  0  0  0  0  0  0  0  0
  -23.8301  -12.0699  -19.5987 C   0  0  0  0  0  0  0  0  0  0  0  0
  -26.4769  -14.5144  -17.8386 C   0  0  0  0  0  0  0  0  0  0  0  0
  1  2  1  1  0  0  0
  1  6  1  0  0  0  0
  1 21  1  0  0  0  0
  3  4  1  6  0  0  0
  3  8  1  0  0  0  0
  3 28  1  0  0  0  0
  5  9  1  0  0  0  0
  5 25  1  0  0  0  0
  5 29  1  6  0  0  0
  6  7  1  1  0  0  0
  6 11  1  0  0  0  0
  8 12  1  0  0  0  0
  9 10  1  1  0  0  0
  9 14  1  0  0  0  0
 11 16  1  0  0  0  0
 12 13  1  6  0  0  0
 12 17  1  0  0  0  0
 14 15  1  6  0  0  0
 14 18  1  0  0  0  0
 15 31  1  0  0  0  0
 16 20  1  0  0  0  0
 17  2  1  1  0  0  0
 17 22  1  0  0  0  0
 18 19  1  6  0  0  0
 18 24  1  0  0  0  0
 18 30  1  0  0  0  0
 20 21  1  0  0  0  0
 20 26  1  6  0  0  0
 22 23  1  6  0  0  0
 22 28  1  0  0  0  0
 24 25  1  0  0  0  0
 26 27  1  0  0  0  0
 28 29  1  1  0  0  0
M  END
>  <CHROM.1>
-175.66948322,-179.01454784,-105.35701927,-173.04352071,118.34101722,60.54413532
-21.45628246,-13.76452103,-14.93225033,-0.12023377,0.66354353,-2.05940269

>  <Name>
ligand

>  <RI>
0

>  <Rbt.Current_Directory>
/home/itssahil/PROJECTS/Mol_Feturizer/New_Systems/rnas/4GPW

>  <Rbt.Executable>
rbdock ($Id: //depot/dev/client3/rdock/2013.1/src/exe/rbdock.cxx#4 $)

>  <Rbt.Library>
libRbt.so (2013.1, Build901 2013/11/27)

>  <Rbt.Parameter_File>
/export/apps/rDock/src/rDock_2013.1_src/data/scripts/dock_solv.prm

>  <Rbt.Receptor>
prm/pocket_docking_4.prm

>  <SCORE>
-13.7313

>  <SCORE.INTER>
-5.90587

>  <SCORE.INTER.CONST>
1

>  <SCORE.INTER.POLAR>
0

>  <SCORE.INTER.ROT>
6

>  <SCORE.INTER.SOLV>
12.8435

>  <SCORE.INTER.VDW>
-15.8184

>  <SCORE.INTER.norm>
-0.190512

>  <SCORE.INTRA>
-7.82545

>  <SCORE.INTRA.DIHEDRAL>
-16.1872

>  <SCORE.INTRA.DIHEDRAL.0>
19.2558

>  <SCORE.INTRA.POLAR>
0

>  <SCORE.INTRA.POLAR.0>
0

>  <SCORE.INTRA.REPUL>
0

>  <SCORE.INTRA.REPUL.0>
0

>  <SCORE.INTRA.SOLV>
-2.25686

>  <SCORE.INTRA.SOLV.lig_0>
-64.5929

>  <SCORE.INTRA.VDW>
1.39659

>  <SCORE.INTRA.VDW.0>
-4.40538

>  <SCORE.INTRA.norm>
-0.252434

>  <SCORE.RESTR>
0

>  <SCORE.RESTR.CAVITY>
0

>  <SCORE.RESTR.norm>
0

>  <SCORE.SYSTEM>
0

>  <SCORE.SYSTEM.CONST>
0

>  <SCORE.SYSTEM.DIHEDRAL>
0

>  <SCORE.SYSTEM.SOLV>
0

>  <SCORE.SYSTEM.norm>
0

>  <SCORE.heavy>
31

>  <SCORE.norm>
-0.442946

>  <RMSD>
4.095

$$$$
ligand
 OpenBabel11021811493D
libRbt.so/2013.1/901 2013/11/27
 31 33  0  0  0  0  0  0  0  0999 V2000
  -19.3563  -15.8544  -14.3632 C   0  0  2  0  0  0  0  0  0  0  0  0
  -19.6392  -15.1181  -13.1823 O   0  0  0  0  0  0  0  0  0  0  0  0
  -22.2381  -11.8061  -12.5109 C   0  0  2  0  0  0  0  0  0  0  0  0
  -22.7285  -10.4657  -12.5138 N   0  0  0  0  0  0  0  0  0  0  0  0
  -24.0747  -11.0861  -14.9653 C   0  0  2  0  0  0  0  0  0  0  0  0
  -19.1557  -17.3657  -13.9294 C   0  0  2  0  0  0  0  0  0  0  0  0
  -20.3797  -17.8478  -13.2726 N   0  0  0  0  0  0  0  0  0  0  0  0
  -20.8481  -11.8306  -11.7380 C   0  0  0  0  0  0  0  0  0  0  0  0
  -25.3482  -11.6034  -15.7127 C   0  0  2  0  0  0  0  0  0  0  0  0
  -25.9767  -12.5601  -14.8926 O   0  0  0  0  0  0  0  0  0  0  0  0
  -17.9121  -17.4835  -12.9618 C   0  0  0  0  0  0  0  0  0  0  0  0
  -20.3019  -13.3292  -11.7280 C   0  0  2  0  0  0  0  0  0  0  0  0
  -19.0106  -13.3755  -11.0083 N   0  0  0  0  0  0  0  0  0  0  0  0
  -24.9212  -12.2285  -17.1056 C   0  0  1  0  0  0  0  0  0  0  0  0
  -26.1355  -12.7361  -17.8394 N   0  0  0  0  0  0  0  0  0  0  0  0
  -16.7074  -16.5555  -13.4089 C   0  0  0  0  0  0  0  0  0  0  0  0
  -20.1001  -13.8134  -13.2226 C   0  0  2  0  0  0  0  0  0  0  0  0
  -24.2014  -11.0804  -18.0061 C   0  0  1  0  0  0  0  0  0  0  0  0
  -25.0463   -9.9829  -18.2871 O   0  0  0  0  0  0  0  0  0  0  0  0
  -16.8734  -15.6038  -14.3552 C   0  0  2  0  0  0  0  0  0  0  0  0
  -18.1279  -15.3775  -15.0063 O   0  0  0  0  0  0  0  0  0  0  0  0
  -21.4887  -13.7641  -13.9824 C   0  0  2  0  0  0  0  0  0  0  0  0
  -21.2965  -14.1947  -15.3401 O   0  0  0  0  0  0  0  0  0  0  0  0
  -22.9467  -10.5539  -17.2330 C   0  0  0  0  0  0  0  0  0  0  0  0
  -23.3468  -10.0793  -15.8373 O   0  0  0  0  0  0  0  0  0  0  0  0
  -15.7353  -14.6927  -14.8128 C   0  0  0  0  0  0  0  0  0  0  0  0
  -16.0931  -13.3396  -14.4912 O   0  0  0  0  0  0  0  0  0  0  0  0
  -22.0344  -12.2811  -13.9945 C   0  0  1  0  0  0  0  0  0  0  0  0
  -23.2805  -12.2809  -14.6696 O   0  0  0  0  0  0  0  0  0  0  0  0
  -23.7161  -11.5585  -19.3914 C   0  0  0  0  0  0  0  0  0  0  0  0
  -26.3058  -14.2023  -17.8920 C   0  0  0  0  0  0  0  0  0  0  0  0
  1  2  1  1  0  0  0
  1  6  1  0  0  0  0
  1 21  1  0  0  0  0
  3  4  1  6  0  0  0
  3  8  1  0  0  0  0
  3 28  1  0  0  0  0
  5  9  1  0  0  0  0
  5 25  1  0  0  0  0
  5 29  1  6  0  0  0
  6  7  1  1  0  0  0
  6 11  1  0  0  0  0
  8 12  1  0  0  0  0
  9 10  1  1  0  0  0
  9 14  1  0  0  0  0
 11 16  1  0  0  0  0
 12 13  1  1  0  0  0
 12 17  1  0  0  0  0
 14 15  1  6  0  0  0
 14 18  1  0  0  0  0
 15 31  1  0  0  0  0
 16 20  1  0  0  0  0
 17  2  1  1  0  0  0
 17 22  1  0  0  0  0
 18 19  1  6  0  0  0
 18 24  1  0  0  0  0
 18 30  1  0  0  0  0
 20 21  1  0  0  0  0
 20 26  1  6  0  0  0
 22 23  1  6  0  0  0
 22 28  1  0  0  0  0
 24 25  1  0  0  0  0
 26 27  1  0  0  0  0
 28 29  1  6  0  0  0
M  END
>  <CHROM.1>
-168.30539956,-179.96727340,-106.49640180,179.92049121,-117.54360010,65.61381703
-21.47118103,-13.34295189,-14.79729350,-0.04296790,0.64940092,-2.20588592

>  <Name>
ligand

>  <RI>
0

>  <Rbt.Current_Directory>
/home/itssahil/PROJECTS/Mol_Feturizer/New_Systems/rnas/4GPW

>  <Rbt.Executable>
rbdock ($Id: //depot/dev/client3/rdock/2013.1/src/exe/rbdock.cxx#4 $)

>  <Rbt.Library>
libRbt.so (2013.1, Build901 2013/11/27)

>  <Rbt.Parameter_File>
/export/apps/rDock/src/rDock_2013.1_src/data/scripts/dock_solv.prm

>  <Rbt.Receptor>
prm/pocket_docking_5.prm

>  <SCORE>
-13.5417

>  <SCORE.INTER>
-5.941

>  <SCORE.INTER.CONST>
1

>  <SCORE.INTER.POLAR>
0

>  <SCORE.INTER.ROT>
6

>  <SCORE.INTER.SOLV>
12.656

>  <SCORE.INTER.VDW>
-15.7793

>  <SCORE.INTER.norm>
-0.191645

>  <SCORE.INTRA>
-7.60073

>  <SCORE.INTRA.DIHEDRAL>
-15.686

>  <SCORE.INTRA.DIHEDRAL.0>
19.2558

>  <SCORE.INTRA.POLAR>
0

>  <SCORE.INTRA.POLAR.0>
0

>  <SCORE.INTRA.REPUL>
0

>  <SCORE.INTRA.REPUL.0>
0

>  <SCORE.INTRA.SOLV>
-2.55878

>  <SCORE.INTRA.SOLV.lig_0>
-64.5929

>  <SCORE.INTRA.VDW>
1.52166

>  <SCORE.INTRA.VDW.0>
-4.40538

>  <SCORE.INTRA.norm>
-0.245185

>  <SCORE.RESTR>
0

>  <SCORE.RESTR.CAVITY>
0

>  <SCORE.RESTR.norm>
0

>  <SCORE.SYSTEM>
0

>  <SCORE.SYSTEM.CONST>
0

>  <SCORE.SYSTEM.DIHEDRAL>
0

>  <SCORE.SYSTEM.SOLV>
0

>  <SCORE.SYSTEM.norm>
0

>  <SCORE.heavy>
31

>  <SCORE.norm>
-0.43683

>  <RMSD>
4.131

$$$$
ligand
 OpenBabel11021811493D
libRbt.so/2013.1/901 2013/11/27
 31 33  0  0  0  0  0  0  0  0999 V2000
  -19.3801  -15.9492  -14.3310 C   0  0  2  0  0  0  0  0  0  0  0  0
  -19.6678  -15.1687  -13.1801 O   0  0  0  0  0  0  0  0  0  0  0  0
  -22.1773  -11.7707  -12.6050 C   0  0  2  0  0  0  0  0  0  0  0  0
  -22.6386  -10.4211  -12.6599 N   0  0  0  0  0  0  0  0  0  0  0  0
  -24.0538  -11.1245  -15.0548 C   0  0  2  0  0  0  0  0  0  0  0  0
  -19.2035  -17.4467  -13.8423 C   0  0  2  0  0  0  0  0  0  0  0  0
  -20.4410  -17.8908  -13.1843 N   0  0  0  0  0  0  0  0  0  0  0  0
  -20.7695  -11.7906  -11.8650 C   0  0  0  0  0  0  0  0  0  0  0  0
  -25.3367  -11.6451  -15.7836 C   0  0  2  0  0  0  0  0  0  0  0  0
  -25.9836  -12.5582  -14.9288 O   0  0  0  0  0  0  0  0  0  0  0  0
  -17.9730  -17.5455  -12.8561 C   0  0  0  0  0  0  0  0  0  0  0  0
  -20.2557  -13.2991  -11.7968 C   0  0  2  0  0  0  0  0  0  0  0  0
  -18.9484  -13.3410  -11.1065 N   0  0  0  0  0  0  0  0  0  0  0  0
  -24.9212  -12.3301  -17.1515 C   0  0  1  0  0  0  0  0  0  0  0  0
  -26.1447  -12.8416  -17.8671 N   0  0  0  0  0  0  0  0  0  0  0  0
  -16.7516  -16.6482  -13.3204 C   0  0  0  0  0  0  0  0  0  0  0  0
  -20.1013  -13.8572  -13.2712 C   0  0  2  0  0  0  0  0  0  0  0  0
  -24.1793  -11.2305  -18.0938 C   0  0  1  0  0  0  0  0  0  0  0  0
  -25.0031  -10.1285  -18.4167 O   0  0  0  0  0  0  0  0  0  0  0  0
  -16.8946  -15.7283  -14.3012 C   0  0  2  0  0  0  0  0  0  0  0  0
  -18.1384  -15.5099  -14.9751 O   0  0  0  0  0  0  0  0  0  0  0  0
  -21.5069  -13.8120  -13.9994 C   0  0  2  0  0  0  0  0  0  0  0  0
  -21.3576  -14.3100  -15.3394 O   0  0  0  0  0  0  0  0  0  0  0  0
  -22.9151  -10.6994  -17.3397 C   0  0  0  0  0  0  0  0  0  0  0  0
  -23.3065  -10.1652  -15.9631 O   0  0  0  0  0  0  0  0  0  0  0  0
  -15.7399  -14.8475  -14.7762 C   0  0  0  0  0  0  0  0  0  0  0  0
  -16.0619  -13.4843  -14.4595 O   0  0  0  0  0  0  0  0  0  0  0  0
  -22.0206  -12.3192  -14.0689 C   0  0  1  0  0  0  0  0  0  0  0  0
  -23.2827  -12.3222  -14.7136 O   0  0  0  0  0  0  0  0  0  0  0  0
  -23.7028  -11.7695  -19.4596 C   0  0  0  0  0  0  0  0  0  0  0  0
  -26.3207  -14.3078  -17.9011 C   0  0  0  0  0  0  0  0  0  0  0  0
  1  2  1  1  0  0  0
  1  6  1  0  0  0  0
  1 21  1  0  0  0  0
  3  4  1  6  0  0  0
  3  8  1  0  0  0  0
  3 28  1  0  0  0  0
  5  9  1  0  0  0  0
  5 25  1  0  0  0  0
  5 29  1  6  0  0  0
  6  7  1  1  0  0  0
  6 11  1  0  0  0  0
  8 12  1  0  0  0  0
  9 10  1  1  0  0  0
  9 14  1  0  0  0  0
 11 16  1  0  0  0  0
 12 13  1  6  0  0  0
 12 17  1  0  0  0  0
 14 15  1  6  0  0  0
 14 18  1  0  0  0  0
 15 31  1  0  0  0  0
 16 20  1  0  0  0  0
 17  2  1  1  0  0  0
 17 22  1  0  0  0  0
 18 19  1  6  0  0  0
 18 24  1  0  0  0  0
 18 30  1  0  0  0  0
 20 21  1  0  0  0  0
 20 26  1  6  0  0  0
 22 23  1  6  0  0  0
 22 28  1  0  0  0  0
 24 25  1  0  0  0  0
 26 27  1  0  0  0  0
 28 29  1  1  0  0  0
M  END
>  <CHROM.1>
-168.85601812,178.28916424,-108.34650938,-177.57073430,-115.34824863,66.04594968
-21.46660579,-13.41551916,-14.82806635,0.00689768,0.65704563,-2.30655601

>  <Name>
ligand

>  <RI>
0

>  <Rbt.Current_Directory>
/home/itssahil/PROJECTS/Mol_Feturizer/New_Systems/rnas/4GPW

>  <Rbt.Executable>
rbdock ($Id: //depot/dev/client3/rdock/2013.1/src/exe/rbdock.cxx#4 $)

>  <Rbt.Library>
libRbt.so (2013.1, Build901 2013/11/27)

>  <Rbt.Parameter_File>
/export/apps/rDock/src/rDock_2013.1_src/data/scripts/dock_solv.prm

>  <Rbt.Receptor>
prm/pocket_docking_4.prm

>  <SCORE>
-13.6593

>  <SCORE.INTER>
-5.94154

>  <SCORE.INTER.CONST>
1

>  <SCORE.INTER.POLAR>
0

>  <SCORE.INTER.ROT>
6

>  <SCORE.INTER.SOLV>
12.3736

>  <SCORE.INTER.VDW>
-15.6856

>  <SCORE.INTER.norm>
-0.191663

>  <SCORE.INTRA>
-7.71778

>  <SCORE.INTRA.DIHEDRAL>
-15.6207

>  <SCORE.INTRA.DIHEDRAL.0>
19.2558

>  <SCORE.INTRA.POLAR>
0

>  <SCORE.INTRA.POLAR.0>
0

>  <SCORE.INTRA.REPUL>
0

>  <SCORE.INTRA.REPUL.0>
0

>  <SCORE.INTRA.SOLV>
-2.46056

>  <SCORE.INTRA.SOLV.lig_0>
-64.5929

>  <SCORE.INTRA.VDW>
1.32283

>  <SCORE.INTRA.VDW.0>
-4.40538

>  <SCORE.INTRA.norm>
-0.248961

>  <SCORE.RESTR>
0

>  <SCORE.RESTR.CAVITY>
0

>  <SCORE.RESTR.norm>
0

>  <SCORE.SYSTEM>
0

>  <SCORE.SYSTEM.CONST>
0

>  <SCORE.SYSTEM.DIHEDRAL>
0

>  <SCORE.SYSTEM.SOLV>
0

>  <SCORE.SYSTEM.norm>
0

>  <SCORE.heavy>
31

>  <SCORE.norm>
-0.440623

>  <RMSD>
4.135

$$$$
ligand
 OpenBabel11021811493D
libRbt.so/2013.1/901 2013/11/27
 31 33  0  0  0  0  0  0  0  0999 V2000
  -20.3520  -15.9763  -13.2590 C   0  0  2  0  0  0  0  0  0  0  0  0
  -19.2307  -15.7034  -14.0866 O   0  0  0  0  0  0  0  0  0  0  0  0
  -18.7534  -13.0955  -17.4251 C   0  0  2  0  0  0  0  0  0  0  0  0
  -18.8574  -12.5894  -18.7557 N   0  0  0  0  0  0  0  0  0  0  0  0
  -21.0756  -11.0982  -17.8944 C   0  0  2  0  0  0  0  0  0  0  0  0
  -19.7908  -16.3084  -11.8143 C   0  0  2  0  0  0  0  0  0  0  0  0
  -19.0203  -15.1589  -11.3177 N   0  0  0  0  0  0  0  0  0  0  0  0
  -18.0414  -14.5167  -17.4826 C   0  0  0  0  0  0  0  0  0  0  0  0
  -22.0091   -9.9641  -17.3554 C   0  0  2  0  0  0  0  0  0  0  0  0
  -21.3645   -9.3503  -16.2643 O   0  0  0  0  0  0  0  0  0  0  0  0
  -18.8919  -17.6065  -11.8754 C   0  0  0  0  0  0  0  0  0  0  0  0
  -17.9183  -15.0806  -15.9956 C   0  0  2  0  0  0  0  0  0  0  0  0
  -17.2531  -16.4012  -16.0257 N   0  0  0  0  0  0  0  0  0  0  0  0
  -23.4007  -10.5903  -16.9258 C   0  0  1  0  0  0  0  0  0  0  0  0
  -24.3133   -9.5126  -16.4001 N   0  0  0  0  0  0  0  0  0  0  0  0
  -19.4948  -18.7156  -12.8339 C   0  0  0  0  0  0  0  0  0  0  0  0
  -19.3699  -15.2256  -15.3784 C   0  0  2  0  0  0  0  0  0  0  0  0
  -24.0955  -11.2842  -18.2232 C   0  0  1  0  0  0  0  0  0  0  0  0
  -24.3584  -10.3704  -19.2687 O   0  0  0  0  0  0  0  0  0  0  0  0
  -20.5147  -18.4315  -13.6752 C   0  0  2  0  0  0  0  0  0  0  0  0
  -21.1086  -17.1314  -13.7521 O   0  0  0  0  0  0  0  0  0  0  0  0
  -20.0711  -13.8061  -15.3469 C   0  0  2  0  0  0  0  0  0  0  0  0
  -21.3910  -13.9466  -14.7955 O   0  0  0  0  0  0  0  0  0  0  0  0
  -23.1377  -12.3961  -18.7667 C   0  0  0  0  0  0  0  0  0  0  0  0
  -21.7553  -11.8108  -19.0493 O   0  0  0  0  0  0  0  0  0  0  0  0
  -21.1225  -19.4750  -14.6114 C   0  0  0  0  0  0  0  0  0  0  0  0
  -21.2274  -18.8908  -15.9191 O   0  0  0  0  0  0  0  0  0  0  0  0
  -20.1949  -13.2427  -16.8181 C   0  0  1  0  0  0  0  0  0  0  0  0
  -20.8135  -11.9696  -16.7466 O   0  0  0  0  0  0  0  0  0  0  0  0
  -25.4583  -11.9531  -17.9433 C   0  0  0  0  0  0  0  0  0  0  0  0
  -24.8429   -9.7086  -15.0352 C   0  0  0  0  0  0  0  0  0  0  0  0
  1  2  1  6  0  0  0
  1  6  1  0  0  0  0
  1 21  1  0  0  0  0
  3  4  1  6  0  0  0
  3  8  1  0  0  0  0
  3 28  1  0  0  0  0
  5  9  1  0  0  0  0
  5 25  1  0  0  0  0
  5 29  1  1  0  0  0
  6  7  1  6  0  0  0
  6 11  1  0  0  0  0
  8 12  1  0  0  0  0
  9 10  1  1  0  0  0
  9 14  1  0  0  0  0
 11 16  1  0  0  0  0
 12 13  1  6  0  0  0
 12 17  1  0  0  0  0
 14 15  1  6  0  0  0
 14 18  1  0  0  0  0
 15 31  1  0  0  0  0
 16 20  1  0  0  0  0
 17  2  1  1  0  0  0
 17 22  1  0  0  0  0
 18 19  1  6  0  0  0
 18 24  1  0  0  0  0
 18 30  1  0  0  0  0
 20 21  1  0  0  0  0
 20 26  1  1  0  0  0
 22 23  1  6  0  0  0
 22 28  1  0  0  0  0
 24 25  1  0  0  0  0
 26 27  1  0  0  0  0
 28 29  1  1  0  0  0
M  END
>  <CHROM.1>
-172.41458614,169.09854682,-123.53962553,-178.51243372,-132.41476823,59.92759129
-20.98043113,-13.90220185,-15.85171810,1.09752137,-0.42563759,2.39610864

>  <Name>
ligand

>  <RI>
0

>  <Rbt.Current_Directory>
/home/itssahil/PROJECTS/Mol_Feturizer/New_Systems/rnas/4GPW

>  <Rbt.Executable>
rbdock ($Id: //depot/dev/client3/rdock/2013.1/src/exe/rbdock.cxx#4 $)

>  <Rbt.Library>
libRbt.so (2013.1, Build901 2013/11/27)

>  <Rbt.Parameter_File>
/export/apps/rDock/src/rDock_2013.1_src/data/scripts/dock_solv.prm

>  <Rbt.Receptor>
prm/pocket_docking_7.prm

>  <SCORE>
-13.0319

>  <SCORE.INTER>
-5.94638

>  <SCORE.INTER.CONST>
1

>  <SCORE.INTER.POLAR>
0

>  <SCORE.INTER.ROT>
6

>  <SCORE.INTER.SOLV>
12.5376

>  <SCORE.INTER.VDW>
-15.7435

>  <SCORE.INTER.norm>
-0.191819

>  <SCORE.INTRA>
-7.08552

>  <SCORE.INTRA.DIHEDRAL>
-15.3095

>  <SCORE.INTRA.DIHEDRAL.0>
19.2558

>  <SCORE.INTRA.POLAR>
0

>  <SCORE.INTRA.POLAR.0>
0

>  <SCORE.INTRA.REPUL>
0

>  <SCORE.INTRA.REPUL.0>
0

>  <SCORE.INTRA.SOLV>
-2.03254

>  <SCORE.INTRA.SOLV.lig_0>
-64.5929

>  <SCORE.INTRA.VDW>
1.58551

>  <SCORE.INTRA.VDW.0>
-4.40538

>  <SCORE.INTRA.norm>
-0.228565

>  <SCORE.RESTR>
0

>  <SCORE.RESTR.CAVITY>
0

>  <SCORE.RESTR.norm>
0

>  <SCORE.SYSTEM>
0

>  <SCORE.SYSTEM.CONST>
0

>  <SCORE.SYSTEM.DIHEDRAL>
0

>  <SCORE.SYSTEM.SOLV>
0

>  <SCORE.SYSTEM.norm>
0

>  <SCORE.heavy>
31

>  <SCORE.norm>
-0.420384

>  <RMSD>
4.136

$$$$
ligand
 OpenBabel11021811493D
libRbt.so/2013.1/901 2013/11/27
 31 33  0  0  0  0  0  0  0  0999 V2000
  -19.3252  -15.8582  -14.3841 C   0  0  2  0  0  0  0  0  0  0  0  0
  -19.6099  -15.1066  -13.2134 O   0  0  0  0  0  0  0  0  0  0  0  0
  -22.1504  -11.7460  -12.5598 C   0  0  2  0  0  0  0  0  0  0  0  0
  -22.6225  -10.3991  -12.5803 N   0  0  0  0  0  0  0  0  0  0  0  0
  -24.0284  -11.0496  -14.9830 C   0  0  2  0  0  0  0  0  0  0  0  0
  -19.1619  -17.3696  -13.9354 C   0  0  2  0  0  0  0  0  0  0  0  0
  -20.4048  -17.8213  -13.2928 N   0  0  0  0  0  0  0  0  0  0  0  0
  -20.7465  -11.7747  -11.8126 C   0  0  0  0  0  0  0  0  0  0  0  0
  -25.3138  -11.5620  -15.7134 C   0  0  2  0  0  0  0  0  0  0  0  0
  -25.9401  -12.5093  -14.8808 O   0  0  0  0  0  0  0  0  0  0  0  0
  -17.9351  -17.5047  -12.9488 C   0  0  0  0  0  0  0  0  0  0  0  0
  -20.2207  -13.2804  -11.7829 C   0  0  2  0  0  0  0  0  0  0  0  0
  -18.9169  -13.3306  -11.0866 N   0  0  0  0  0  0  0  0  0  0  0  0
  -24.9066  -12.1982  -17.1071 C   0  0  1  0  0  0  0  0  0  0  0  0
  -26.1324  -12.7012  -17.8246 N   0  0  0  0  0  0  0  0  0  0  0  0
  -16.7052  -16.6052  -13.3856 C   0  0  0  0  0  0  0  0  0  0  0  0
  -20.0537  -13.7966  -13.2711 C   0  0  2  0  0  0  0  0  0  0  0  0
  -24.1884  -11.0606  -18.0222 C   0  0  1  0  0  0  0  0  0  0  0  0
  -25.0284   -9.9587  -18.3004 O   0  0  0  0  0  0  0  0  0  0  0  0
  -16.8381  -15.6581  -14.3417 C   0  0  2  0  0  0  0  0  0  0  0  0
  -18.0781  -15.4117  -15.0129 O   0  0  0  0  0  0  0  0  0  0  0  0
  -21.4556  -13.7428  -14.0057 C   0  0  2  0  0  0  0  0  0  0  0  0
  -21.2950  -14.2027  -15.3580 O   0  0  0  0  0  0  0  0  0  0  0  0
  -22.9215  -10.5389  -17.2659 C   0  0  0  0  0  0  0  0  0  0  0  0
  -23.3029  -10.0533  -15.8687 O   0  0  0  0  0  0  0  0  0  0  0  0
  -15.6750  -14.7742  -14.7898 C   0  0  0  0  0  0  0  0  0  0  0  0
  -15.9161  -13.4439  -14.3057 O   0  0  0  0  0  0  0  0  0  0  0  0
  -21.9812  -12.2529  -14.0372 C   0  0  1  0  0  0  0  0  0  0  0  0
  -23.2397  -12.2484  -14.6890 O   0  0  0  0  0  0  0  0  0  0  0  0
  -23.7217  -11.5503  -19.4098 C   0  0  0  0  0  0  0  0  0  0  0  0
  -26.3303  -14.1649  -17.8397 C   0  0  0  0  0  0  0  0  0  0  0  0
  1  2  1  1  0  0  0
  1  6  1  0  0  0  0
  1 21  1  0  0  0  0
  3  4  1  6  0  0  0
  3  8  1  0  0  0  0
  3 28  1  0  0  0  0
  5  9  1  0  0  0  0
  5 25  1  0  0  0  0
  5 29  1  6  0  0  0
  6  7  1  1  0  0  0
  6 11  1  0  0  0  0
  8 12  1  0  0  0  0
  9 10  1  1  0  0  0
  9 14  1  0  0  0  0
 11 16  1  0  0  0  0
 12 13  1  6  0  0  0
 12 17  1  0  0  0  0
 14 15  1  6  0  0  0
 14 18  1  0  0  0  0
 15 31  1  0  0  0  0
 16 20  1  0  0  0  0
 17  2  1  1  0  0  0
 17 22  1  0  0  0  0
 18 19  1  6  0  0  0
 18 24  1  0  0  0  0
 18 30  1  0  0  0  0
 20 21  1  0  0  0  0
 20 26  1  6  0  0  0
 22 23  1  6  0  0  0
 22 28  1  0  0  0  0
 24 25  1  0  0  0  0
 26 27  1  0  0  0  0
 28 29  1  1  0  0  0
M  END
>  <CHROM.1>
-167.77443763,179.48835057,-105.12451865,-178.35535871,-108.96779693,65.04294040
-21.43288543,-13.33143111,-14.80754104,0.01734868,0.65092902,-2.30148108

>  <Name>
ligand

>  <RI>
0

>  <Rbt.Current_Directory>
/home/itssahil/PROJECTS/Mol_Feturizer/New_Systems/rnas/4GPW

>  <Rbt.Executable>
rbdock ($Id: //depot/dev/client3/rdock/2013.1/src/exe/rbdock.cxx#4 $)

>  <Rbt.Library>
libRbt.so (2013.1, Build901 2013/11/27)

>  <Rbt.Parameter_File>
/export/apps/rDock/src/rDock_2013.1_src/data/scripts/dock_solv.prm

>  <Rbt.Receptor>
prm/pocket_docking_5.prm

>  <SCORE>
-13.5733

>  <SCORE.INTER>
-5.99882

>  <SCORE.INTER.CONST>
1

>  <SCORE.INTER.POLAR>
0

>  <SCORE.INTER.ROT>
6

>  <SCORE.INTER.SOLV>
12.514

>  <SCORE.INTER.VDW>
-15.7706

>  <SCORE.INTER.norm>
-0.19351

>  <SCORE.INTRA>
-7.57447

>  <SCORE.INTRA.DIHEDRAL>
-15.5242

>  <SCORE.INTRA.DIHEDRAL.0>
19.2558

>  <SCORE.INTRA.POLAR>
0

>  <SCORE.INTRA.POLAR.0>
0

>  <SCORE.INTRA.REPUL>
0

>  <SCORE.INTRA.REPUL.0>
0

>  <SCORE.INTRA.SOLV>
-2.47767

>  <SCORE.INTRA.SOLV.lig_0>
-64.5929

>  <SCORE.INTRA.VDW>
1.42647

>  <SCORE.INTRA.VDW.0>
-4.40538

>  <SCORE.INTRA.norm>
-0.244338

>  <SCORE.RESTR>
0

>  <SCORE.RESTR.CAVITY>
0

>  <SCORE.RESTR.norm>
0

>  <SCORE.SYSTEM>
0

>  <SCORE.SYSTEM.CONST>
0

>  <SCORE.SYSTEM.DIHEDRAL>
0

>  <SCORE.SYSTEM.SOLV>
0

>  <SCORE.SYSTEM.norm>
0

>  <SCORE.heavy>
31

>  <SCORE.norm>
-0.437848

>  <RMSD>
4.141

$$$$
ligand
 OpenBabel11021811493D
libRbt.so/2013.1/901 2013/11/27
 31 33  0  0  0  0  0  0  0  0999 V2000
  -19.3392  -16.0788  -14.3743 C   0  0  2  0  0  0  0  0  0  0  0  0
  -19.5784  -15.1901  -13.2929 O   0  0  0  0  0  0  0  0  0  0  0  0
  -21.9262  -11.6529  -12.9045 C   0  0  2  0  0  0  0  0  0  0  0  0
  -22.3474  -10.2993  -13.0708 N   0  0  0  0  0  0  0  0  0  0  0  0
  -24.0122  -11.1919  -15.1555 C   0  0  2  0  0  0  0  0  0  0  0  0
  -19.0154  -17.4970  -13.7449 C   0  0  2  0  0  0  0  0  0  0  0  0
  -20.1559  -17.9361  -12.9273 N   0  0  0  0  0  0  0  0  0  0  0  0
  -20.4662  -11.6506  -12.2734 C   0  0  0  0  0  0  0  0  0  0  0  0
  -25.3260  -11.7297  -15.8134 C   0  0  2  0  0  0  0  0  0  0  0  0
  -25.9157  -12.6473  -14.9230 O   0  0  0  0  0  0  0  0  0  0  0  0
  -17.6989  -17.4081  -12.8757 C   0  0  0  0  0  0  0  0  0  0  0  0
  -19.9967  -13.1628  -12.0806 C   0  0  2  0  0  0  0  0  0  0  0  0
  -18.6414  -13.1836  -11.4889 N   0  0  0  0  0  0  0  0  0  0  0  0
  -24.9760  -12.4142  -17.1998 C   0  0  1  0  0  0  0  0  0  0  0  0
  -26.2299  -12.9421  -17.8477 N   0  0  0  0  0  0  0  0  0  0  0  0
  -16.5892  -16.4985  -13.5493 C   0  0  0  0  0  0  0  0  0  0  0  0
  -19.9759  -13.8793  -13.4932 C   0  0  2  0  0  0  0  0  0  0  0  0
  -24.2983  -11.3092  -18.1832 C   0  0  1  0  0  0  0  0  0  0  0  0
  -25.1509  -10.2178  -18.4645 O   0  0  0  0  0  0  0  0  0  0  0  0
  -16.8824  -15.7074  -14.6062 C   0  0  2  0  0  0  0  0  0  0  0  0
  -18.1930  -15.6426  -15.1780 O   0  0  0  0  0  0  0  0  0  0  0  0
  -21.4319  -13.8552  -14.1154 C   0  0  2  0  0  0  0  0  0  0  0  0
  -21.4038  -14.4976  -15.4009 O   0  0  0  0  0  0  0  0  0  0  0  0
  -23.0020  -10.7612  -17.4989 C   0  0  0  0  0  0  0  0  0  0  0  0
  -23.3257  -10.2271  -16.1049 O   0  0  0  0  0  0  0  0  0  0  0  0
  -15.8387  -14.8193  -15.2822 C   0  0  0  0  0  0  0  0  0  0  0  0
  -14.5557  -15.1354  -14.7200 O   0  0  0  0  0  0  0  0  0  0  0  0
  -21.9020  -12.3588  -14.3078 C   0  0  1  0  0  0  0  0  0  0  0  0
  -23.2101  -12.3796  -14.8528 O   0  0  0  0  0  0  0  0  0  0  0  0
  -23.8889  -11.8471  -19.5710 C   0  0  0  0  0  0  0  0  0  0  0  0
  -26.4060  -14.4086  -17.8395 C   0  0  0  0  0  0  0  0  0  0  0  0
  1  2  1  1  0  0  0
  1  6  1  0  0  0  0
  1 21  1  0  0  0  0
  3  4  1  6  0  0  0
  3  8  1  0  0  0  0
  3 28  1  0  0  0  0
  5  9  1  0  0  0  0
  5 25  1  0  0  0  0
  5 29  1  6  0  0  0
  6  7  1  1  0  0  0
  6 11  1  0  0  0  0
  8 12  1  0  0  0  0
  9 10  1  1  0  0  0
  9 14  1  0  0  0  0
 11 16  1  0  0  0  0
 12 13  1  6  0  0  0
 12 17  1  0  0  0  0
 14 15  1  6  0  0  0
 14 18  1  0  0  0  0
 15 31  1  0  0  0  0
 16 20  1  0  0  0  0
 17  2  1  1  0  0  0
 17 22  1  0  0  0  0
 18 19  1  6  0  0  0
 18 24  1  0  0  0  0
 18 30  1  0  0  0  0
 20 21  1  0  0  0  0
 20 26  1  6  0  0  0
 22 23  1  6  0  0  0
 22 28  1  0  0  0  0
 24 25  1  0  0  0  0
 26 27  1  0  0  0  0
 28 29  1  1  0  0  0
M  END
>  <CHROM.1>
-175.77451346,176.59385608,-106.91239445,-174.22616169,7.69688411,60.45723195
-21.35091560,-13.49765260,-14.97296659,0.04542737,0.62153458,-2.33696663

>  <Name>
ligand

>  <RI>
0

>  <Rbt.Current_Directory>
/home/itssahil/PROJECTS/Mol_Feturizer/New_Systems/rnas/4GPW

>  <Rbt.Executable>
rbdock ($Id: //depot/dev/client3/rdock/2013.1/src/exe/rbdock.cxx#4 $)

>  <Rbt.Library>
libRbt.so (2013.1, Build901 2013/11/27)

>  <Rbt.Parameter_File>
/export/apps/rDock/src/rDock_2013.1_src/data/scripts/dock_solv.prm

>  <Rbt.Receptor>
prm/pocket_docking_8.prm

>  <SCORE>
-12.8656

>  <SCORE.INTER>
-6.18755

>  <SCORE.INTER.CONST>
1

>  <SCORE.INTER.POLAR>
0

>  <SCORE.INTER.ROT>
6

>  <SCORE.INTER.SOLV>
12.7213

>  <SCORE.INTER.VDW>
-15.9655

>  <SCORE.INTER.norm>
-0.199599

>  <SCORE.INTRA>
-6.67808

>  <SCORE.INTRA.DIHEDRAL>
-16.1074

>  <SCORE.INTRA.DIHEDRAL.0>
19.2558

>  <SCORE.INTRA.POLAR>
0

>  <SCORE.INTRA.POLAR.0>
0

>  <SCORE.INTRA.REPUL>
0

>  <SCORE.INTRA.REPUL.0>
0

>  <SCORE.INTRA.SOLV>
-2.20505

>  <SCORE.INTRA.SOLV.lig_0>
-64.5929

>  <SCORE.INTRA.VDW>
2.47816

>  <SCORE.INTRA.VDW.0>
-4.40538

>  <SCORE.INTRA.norm>
-0.215422

>  <SCORE.RESTR>
0

>  <SCORE.RESTR.CAVITY>
0

>  <SCORE.RESTR.norm>
0

>  <SCORE.SYSTEM>
0

>  <SCORE.SYSTEM.CONST>
0

>  <SCORE.SYSTEM.DIHEDRAL>
0

>  <SCORE.SYSTEM.SOLV>
0

>  <SCORE.SYSTEM.norm>
0

>  <SCORE.heavy>
31

>  <SCORE.norm>
-0.415021

>  <RMSD>
4.195

$$$$
ligand
 OpenBabel11021811493D
libRbt.so/2013.1/901 2013/11/27
 31 33  0  0  0  0  0  0  0  0999 V2000
  -19.5490  -17.0909  -15.1856 C   0  0  2  0  0  0  0  0  0  0  0  0
  -20.3086  -16.0866  -14.5292 O   0  0  0  0  0  0  0  0  0  0  0  0
  -20.1051  -12.1287  -12.9580 C   0  0  2  0  0  0  0  0  0  0  0  0
  -19.5932  -10.8301  -12.6599 N   0  0  0  0  0  0  0  0  0  0  0  0
  -20.9230  -10.4879  -16.1936 C   0  0  2  0  0  0  0  0  0  0  0  0
  -20.5649  -18.2238  -15.6291 C   0  0  2  0  0  0  0  0  0  0  0  0
  -21.5784  -17.6432  -16.5222 N   0  0  0  0  0  0  0  0  0  0  0  0
  -19.0935  -13.2120  -12.3808 C   0  0  0  0  0  0  0  0  0  0  0  0
  -22.0746   -9.4288  -16.1739 C   0  0  2  0  0  0  0  0  0  0  0  0
  -22.0361   -8.7659  -14.9322 O   0  0  0  0  0  0  0  0  0  0  0  0
  -21.2390  -18.8668  -14.3529 C   0  0  0  0  0  0  0  0  0  0  0  0
  -19.6677  -14.6639  -12.7072 C   0  0  2  0  0  0  0  0  0  0  0  0
  -18.7435  -15.6879  -12.1735 N   0  0  0  0  0  0  0  0  0  0  0  0
  -23.4636  -10.1602  -16.3949 C   0  0  1  0  0  0  0  0  0  0  0  0
  -24.5866   -9.1556  -16.3755 N   0  0  0  0  0  0  0  0  0  0  0  0
  -20.2146  -19.0572  -13.1584 C   0  0  0  0  0  0  0  0  0  0  0  0
  -19.7970  -14.8251  -14.2777 C   0  0  2  0  0  0  0  0  0  0  0  0
  -23.4480  -10.9071  -17.8403 C   0  0  1  0  0  0  0  0  0  0  0  0
  -23.2721  -10.0175  -18.9242 O   0  0  0  0  0  0  0  0  0  0  0  0
  -18.9919  -18.4805  -13.1890 C   0  0  2  0  0  0  0  0  0  0  0  0
  -18.5490  -17.6748  -14.2861 O   0  0  0  0  0  0  0  0  0  0  0  0
  -20.7915  -13.7274  -14.8378 C   0  0  2  0  0  0  0  0  0  0  0  0
  -20.8963  -13.8728  -16.2639 O   0  0  0  0  0  0  0  0  0  0  0  0
  -22.2743  -11.9422  -17.8540 C   0  0  0  0  0  0  0  0  0  0  0  0
  -20.9571  -11.2522  -17.5045 O   0  0  0  0  0  0  0  0  0  0  0  0
  -17.9779  -18.6437  -12.0576 C   0  0  0  0  0  0  0  0  0  0  0  0
  -16.8696  -19.4054  -12.5612 O   0  0  0  0  0  0  0  0  0  0  0  0
  -20.2273  -12.2868  -14.5163 C   0  0  1  0  0  0  0  0  0  0  0  0
  -21.1488  -11.3353  -15.0204 O   0  0  0  0  0  0  0  0  0  0  0  0
  -24.7409  -11.6790  -18.1804 C   0  0  0  0  0  0  0  0  0  0  0  0
  -25.1832   -8.8630  -15.0564 C   0  0  0  0  0  0  0  0  0  0  0  0
  1  2  1  1  0  0  0
  1  6  1  0  0  0  0
  1 21  1  0  0  0  0
  3  4  1  6  0  0  0
  3  8  1  0  0  0  0
  3 28  1  0  0  0  0
  5  9  1  0  0  0  0
  5 25  1  0  0  0  0
  5 29  1  1  0  0  0
  6  7  1  6  0  0  0
  6 11  1  0  0  0  0
  8 12  1  0  0  0  0
  9 10  1  1  0  0  0
  9 14  1  0  0  0  0
 11 16  1  0  0  0  0
 12 13  1  6  0  0  0
 12 17  1  0  0  0  0
 14 15  1  6  0  0  0
 14 18  1  0  0  0  0
 15 31  1  0  0  0  0
 16 20  1  0  0  0  0
 17  2  1  1  0  0  0
 17 22  1  0  0  0  0
 18 19  1  6  0  0  0
 18 24  1  0  0  0  0
 18 30  1  0  0  0  0
 20 21  1  0  0  0  0
 20 26  1  6  0  0  0
 22 23  1  6  0  0  0
 22 28  1  0  0  0  0
 24 25  1  0  0  0  0
 26 27  1  0  0  0  0
 28 29  1  1  0  0  0
M  END
>  <CHROM.1>
-165.30688784,-168.94268773,-88.99243678,-113.78367281,113.00485441,133.54768221
-20.93213459,-13.74430527,-15.00961071,0.82255698,0.89867120,-2.88544106

>  <Name>
ligand

>  <RI>
0

>  <Rbt.Current_Directory>
/home/itssahil/PROJECTS/Mol_Feturizer/New_Systems/rnas/4GPW

>  <Rbt.Executable>
rbdock ($Id: //depot/dev/client3/rdock/2013.1/src/exe/rbdock.cxx#4 $)

>  <Rbt.Library>
libRbt.so (2013.1, Build901 2013/11/27)

>  <Rbt.Parameter_File>
/export/apps/rDock/src/rDock_2013.1_src/data/scripts/dock_solv.prm

>  <Rbt.Receptor>
prm/pocket_docking_4.prm

>  <SCORE>
-3.77863

>  <SCORE.INTER>
-3.58457

>  <SCORE.INTER.CONST>
1

>  <SCORE.INTER.POLAR>
0

>  <SCORE.INTER.ROT>
6

>  <SCORE.INTER.SOLV>
12.1888

>  <SCORE.INTER.VDW>
-14.0527

>  <SCORE.INTER.norm>
-0.115631

>  <SCORE.INTRA>
-0.194055

>  <SCORE.INTRA.DIHEDRAL>
-2.00869

>  <SCORE.INTRA.DIHEDRAL.0>
19.2558

>  <SCORE.INTRA.POLAR>
0

>  <SCORE.INTRA.POLAR.0>
0

>  <SCORE.INTRA.REPUL>
0

>  <SCORE.INTRA.REPUL.0>
0

>  <SCORE.INTRA.SOLV>
0.839346

>  <SCORE.INTRA.SOLV.lig_0>
-64.5929

>  <SCORE.INTRA.VDW>
0.390618

>  <SCORE.INTRA.VDW.0>
-4.40538

>  <SCORE.INTRA.norm>
-0.00625984

>  <SCORE.RESTR>
0

>  <SCORE.RESTR.CAVITY>
0

>  <SCORE.RESTR.norm>
0

>  <SCORE.SYSTEM>
0

>  <SCORE.SYSTEM.CONST>
0

>  <SCORE.SYSTEM.DIHEDRAL>
0

>  <SCORE.SYSTEM.SOLV>
0

>  <SCORE.SYSTEM.norm>
0

>  <SCORE.heavy>
31

>  <SCORE.norm>
-0.121891

>  <RMSD>
4.211

$$$$
ligand
 OpenBabel11021811493D
libRbt.so/2013.1/901 2013/11/27
 31 33  0  0  0  0  0  0  0  0999 V2000
  -20.4559  -15.8050  -13.3453 C   0  0  2  0  0  0  0  0  0  0  0  0
  -19.2885  -15.5226  -14.1029 O   0  0  0  0  0  0  0  0  0  0  0  0
  -18.6790  -12.7673  -17.2985 C   0  0  2  0  0  0  0  0  0  0  0  0
  -18.7058  -12.2137  -18.6138 N   0  0  0  0  0  0  0  0  0  0  0  0
  -21.1172  -10.8883  -17.8840 C   0  0  2  0  0  0  0  0  0  0  0  0
  -19.9732  -16.3395  -11.9334 C   0  0  2  0  0  0  0  0  0  0  0  0
  -19.1437  -15.3135  -11.2846 N   0  0  0  0  0  0  0  0  0  0  0  0
  -17.9031  -14.1548  -17.3533 C   0  0  0  0  0  0  0  0  0  0  0  0
  -22.1286   -9.8168  -17.3578 C   0  0  2  0  0  0  0  0  0  0  0  0
  -21.5474   -9.1774  -16.2460 O   0  0  0  0  0  0  0  0  0  0  0  0
  -19.1650  -17.6845  -12.1188 C   0  0  0  0  0  0  0  0  0  0  0  0
  -17.8663  -14.7715  -15.8828 C   0  0  2  0  0  0  0  0  0  0  0  0
  -17.1435  -16.0615  -15.9102 N   0  0  0  0  0  0  0  0  0  0  0  0
  -23.4906  -10.5282  -16.9676 C   0  0  1  0  0  0  0  0  0  0  0  0
  -24.4774   -9.5115  -16.4546 N   0  0  0  0  0  0  0  0  0  0  0  0
  -19.8075  -18.6303  -13.2166 C   0  0  0  0  0  0  0  0  0  0  0  0
  -19.3521  -15.0003  -15.3834 C   0  0  2  0  0  0  0  0  0  0  0  0
  -24.1122  -11.2484  -18.2875 C   0  0  1  0  0  0  0  0  0  0  0  0
  -24.4039  -10.3409  -19.3309 O   0  0  0  0  0  0  0  0  0  0  0  0
  -20.7733  -18.1784  -14.0483 C   0  0  2  0  0  0  0  0  0  0  0  0
  -21.2722  -16.8380  -13.9908 O   0  0  0  0  0  0  0  0  0  0  0  0
  -20.1153  -13.6130  -15.3537 C   0  0  2  0  0  0  0  0  0  0  0  0
  -21.4651  -13.8292  -14.9096 O   0  0  0  0  0  0  0  0  0  0  0  0
  -23.0778  -12.2963  -18.8176 C   0  0  0  0  0  0  0  0  0  0  0  0
  -21.7261  -11.6278  -19.0613 O   0  0  0  0  0  0  0  0  0  0  0  0
  -21.4170  -19.0613  -15.1165 C   0  0  0  0  0  0  0  0  0  0  0  0
  -22.8425  -18.9403  -14.9926 O   0  0  0  0  0  0  0  0  0  0  0  0
  -20.1539  -12.9974  -16.8085 C   0  0  1  0  0  0  0  0  0  0  0  0
  -20.8313  -11.7546  -16.7380 O   0  0  0  0  0  0  0  0  0  0  0  0
  -25.4393  -11.9992  -18.0467 C   0  0  0  0  0  0  0  0  0  0  0  0
  -24.7878   -9.5676  -15.0116 C   0  0  0  0  0  0  0  0  0  0  0  0
  1  2  1  6  0  0  0
  1  6  1  0  0  0  0
  1 21  1  0  0  0  0
  3  4  1  6  0  0  0
  3  8  1  0  0  0  0
  3 28  1  0  0  0  0
  5  9  1  0  0  0  0
  5 25  1  0  0  0  0
  5 29  1  1  0  0  0
  6  7  1  6  0  0  0
  6 11  1  0  0  0  0
  8 12  1  0  0  0  0
  9 10  1  1  0  0  0
  9 14  1  0  0  0  0
 11 16  1  0  0  0  0
 12 13  1  6  0  0  0
 12 17  1  0  0  0  0
 14 15  1  6  0  0  0
 14 18  1  0  0  0  0
 15 31  1  0  0  0  0
 16 20  1  0  0  0  0
 17  2  1  1  0  0  0
 17 22  1  0  0  0  0
 18 19  1  6  0  0  0
 18 24  1  0  0  0  0
 18 30  1  0  0  0  0
 20 21  1  0  0  0  0
 20 26  1  1  0  0  0
 22 23  1  6  0  0  0
 22 28  1  0  0  0  0
 24 25  1  0  0  0  0
 26 27  1  0  0  0  0
 28 29  1  1  0  0  0
M  END
>  <CHROM.1>
-178.22810392,168.14400849,-109.82102130,177.94866691,130.22563154,63.87850863
-21.09781656,-13.74767593,-15.87483556,1.16779011,-0.12234112,2.55188366

>  <Name>
ligand

>  <RI>
0

>  <Rbt.Current_Directory>
/home/itssahil/PROJECTS/Mol_Feturizer/New_Systems/rnas/4GPW

>  <Rbt.Executable>
rbdock ($Id: //depot/dev/client3/rdock/2013.1/src/exe/rbdock.cxx#4 $)

>  <Rbt.Library>
libRbt.so (2013.1, Build901 2013/11/27)

>  <Rbt.Parameter_File>
/export/apps/rDock/src/rDock_2013.1_src/data/scripts/dock_solv.prm

>  <Rbt.Receptor>
prm/pocket_docking_6.prm

>  <SCORE>
-12.5133

>  <SCORE.INTER>
-5.27381

>  <SCORE.INTER.CONST>
1

>  <SCORE.INTER.POLAR>
0

>  <SCORE.INTER.ROT>
6

>  <SCORE.INTER.SOLV>
12.8817

>  <SCORE.INTER.VDW>
-15.4098

>  <SCORE.INTER.norm>
-0.170123

>  <SCORE.INTRA>
-7.23946

>  <SCORE.INTRA.DIHEDRAL>
-15.5251

>  <SCORE.INTRA.DIHEDRAL.0>
19.2558

>  <SCORE.INTRA.POLAR>
0

>  <SCORE.INTRA.POLAR.0>
0

>  <SCORE.INTRA.REPUL>
0

>  <SCORE.INTRA.REPUL.0>
0

>  <SCORE.INTRA.SOLV>
-2.38874

>  <SCORE.INTRA.SOLV.lig_0>
-64.5929

>  <SCORE.INTRA.VDW>
1.71748

>  <SCORE.INTRA.VDW.0>
-4.40538

>  <SCORE.INTRA.norm>
-0.233531

>  <SCORE.RESTR>
0

>  <SCORE.RESTR.CAVITY>
0

>  <SCORE.RESTR.norm>
0

>  <SCORE.SYSTEM>
0

>  <SCORE.SYSTEM.CONST>
0

>  <SCORE.SYSTEM.DIHEDRAL>
0

>  <SCORE.SYSTEM.SOLV>
0

>  <SCORE.SYSTEM.norm>
0

>  <SCORE.heavy>
31

>  <SCORE.norm>
-0.403654

>  <RMSD>
4.250

$$$$
ligand
 OpenBabel11021811493D
libRbt.so/2013.1/901 2013/11/27
 31 33  0  0  0  0  0  0  0  0999 V2000
  -19.4660  -16.2971  -14.4678 C   0  0  2  0  0  0  0  0  0  0  0  0
  -19.8805  -15.5099  -13.3609 O   0  0  0  0  0  0  0  0  0  0  0  0
  -21.5872  -11.6148  -13.0613 C   0  0  2  0  0  0  0  0  0  0  0  0
  -21.6930  -10.1918  -13.0977 N   0  0  0  0  0  0  0  0  0  0  0  0
  -22.5881  -10.4498  -15.8403 C   0  0  2  0  0  0  0  0  0  0  0  0
  -19.3260  -17.7881  -13.9486 C   0  0  2  0  0  0  0  0  0  0  0  0
  -20.6209  -18.2404  -13.4191 N   0  0  0  0  0  0  0  0  0  0  0  0
  -20.4410  -12.0069  -12.0305 C   0  0  0  0  0  0  0  0  0  0  0  0
  -23.4915  -10.6249  -17.1058 C   0  0  2  0  0  0  0  0  0  0  0  0
  -24.5896  -11.4311  -16.7495 O   0  0  0  0  0  0  0  0  0  0  0  0
  -18.2044  -17.8644  -12.8382 C   0  0  0  0  0  0  0  0  0  0  0  0
  -20.3261  -13.5971  -11.9835 C   0  0  2  0  0  0  0  0  0  0  0  0
  -19.2679  -13.9840  -11.0254 N   0  0  0  0  0  0  0  0  0  0  0  0
  -22.6421  -11.2875  -18.2688 C   0  0  1  0  0  0  0  0  0  0  0  0
  -23.4972  -11.4677  -19.4964 N   0  0  0  0  0  0  0  0  0  0  0  0
  -16.9505  -16.9575  -13.1812 C   0  0  0  0  0  0  0  0  0  0  0  0
  -19.9603  -14.1296  -13.4298 C   0  0  2  0  0  0  0  0  0  0  0  0
  -21.3905  -10.3145  -18.6350 C   0  0  1  0  0  0  0  0  0  0  0  0
  -21.7928   -9.0391  -19.0919 O   0  0  0  0  0  0  0  0  0  0  0  0
  -16.9996  -16.0479  -14.1806 C   0  0  2  0  0  0  0  0  0  0  0  0
  -18.1683  -15.8494  -14.9829 O   0  0  0  0  0  0  0  0  0  0  0  0
  -21.1013  -13.7138  -14.4463 C   0  0  2  0  0  0  0  0  0  0  0  0
  -20.7583  -14.1911  -15.7580 O   0  0  0  0  0  0  0  0  0  0  0  0
  -20.5130  -10.1269  -17.3528 C   0  0  0  0  0  0  0  0  0  0  0  0
  -21.3701   -9.6168  -16.1959 O   0  0  0  0  0  0  0  0  0  0  0  0
  -15.8106  -15.1583  -14.5410 C   0  0  0  0  0  0  0  0  0  0  0  0
  -15.3830  -15.5047  -15.8674 O   0  0  0  0  0  0  0  0  0  0  0  0
  -21.2195  -12.1388  -14.4960 C   0  0  1  0  0  0  0  0  0  0  0  0
  -22.2564  -11.8080  -15.4037 O   0  0  0  0  0  0  0  0  0  0  0  0
  -20.4636  -10.8486  -19.7479 C   0  0  0  0  0  0  0  0  0  0  0  0
  -24.0266  -12.8259  -19.7345 C   0  0  0  0  0  0  0  0  0  0  0  0
  1  2  1  1  0  0  0
  1  6  1  0  0  0  0
  1 21  1  0  0  0  0
  3  4  1  6  0  0  0
  3  8  1  0  0  0  0
  3 28  1  0  0  0  0
  5  9  1  0  0  0  0
  5 25  1  0  0  0  0
  5 29  1  6  0  0  0
  6  7  1  1  0  0  0
  6 11  1  0  0  0  0
  8 12  1  0  0  0  0
  9 10  1  1  0  0  0
  9 14  1  0  0  0  0
 11 16  1  0  0  0  0
 12 13  1  1  0  0  0
 12 17  1  0  0  0  0
 14 15  1  6  0  0  0
 14 18  1  0  0  0  0
 15 31  1  0  0  0  0
 16 20  1  0  0  0  0
 17  2  1  1  0  0  0
 17 22  1  0  0  0  0
 18 19  1  6  0  0  0
 18 24  1  0  0  0  0
 18 30  1  0  0  0  0
 20 21  1  0  0  0  0
 20 26  1  6  0  0  0
 22 23  1  6  0  0  0
 22 28  1  0  0  0  0
 24 25  1  0  0  0  0
 26 27  1  0  0  0  0
 28 29  1  6  0  0  0
M  END
>  <CHROM.1>
172.91660207,164.47108922,-100.81304136,-174.97709375,115.35026456,68.52767692
-20.50644335,-13.23486103,-15.32605555,-0.65230389,0.85349051,-1.43736416

>  <Name>
ligand

>  <RI>
0

>  <Rbt.Current_Directory>
/home/itssahil/PROJECTS/Mol_Feturizer/New_Systems/rnas/4GPW

>  <Rbt.Executable>
rbdock ($Id: //depot/dev/client3/rdock/2013.1/src/exe/rbdock.cxx#4 $)

>  <Rbt.Library>
libRbt.so (2013.1, Build901 2013/11/27)

>  <Rbt.Parameter_File>
/export/apps/rDock/src/rDock_2013.1_src/data/scripts/dock_solv.prm

>  <Rbt.Receptor>
prm/pocket_docking_8.prm

>  <SCORE>
-9.14263

>  <SCORE.INTER>
-1.83833

>  <SCORE.INTER.CONST>
1

>  <SCORE.INTER.POLAR>
0

>  <SCORE.INTER.ROT>
6

>  <SCORE.INTER.SOLV>
10.3142

>  <SCORE.INTER.VDW>
-12.2636

>  <SCORE.INTER.norm>
-0.0593009

>  <SCORE.INTRA>
-7.3043

>  <SCORE.INTRA.DIHEDRAL>
-14.7608

>  <SCORE.INTRA.DIHEDRAL.0>
19.2558

>  <SCORE.INTRA.POLAR>
0

>  <SCORE.INTRA.POLAR.0>
0

>  <SCORE.INTRA.REPUL>
0

>  <SCORE.INTRA.REPUL.0>
0

>  <SCORE.INTRA.SOLV>
-2.1414

>  <SCORE.INTRA.SOLV.lig_0>
-64.5929

>  <SCORE.INTRA.VDW>
1.1468

>  <SCORE.INTRA.VDW.0>
-4.40538

>  <SCORE.INTRA.norm>
-0.235623

>  <SCORE.RESTR>
0

>  <SCORE.RESTR.CAVITY>
0

>  <SCORE.RESTR.norm>
0

>  <SCORE.SYSTEM>
0

>  <SCORE.SYSTEM.CONST>
0

>  <SCORE.SYSTEM.DIHEDRAL>
0

>  <SCORE.SYSTEM.SOLV>
0

>  <SCORE.SYSTEM.norm>
0

>  <SCORE.heavy>
31

>  <SCORE.norm>
-0.294924

>  <RMSD>
4.279

$$$$
ligand
 OpenBabel11021811493D
libRbt.so/2013.1/901 2013/11/27
 31 33  0  0  0  0  0  0  0  0999 V2000
  -22.9930  -16.1891  -14.5881 C   0  0  2  0  0  0  0  0  0  0  0  0
  -22.7754  -15.8004  -15.9365 O   0  0  0  0  0  0  0  0  0  0  0  0
  -23.8706  -12.2874  -18.0892 C   0  0  2  0  0  0  0  0  0  0  0  0
  -24.6819  -11.3369  -18.7789 N   0  0  0  0  0  0  0  0  0  0  0  0
  -25.0323  -10.7662  -14.7762 C   0  0  2  0  0  0  0  0  0  0  0  0
  -21.6228  -16.7755  -14.0487 C   0  0  2  0  0  0  0  0  0  0  0  0
  -20.5803  -15.7438  -14.1516 N   0  0  0  0  0  0  0  0  0  0  0  0
  -23.9908  -13.6864  -18.8363 C   0  0  0  0  0  0  0  0  0  0  0  0
  -24.6961   -9.2532  -14.5618 C   0  0  2  0  0  0  0  0  0  0  0  0
  -24.9857   -8.5684  -15.7576 O   0  0  0  0  0  0  0  0  0  0  0  0
  -21.2282  -18.0613  -14.8779 C   0  0  0  0  0  0  0  0  0  0  0  0
  -23.0793  -14.7481  -18.0707 C   0  0  2  0  0  0  0  0  0  0  0  0
  -23.1725  -16.0568  -18.7533 N   0  0  0  0  0  0  0  0  0  0  0  0
  -23.1674   -9.1064  -14.1684 C   0  0  1  0  0  0  0  0  0  0  0  0
  -22.8233   -7.6541  -13.9610 N   0  0  0  0  0  0  0  0  0  0  0  0
  -22.4795  -18.9772  -15.2063 C   0  0  0  0  0  0  0  0  0  0  0  0
  -23.5915  -14.8845  -16.5780 C   0  0  2  0  0  0  0  0  0  0  0  0
  -22.8935   -9.9169  -12.7845 C   0  0  1  0  0  0  0  0  0  0  0  0
  -23.6496   -9.4285  -11.6949 O   0  0  0  0  0  0  0  0  0  0  0  0
  -23.7411  -18.5326  -15.0076 C   0  0  2  0  0  0  0  0  0  0  0  0
  -24.0243  -17.2271  -14.4934 O   0  0  0  0  0  0  0  0  0  0  0  0
  -23.4834  -13.4795  -15.8555 C   0  0  2  0  0  0  0  0  0  0  0  0
  -23.9591  -13.6081  -14.5053 O   0  0  0  0  0  0  0  0  0  0  0  0
  -23.2610  -11.4218  -13.0069 C   0  0  0  0  0  0  0  0  0  0  0  0
  -24.6951  -11.5456  -13.5182 O   0  0  0  0  0  0  0  0  0  0  0  0
  -24.9708  -19.3876  -15.3105 C   0  0  0  0  0  0  0  0  0  0  0  0
  -25.7541  -18.7035  -16.3008 O   0  0  0  0  0  0  0  0  0  0  0  0
  -24.3845  -12.4238  -16.6108 C   0  0  1  0  0  0  0  0  0  0  0  0
  -24.2510  -11.1804  -15.9439 O   0  0  0  0  0  0  0  0  0  0  0  0
  -21.4316   -9.8726  -12.2906 C   0  0  0  0  0  0  0  0  0  0  0  0
  -22.1197   -6.9808  -15.0716 C   0  0  0  0  0  0  0  0  0  0  0  0
  1  2  1  6  0  0  0
  1  6  1  0  0  0  0
  1 21  1  0  0  0  0
  3  4  1  6  0  0  0
  3  8  1  0  0  0  0
  3 28  1  0  0  0  0
  5  9  1  0  0  0  0
  5 25  1  0  0  0  0
  5 29  1  6  0  0  0
  6  7  1  6  0  0  0
  6 11  1  0  0  0  0
  8 12  1  0  0  0  0
  9 10  1  6  0  0  0
  9 14  1  0  0  0  0
 11 16  1  0  0  0  0
 12 13  1  6  0  0  0
 12 17  1  0  0  0  0
 14 15  1  1  0  0  0
 14 18  1  0  0  0  0
 15 31  1  0  0  0  0
 16 20  1  0  0  0  0
 17  2  1  1  0  0  0
 17 22  1  0  0  0  0
 18 19  1  1  0  0  0
 18 24  1  0  0  0  0
 18 30  1  0  0  0  0
 20 21  1  0  0  0  0
 20 26  1  1  0  0  0
 22 23  1  1  0  0  0
 22 28  1  0  0  0  0
 24 25  1  0  0  0  0
 26 27  1  0  0  0  0
 28 29  1  1  0  0  0
M  END
>  <CHROM.1>
-159.07735410,-170.82859317,-101.11571305,-177.78677154,-119.75329795,156.44898051
-23.48423982,-13.32846519,-15.25111428,-1.53742269,-1.20918478,0.19907602

>  <Name>
ligand

>  <RI>
0

>  <Rbt.Current_Directory>
/home/itssahil/PROJECTS/Mol_Feturizer/New_Systems/rnas/4GPW

>  <Rbt.Executable>
rbdock ($Id: //depot/dev/client3/rdock/2013.1/src/exe/rbdock.cxx#4 $)

>  <Rbt.Library>
libRbt.so (2013.1, Build901 2013/11/27)

>  <Rbt.Parameter_File>
/export/apps/rDock/src/rDock_2013.1_src/data/scripts/dock_solv.prm

>  <Rbt.Receptor>
prm/pocket_docking_5.prm

>  <SCORE>
-10.8272

>  <SCORE.INTER>
-6.20317

>  <SCORE.INTER.CONST>
1

>  <SCORE.INTER.POLAR>
0

>  <SCORE.INTER.ROT>
6

>  <SCORE.INTER.SOLV>
13.5032

>  <SCORE.INTER.VDW>
-16.2365

>  <SCORE.INTER.norm>
-0.200102

>  <SCORE.INTRA>
-4.62403

>  <SCORE.INTRA.DIHEDRAL>
-11.8449

>  <SCORE.INTRA.DIHEDRAL.0>
19.2558

>  <SCORE.INTRA.POLAR>
0

>  <SCORE.INTRA.POLAR.0>
0

>  <SCORE.INTRA.REPUL>
0

>  <SCORE.INTRA.REPUL.0>
0

>  <SCORE.INTRA.SOLV>
-2.92442

>  <SCORE.INTRA.SOLV.lig_0>
-64.5929

>  <SCORE.INTRA.VDW>
2.76065

>  <SCORE.INTRA.VDW.0>
-4.40538

>  <SCORE.INTRA.norm>
-0.149162

>  <SCORE.RESTR>
0

>  <SCORE.RESTR.CAVITY>
0

>  <SCORE.RESTR.norm>
0

>  <SCORE.SYSTEM>
0

>  <SCORE.SYSTEM.CONST>
0

>  <SCORE.SYSTEM.DIHEDRAL>
0

>  <SCORE.SYSTEM.SOLV>
0

>  <SCORE.SYSTEM.norm>
0

>  <SCORE.heavy>
31

>  <SCORE.norm>
-0.349264

>  <RMSD>
4.315

$$$$
ligand
 OpenBabel11021811493D
libRbt.so/2013.1/901 2013/11/27
 31 33  0  0  0  0  0  0  0  0999 V2000
  -18.2498  -15.0028  -14.0642 C   0  0  2  0  0  0  0  0  0  0  0  0
  -18.4773  -15.5455  -15.3566 O   0  0  0  0  0  0  0  0  0  0  0  0
  -18.6564  -12.0016  -17.7194 C   0  0  2  0  0  0  0  0  0  0  0  0
  -18.8676  -11.1521  -18.8469 N   0  0  0  0  0  0  0  0  0  0  0  0
  -21.4852  -10.6564  -17.8397 C   0  0  2  0  0  0  0  0  0  0  0  0
  -16.8496  -15.5569  -13.5695 C   0  0  2  0  0  0  0  0  0  0  0  0
  -15.8039  -15.1478  -14.5186 N   0  0  0  0  0  0  0  0  0  0  0  0
  -17.5872  -13.1095  -18.1187 C   0  0  0  0  0  0  0  0  0  0  0  0
  -22.5155   -9.8531  -16.9788 C   0  0  2  0  0  0  0  0  0  0  0  0
  -21.8516   -9.3845  -15.8289 O   0  0  0  0  0  0  0  0  0  0  0  0
  -16.9122  -17.1306  -13.4424 C   0  0  0  0  0  0  0  0  0  0  0  0
  -17.3450  -14.0556  -16.8575 C   0  0  2  0  0  0  0  0  0  0  0  0
  -16.3485  -15.0914  -17.2060 N   0  0  0  0  0  0  0  0  0  0  0  0
  -23.7309  -10.7975  -16.5990 C   0  0  1  0  0  0  0  0  0  0  0  0
  -24.7333  -10.0416  -15.7658 N   0  0  0  0  0  0  0  0  0  0  0  0
  -18.2907  -17.6352  -12.8444 C   0  0  0  0  0  0  0  0  0  0  0  0
  -18.7155  -14.7429  -16.4591 C   0  0  2  0  0  0  0  0  0  0  0  0
  -24.4557  -11.3073  -17.9636 C   0  0  1  0  0  0  0  0  0  0  0  0
  -24.9803  -10.2512  -18.7426 O   0  0  0  0  0  0  0  0  0  0  0  0
  -19.3467  -16.7992  -12.7235 C   0  0  2  0  0  0  0  0  0  0  0  0
  -19.2887  -15.4248  -13.1194 O   0  0  0  0  0  0  0  0  0  0  0  0
  -19.7733  -13.6257  -16.0839 C   0  0  2  0  0  0  0  0  0  0  0  0
  -21.0169  -14.2555  -15.7334 O   0  0  0  0  0  0  0  0  0  0  0  0
  -23.4056  -12.0839  -18.8258 C   0  0  0  0  0  0  0  0  0  0  0  0
  -22.1755  -11.2123  -19.0719 O   0  0  0  0  0  0  0  0  0  0  0  0
  -20.6896  -17.2493  -12.1500 C   0  0  0  0  0  0  0  0  0  0  0  0
  -20.5273  -18.5781  -11.6302 O   0  0  0  0  0  0  0  0  0  0  0  0
  -20.0163  -12.6852  -17.3303 C   0  0  1  0  0  0  0  0  0  0  0  0
  -20.9560  -11.6941  -16.9517 O   0  0  0  0  0  0  0  0  0  0  0  0
  -25.6537  -12.2550  -17.7412 C   0  0  0  0  0  0  0  0  0  0  0  0
  -24.7220  -10.3170  -14.3146 C   0  0  0  0  0  0  0  0  0  0  0  0
  1  2  1  6  0  0  0
  1  6  1  0  0  0  0
  1 21  1  0  0  0  0
  3  4  1  6  0  0  0
  3  8  1  0  0  0  0
  3 28  1  0  0  0  0
  5  9  1  0  0  0  0
  5 25  1  0  0  0  0
  5 29  1  1  0  0  0
  6  7  1  6  0  0  0
  6 11  1  0  0  0  0
  8 12  1  0  0  0  0
  9 10  1  1  0  0  0
  9 14  1  0  0  0  0
 11 16  1  0  0  0  0
 12 13  1  6  0  0  0
 12 17  1  0  0  0  0
 14 15  1  1  0  0  0
 14 18  1  0  0  0  0
 15 31  1  0  0  0  0
 16 20  1  0  0  0  0
 17  2  1  1  0  0  0
 17 22  1  0  0  0  0
 18 19  1  6  0  0  0
 18 24  1  0  0  0  0
 18 30  1  0  0  0  0
 20 21  1  0  0  0  0
 20 26  1  1  0  0  0
 22 23  1  6  0  0  0
 22 28  1  0  0  0  0
 24 25  1  0  0  0  0
 26 27  1  0  0  0  0
 28 29  1  1  0  0  0
M  END
>  <CHROM.1>
-123.57668527,177.93834562,-102.89824916,72.98948198,7.92896492,64.01888708
-20.48139948,-13.37575137,-15.93231279,0.86132179,-0.30666930,2.30939492

>  <Name>
ligand

>  <RI>
0

>  <Rbt.Current_Directory>
/home/itssahil/PROJECTS/Mol_Feturizer/New_Systems/rnas/4GPW

>  <Rbt.Executable>
rbdock ($Id: //depot/dev/client3/rdock/2013.1/src/exe/rbdock.cxx#4 $)

>  <Rbt.Library>
libRbt.so (2013.1, Build901 2013/11/27)

>  <Rbt.Parameter_File>
/export/apps/rDock/src/rDock_2013.1_src/data/scripts/dock_solv.prm

>  <Rbt.Receptor>
prm/pocket_docking_8.prm

>  <SCORE>
-7.33275

>  <SCORE.INTER>
-6.58004

>  <SCORE.INTER.CONST>
1

>  <SCORE.INTER.POLAR>
0

>  <SCORE.INTER.ROT>
6

>  <SCORE.INTER.SOLV>
9.12898

>  <SCORE.INTER.VDW>
-15.0297

>  <SCORE.INTER.norm>
-0.212259

>  <SCORE.INTRA>
-0.752701

>  <SCORE.INTRA.DIHEDRAL>
-8.47238

>  <SCORE.INTRA.DIHEDRAL.0>
19.2558

>  <SCORE.INTRA.POLAR>
0

>  <SCORE.INTRA.POLAR.0>
0

>  <SCORE.INTRA.REPUL>
0

>  <SCORE.INTRA.REPUL.0>
0

>  <SCORE.INTRA.SOLV>
1.70797

>  <SCORE.INTRA.SOLV.lig_0>
-64.5929

>  <SCORE.INTRA.VDW>
2.6295

>  <SCORE.INTRA.VDW.0>
-4.40538

>  <SCORE.INTRA.norm>
-0.0242807

>  <SCORE.RESTR>
0

>  <SCORE.RESTR.CAVITY>
0

>  <SCORE.RESTR.norm>
0

>  <SCORE.SYSTEM>
0

>  <SCORE.SYSTEM.CONST>
0

>  <SCORE.SYSTEM.DIHEDRAL>
0

>  <SCORE.SYSTEM.SOLV>
0

>  <SCORE.SYSTEM.norm>
0

>  <SCORE.heavy>
31

>  <SCORE.norm>
-0.23654

>  <RMSD>
4.332

$$$$
ligand
 OpenBabel11021811493D
libRbt.so/2013.1/901 2013/11/27
 31 33  0  0  0  0  0  0  0  0999 V2000
  -16.9833  -14.8130  -17.0530 C   0  0  2  0  0  0  0  0  0  0  0  0
  -17.7228  -15.8756  -16.4694 O   0  0  0  0  0  0  0  0  0  0  0  0
  -21.8784  -16.5025  -15.7534 C   0  0  2  0  0  0  0  0  0  0  0  0
  -23.1795  -16.3444  -15.1881 N   0  0  0  0  0  0  0  0  0  0  0  0
  -23.7933  -14.6600  -17.3552 C   0  0  2  0  0  0  0  0  0  0  0  0
  -15.6287  -15.4340  -17.5931 C   0  0  2  0  0  0  0  0  0  0  0  0
  -15.9348  -16.4829  -18.5769 N   0  0  0  0  0  0  0  0  0  0  0  0
  -20.8603  -16.8491  -14.5816 C   0  0  0  0  0  0  0  0  0  0  0  0
  -24.3452  -14.4564  -18.8051 C   0  0  2  0  0  0  0  0  0  0  0  0
  -23.9761  -15.5771  -19.5736 O   0  0  0  0  0  0  0  0  0  0  0  0
  -14.7904  -16.0181  -16.3878 C   0  0  0  0  0  0  0  0  0  0  0  0
  -19.4070  -17.0328  -15.2127 C   0  0  2  0  0  0  0  0  0  0  0  0
  -18.4443  -17.3613  -14.1391 N   0  0  0  0  0  0  0  0  0  0  0  0
  -23.7472  -13.1189  -19.4107 C   0  0  1  0  0  0  0  0  0  0  0  0
  -24.2650  -12.9072  -20.8098 N   0  0  0  0  0  0  0  0  0  0  0  0
  -14.8539  -15.0933  -15.1020 C   0  0  0  0  0  0  0  0  0  0  0  0
  -18.9792  -15.6821  -15.9212 C   0  0  2  0  0  0  0  0  0  0  0  0
  -24.2043  -11.8632  -18.4826 C   0  0  1  0  0  0  0  0  0  0  0  0
  -25.6066  -11.6984  -18.4212 O   0  0  0  0  0  0  0  0  0  0  0  0
  -15.7436  -14.0786  -15.0155 C   0  0  2  0  0  0  0  0  0  0  0  0
  -16.6701  -13.7768  -16.0641 O   0  0  0  0  0  0  0  0  0  0  0  0
  -20.0136  -15.3421  -17.0711 C   0  0  2  0  0  0  0  0  0  0  0  0
  -19.6254  -14.1108  -17.7028 O   0  0  0  0  0  0  0  0  0  0  0  0
  -23.6691  -12.0955  -17.0305 C   0  0  0  0  0  0  0  0  0  0  0  0
  -24.1381  -13.4509  -16.5050 O   0  0  0  0  0  0  0  0  0  0  0  0
  -15.8322  -13.1655  -13.7935 C   0  0  0  0  0  0  0  0  0  0  0  0
  -17.1153  -13.3670  -13.1809 O   0  0  0  0  0  0  0  0  0  0  0  0
  -21.4555  -15.1598  -16.4508 C   0  0  1  0  0  0  0  0  0  0  0  0
  -22.3520  -14.8704  -17.5096 O   0  0  0  0  0  0  0  0  0  0  0  0
  -23.6745  -10.4905  -18.9498 C   0  0  0  0  0  0  0  0  0  0  0  0
  -23.4479  -13.4690  -21.9046 C   0  0  0  0  0  0  0  0  0  0  0  0
  1  2  1  1  0  0  0
  1  6  1  0  0  0  0
  1 21  1  0  0  0  0
  3  4  1  1  0  0  0
  3  8  1  0  0  0  0
  3 28  1  0  0  0  0
  5  9  1  0  0  0  0
  5 25  1  0  0  0  0
  5 29  1  6  0  0  0
  6  7  1  6  0  0  0
  6 11  1  0  0  0  0
  8 12  1  0  0  0  0
  9 10  1  6  0  0  0
  9 14  1  0  0  0  0
 11 16  1  0  0  0  0
 12 13  1  1  0  0  0
 12 17  1  0  0  0  0
 14 15  1  6  0  0  0
 14 18  1  0  0  0  0
 15 31  1  0  0  0  0
 16 20  1  0  0  0  0
 17  2  1  6  0  0  0
 17 22  1  0  0  0  0
 18 19  1  1  0  0  0
 18 24  1  0  0  0  0
 18 30  1  0  0  0  0
 20 21  1  0  0  0  0
 20 26  1  6  0  0  0
 22 23  1  1  0  0  0
 22 28  1  0  0  0  0
 24 25  1  0  0  0  0
 26 27  1  0  0  0  0
 28 29  1  6  0  0  0
M  END
>  <CHROM.1>
-178.64118403,-176.87289911,-91.23892039,-172.98656436,-115.37796343,60.38938257
-20.41859242,-14.52263311,-16.97797596,-0.46016244,-0.03515962,-0.94933353

>  <Name>
ligand

>  <RI>
0

>  <Rbt.Current_Directory>
/home/itssahil/PROJECTS/Mol_Feturizer/New_Systems/rnas/4GPW

>  <Rbt.Executable>
rbdock ($Id: //depot/dev/client3/rdock/2013.1/src/exe/rbdock.cxx#4 $)

>  <Rbt.Library>
libRbt.so (2013.1, Build901 2013/11/27)

>  <Rbt.Parameter_File>
/export/apps/rDock/src/rDock_2013.1_src/data/scripts/dock_solv.prm

>  <Rbt.Receptor>
prm/pocket_docking_8.prm

>  <SCORE>
-12.324

>  <SCORE.INTER>
-4.36372

>  <SCORE.INTER.CONST>
1

>  <SCORE.INTER.POLAR>
0

>  <SCORE.INTER.ROT>
6

>  <SCORE.INTER.SOLV>
7.60867

>  <SCORE.INTER.VDW>
-13.0454

>  <SCORE.INTER.norm>
-0.140765

>  <SCORE.INTRA>
-7.96025

>  <SCORE.INTRA.DIHEDRAL>
-16.5929

>  <SCORE.INTRA.DIHEDRAL.0>
19.2558

>  <SCORE.INTRA.POLAR>
0

>  <SCORE.INTRA.POLAR.0>
0

>  <SCORE.INTRA.REPUL>
0

>  <SCORE.INTRA.REPUL.0>
0

>  <SCORE.INTRA.SOLV>
-2.13083

>  <SCORE.INTRA.SOLV.lig_0>
-64.5929

>  <SCORE.INTRA.VDW>
1.40161

>  <SCORE.INTRA.VDW.0>
-4.40538

>  <SCORE.INTRA.norm>
-0.256782

>  <SCORE.RESTR>
0

>  <SCORE.RESTR.CAVITY>
0

>  <SCORE.RESTR.norm>
0

>  <SCORE.SYSTEM>
0

>  <SCORE.SYSTEM.CONST>
0

>  <SCORE.SYSTEM.DIHEDRAL>
0

>  <SCORE.SYSTEM.SOLV>
0

>  <SCORE.SYSTEM.norm>
0

>  <SCORE.heavy>
31

>  <SCORE.norm>
-0.397547

>  <RMSD>
4.353

$$$$
ligand
 OpenBabel11021811493D
libRbt.so/2013.1/901 2013/11/27
 31 33  0  0  0  0  0  0  0  0999 V2000
  -17.8350  -13.9957  -15.2179 C   0  0  2  0  0  0  0  0  0  0  0  0
  -17.5384  -13.6659  -16.5669 O   0  0  0  0  0  0  0  0  0  0  0  0
  -19.8836  -12.8614  -20.0350 C   0  0  2  0  0  0  0  0  0  0  0  0
  -20.7883  -13.0710  -21.1189 N   0  0  0  0  0  0  0  0  0  0  0  0
  -22.9595  -12.1920  -19.2869 C   0  0  2  0  0  0  0  0  0  0  0  0
  -16.6837  -13.3714  -14.3250 C   0  0  2  0  0  0  0  0  0  0  0  0
  -16.6473  -11.9159  -14.5295 N   0  0  0  0  0  0  0  0  0  0  0  0
  -18.6894  -13.9035  -20.1688 C   0  0  0  0  0  0  0  0  0  0  0  0
  -23.7411  -10.9061  -18.8583 C   0  0  2  0  0  0  0  0  0  0  0  0
  -22.9278   -9.7898  -19.1325 O   0  0  0  0  0  0  0  0  0  0  0  0
  -15.2978  -14.0294  -14.7031 C   0  0  0  0  0  0  0  0  0  0  0  0
  -17.6739  -13.6660  -18.9619 C   0  0  2  0  0  0  0  0  0  0  0  0
  -16.5512  -14.6227  -19.0705 N   0  0  0  0  0  0  0  0  0  0  0  0
  -24.0952  -10.9973  -17.3158 C   0  0  1  0  0  0  0  0  0  0  0  0
  -24.8460   -9.7646  -16.8831 N   0  0  0  0  0  0  0  0  0  0  0  0
  -15.4208  -15.5864  -14.9733 C   0  0  0  0  0  0  0  0  0  0  0  0
  -18.4394  -13.8911  -17.5935 C   0  0  2  0  0  0  0  0  0  0  0  0
  -25.0319  -12.3030  -17.0608 C   0  0  1  0  0  0  0  0  0  0  0  0
  -26.2568  -12.2545  -17.7641 O   0  0  0  0  0  0  0  0  0  0  0  0
  -16.6292  -16.1778  -15.1095 C   0  0  2  0  0  0  0  0  0  0  0  0
  -17.8572  -15.4480  -15.0177 O   0  0  0  0  0  0  0  0  0  0  0  0
  -19.6360  -12.8594  -17.4856 C   0  0  2  0  0  0  0  0  0  0  0  0
  -20.3322  -13.0758  -16.2469 O   0  0  0  0  0  0  0  0  0  0  0  0
  -24.2475  -13.5769  -17.5202 C   0  0  0  0  0  0  0  0  0  0  0  0
  -23.7904  -13.4219  -18.9695 O   0  0  0  0  0  0  0  0  0  0  0  0
  -16.7865  -17.6756  -15.3683 C   0  0  0  0  0  0  0  0  0  0  0  0
  -17.3008  -18.2812  -14.1721 O   0  0  0  0  0  0  0  0  0  0  0  0
  -20.6448  -13.0903  -18.6799 C   0  0  1  0  0  0  0  0  0  0  0  0
  -21.6912  -12.1425  -18.5558 O   0  0  0  0  0  0  0  0  0  0  0  0
  -25.4404  -12.5251  -15.5888 C   0  0  0  0  0  0  0  0  0  0  0  0
  -24.4939   -9.2120  -15.5593 C   0  0  0  0  0  0  0  0  0  0  0  0
  1  2  1  6  0  0  0
  1  6  1  0  0  0  0
  1 21  1  0  0  0  0
  3  4  1  6  0  0  0
  3  8  1  0  0  0  0
  3 28  1  0  0  0  0
  5  9  1  0  0  0  0
  5 25  1  0  0  0  0
  5 29  1  1  0  0  0
  6  7  1  6  0  0  0
  6 11  1  0  0  0  0
  8 12  1  0  0  0  0
  9 10  1  1  0  0  0
  9 14  1  0  0  0  0
 11 16  1  0  0  0  0
 12 13  1  6  0  0  0
 12 17  1  0  0  0  0
 14 15  1  6  0  0  0
 14 18  1  0  0  0  0
 15 31  1  0  0  0  0
 16 20  1  0  0  0  0
 17  2  1  1  0  0  0
 17 22  1  0  0  0  0
 18 19  1  6  0  0  0
 18 24  1  0  0  0  0
 18 30  1  0  0  0  0
 20 21  1  0  0  0  0
 20 26  1  1  0  0  0
 22 23  1  1  0  0  0
 22 28  1  0  0  0  0
 24 25  1  0  0  0  0
 26 27  1  0  0  0  0
 28 29  1  1  0  0  0
M  END
>  <CHROM.1>
-170.54598642,-177.49577622,-140.01562701,-169.34622553,108.49259353,75.09935956
-20.36259499,-13.24173046,-17.13593185,0.32883226,-0.41967612,1.73641312

>  <Name>
ligand

>  <RI>
0

>  <Rbt.Current_Directory>
/home/itssahil/PROJECTS/Mol_Feturizer/New_Systems/rnas/4GPW

>  <Rbt.Executable>
rbdock ($Id: //depot/dev/client3/rdock/2013.1/src/exe/rbdock.cxx#4 $)

>  <Rbt.Library>
libRbt.so (2013.1, Build901 2013/11/27)

>  <Rbt.Parameter_File>
/export/apps/rDock/src/rDock_2013.1_src/data/scripts/dock_solv.prm

>  <Rbt.Receptor>
prm/pocket_docking_8.prm

>  <SCORE>
-13.9648

>  <SCORE.INTER>
-6.59649

>  <SCORE.INTER.CONST>
1

>  <SCORE.INTER.POLAR>
0

>  <SCORE.INTER.ROT>
6

>  <SCORE.INTER.SOLV>
9.74067

>  <SCORE.INTER.VDW>
-15.2445

>  <SCORE.INTER.norm>
-0.21279

>  <SCORE.INTRA>
-7.3683

>  <SCORE.INTRA.DIHEDRAL>
-14.4156

>  <SCORE.INTRA.DIHEDRAL.0>
19.2558

>  <SCORE.INTRA.POLAR>
0

>  <SCORE.INTRA.POLAR.0>
0

>  <SCORE.INTRA.REPUL>
0

>  <SCORE.INTRA.REPUL.0>
0

>  <SCORE.INTRA.SOLV>
-2.51242

>  <SCORE.INTRA.SOLV.lig_0>
-64.5929

>  <SCORE.INTRA.VDW>
1.09568

>  <SCORE.INTRA.VDW.0>
-4.40538

>  <SCORE.INTRA.norm>
-0.237687

>  <SCORE.RESTR>
0

>  <SCORE.RESTR.CAVITY>
0

>  <SCORE.RESTR.norm>
0

>  <SCORE.SYSTEM>
0

>  <SCORE.SYSTEM.CONST>
0

>  <SCORE.SYSTEM.DIHEDRAL>
0

>  <SCORE.SYSTEM.SOLV>
0

>  <SCORE.SYSTEM.norm>
0

>  <SCORE.heavy>
31

>  <SCORE.norm>
-0.450477

>  <RMSD>
4.745

$$$$
ligand
 OpenBabel11021811493D
libRbt.so/2013.1/901 2013/11/27
 31 33  0  0  0  0  0  0  0  0999 V2000
  -18.4585  -14.7815  -16.4641 C   0  0  2  0  0  0  0  0  0  0  0  0
  -18.9803  -15.1832  -15.2059 O   0  0  0  0  0  0  0  0  0  0  0  0
  -20.4699  -13.1776  -11.7515 C   0  0  2  0  0  0  0  0  0  0  0  0
  -20.4995  -12.3344  -10.6002 N   0  0  0  0  0  0  0  0  0  0  0  0
  -21.4906  -10.2507  -12.2939 C   0  0  2  0  0  0  0  0  0  0  0  0
  -18.7120  -15.9771  -17.4733 C   0  0  2  0  0  0  0  0  0  0  0  0
  -20.1549  -16.2495  -17.5492 N   0  0  0  0  0  0  0  0  0  0  0  0
  -19.3309  -14.2686  -11.5459 C   0  0  0  0  0  0  0  0  0  0  0  0
  -22.8214   -9.6215  -12.8243 C   0  0  2  0  0  0  0  0  0  0  0  0
  -23.7901  -10.6412  -12.8899 O   0  0  0  0  0  0  0  0  0  0  0  0
  -17.9203  -17.2579  -16.9943 C   0  0  0  0  0  0  0  0  0  0  0  0
  -19.3011  -15.2159  -12.8288 C   0  0  2  0  0  0  0  0  0  0  0  0
  -18.2507  -16.2426  -12.6557 N   0  0  0  0  0  0  0  0  0  0  0  0
  -22.5650   -8.9764  -14.2495 C   0  0  1  0  0  0  0  0  0  0  0  0
  -23.8377   -8.3676  -14.7788 N   0  0  0  0  0  0  0  0  0  0  0  0
  -16.4810  -16.9046  -16.4321 C   0  0  0  0  0  0  0  0  0  0  0  0
  -18.9867  -14.3382  -14.1094 C   0  0  2  0  0  0  0  0  0  0  0  0
  -21.4392   -7.8099  -14.1112 C   0  0  1  0  0  0  0  0  0  0  0  0
  -21.8277   -6.7616  -13.2468 O   0  0  0  0  0  0  0  0  0  0  0  0
  -16.1284  -15.6254  -16.1712 C   0  0  2  0  0  0  0  0  0  0  0  0
  -17.0173  -14.5239  -16.3848 O   0  0  0  0  0  0  0  0  0  0  0  0
  -20.1191  -13.2456  -14.2878 C   0  0  2  0  0  0  0  0  0  0  0  0
  -19.8224  -12.4466  -15.4451 O   0  0  0  0  0  0  0  0  0  0  0  0
  -20.1242   -8.4496  -13.5537 C   0  0  0  0  0  0  0  0  0  0  0  0
  -20.4084   -9.1874  -12.2468 O   0  0  0  0  0  0  0  0  0  0  0  0
  -14.7500  -15.2469  -15.6310 C   0  0  0  0  0  0  0  0  0  0  0  0
  -14.9389  -14.4616  -14.4436 O   0  0  0  0  0  0  0  0  0  0  0  0
  -20.1530  -12.3047  -13.0187 C   0  0  1  0  0  0  0  0  0  0  0  0
  -21.1844  -11.3517  -13.2102 O   0  0  0  0  0  0  0  0  0  0  0  0
  -21.0771   -7.1041  -15.4355 C   0  0  0  0  0  0  0  0  0  0  0  0
  -24.7512   -9.2780  -15.4990 C   0  0  0  0  0  0  0  0  0  0  0  0
  1  2  1  1  0  0  0
  1  6  1  0  0  0  0
  1 21  1  0  0  0  0
  3  4  1  1  0  0  0
  3  8  1  0  0  0  0
  3 28  1  0  0  0  0
  5  9  1  0  0  0  0
  5 25  1  0  0  0  0
  5 29  1  6  0  0  0
  6  7  1  1  0  0  0
  6 11  1  0  0  0  0
  8 12  1  0  0  0  0
  9 10  1  6  0  0  0
  9 14  1  0  0  0  0
 11 16  1  0  0  0  0
 12 13  1  1  0  0  0
 12 17  1  0  0  0  0
 14 15  1  1  0  0  0
 14 18  1  0  0  0  0
 15 31  1  0  0  0  0
 16 20  1  0  0  0  0
 17  2  1  6  0  0  0
 17 22  1  0  0  0  0
 18 19  1  1  0  0  0
 18 24  1  0  0  0  0
 18 30  1  0  0  0  0
 20 21  1  0  0  0  0
 20 26  1  6  0  0  0
 22 23  1  6  0  0  0
 22 28  1  0  0  0  0
 24 25  1  0  0  0  0
 26 27  1  0  0  0  0
 28 29  1  6  0  0  0
M  END
>  <CHROM.1>
-176.49409438,-171.84767633,-85.54788381,-166.42577110,-126.44011839,65.38892244
-19.86503029,-12.46609703,-14.30555500,0.27946288,0.94201999,-1.62771291

>  <Name>
ligand

>  <RI>
0

>  <Rbt.Current_Directory>
/home/itssahil/PROJECTS/Mol_Feturizer/New_Systems/rnas/4GPW

>  <Rbt.Executable>
rbdock ($Id: //depot/dev/client3/rdock/2013.1/src/exe/rbdock.cxx#4 $)

>  <Rbt.Library>
libRbt.so (2013.1, Build901 2013/11/27)

>  <Rbt.Parameter_File>
/export/apps/rDock/src/rDock_2013.1_src/data/scripts/dock_solv.prm

>  <Rbt.Receptor>
prm/pocket_docking_7.prm

>  <SCORE>
-8.2777

>  <SCORE.INTER>
-0.733025

>  <SCORE.INTER.CONST>
1

>  <SCORE.INTER.POLAR>
0

>  <SCORE.INTER.ROT>
6

>  <SCORE.INTER.SOLV>
9.19525

>  <SCORE.INTER.VDW>
-11.1538

>  <SCORE.INTER.norm>
-0.023646

>  <SCORE.INTRA>
-7.54467

>  <SCORE.INTRA.DIHEDRAL>
-15.6453

>  <SCORE.INTRA.DIHEDRAL.0>
19.2558

>  <SCORE.INTRA.POLAR>
0

>  <SCORE.INTRA.POLAR.0>
0

>  <SCORE.INTRA.REPUL>
0

>  <SCORE.INTRA.REPUL.0>
0

>  <SCORE.INTRA.SOLV>
-1.86887

>  <SCORE.INTRA.SOLV.lig_0>
-64.5929

>  <SCORE.INTRA.VDW>
1.21243

>  <SCORE.INTRA.VDW.0>
-4.40538

>  <SCORE.INTRA.norm>
-0.243376

>  <SCORE.RESTR>
0

>  <SCORE.RESTR.CAVITY>
0

>  <SCORE.RESTR.norm>
0

>  <SCORE.SYSTEM>
0

>  <SCORE.SYSTEM.CONST>
0

>  <SCORE.SYSTEM.DIHEDRAL>
0

>  <SCORE.SYSTEM.SOLV>
0

>  <SCORE.SYSTEM.norm>
0

>  <SCORE.heavy>
31

>  <SCORE.norm>
-0.267022

>  <RMSD>
4.825

$$$$
ligand
 OpenBabel11021811493D
libRbt.so/2013.1/901 2013/11/27
 31 33  0  0  0  0  0  0  0  0999 V2000
  -19.1928  -16.6340  -15.0100 C   0  0  2  0  0  0  0  0  0  0  0  0
  -19.6713  -15.4872  -14.3227 O   0  0  0  0  0  0  0  0  0  0  0  0
  -21.7572  -11.9402  -15.4373 C   0  0  2  0  0  0  0  0  0  0  0  0
  -22.0353  -10.6935  -16.0742 N   0  0  0  0  0  0  0  0  0  0  0  0
  -23.3235  -12.1973  -18.1856 C   0  0  2  0  0  0  0  0  0  0  0  0
  -19.1555  -17.8208  -13.9599 C   0  0  2  0  0  0  0  0  0  0  0  0
  -20.5078  -18.0371  -13.4249 N   0  0  0  0  0  0  0  0  0  0  0  0
  -20.4222  -11.7830  -14.5870 C   0  0  0  0  0  0  0  0  0  0  0  0
  -24.6798  -12.7955  -18.6865 C   0  0  2  0  0  0  0  0  0  0  0  0
  -25.4685  -13.0924  -17.5584 O   0  0  0  0  0  0  0  0  0  0  0  0
  -18.1382  -17.4771  -12.8008 C   0  0  0  0  0  0  0  0  0  0  0  0
  -20.1136  -13.1735  -13.8691 C   0  0  2  0  0  0  0  0  0  0  0  0
  -18.8771  -13.0476  -13.0675 N   0  0  0  0  0  0  0  0  0  0  0  0
  -24.3934  -14.0947  -19.5486 C   0  0  1  0  0  0  0  0  0  0  0  0
  -25.6894  -14.6878  -20.0375 N   0  0  0  0  0  0  0  0  0  0  0  0
  -16.8255  -16.7693  -13.3377 C   0  0  0  0  0  0  0  0  0  0  0  0
  -19.9242  -14.2923  -14.9744 C   0  0  2  0  0  0  0  0  0  0  0  0
  -23.4797  -13.6907  -20.8329 C   0  0  1  0  0  0  0  0  0  0  0  0
  -24.1055  -12.7562  -21.6887 O   0  0  0  0  0  0  0  0  0  0  0  0
  -16.7529  -16.3021  -14.6046 C   0  0  2  0  0  0  0  0  0  0  0  0
  -17.8391  -16.4166  -15.5298 O   0  0  0  0  0  0  0  0  0  0  0  0
  -21.2545  -14.4219  -15.8236 C   0  0  2  0  0  0  0  0  0  0  0  0
  -21.0723  -15.4311  -16.8306 O   0  0  0  0  0  0  0  0  0  0  0  0
  -22.1400  -13.0687  -20.3159 C   0  0  0  0  0  0  0  0  0  0  0  0
  -22.4283  -11.9005  -19.3748 O   0  0  0  0  0  0  0  0  0  0  0  0
  -15.5040  -15.6167  -15.1573 C   0  0  0  0  0  0  0  0  0  0  0  0
  -15.8287  -14.2414  -15.4129 O   0  0  0  0  0  0  0  0  0  0  0  0
  -21.5649  -13.0462  -16.5365 C   0  0  1  0  0  0  0  0  0  0  0  0
  -22.7658  -13.1985  -17.2735 O   0  0  0  0  0  0  0  0  0  0  0  0
  -23.1083  -14.8711  -21.7558 C   0  0  0  0  0  0  0  0  0  0  0  0
  -26.3246  -15.6918  -19.1598 C   0  0  0  0  0  0  0  0  0  0  0  0
  1  2  1  1  0  0  0
  1  6  1  0  0  0  0
  1 21  1  0  0  0  0
  3  4  1  6  0  0  0
  3  8  1  0  0  0  0
  3 28  1  0  0  0  0
  5  9  1  0  0  0  0
  5 25  1  0  0  0  0
  5 29  1  1  0  0  0
  6  7  1  1  0  0  0
  6 11  1  0  0  0  0
  8 12  1  0  0  0  0
  9 10  1  1  0  0  0
  9 14  1  0  0  0  0
 11 16  1  0  0  0  0
 12 13  1  6  0  0  0
 12 17  1  0  0  0  0
 14 15  1  6  0  0  0
 14 18  1  0  0  0  0
 15 31  1  0  0  0  0
 16 20  1  0  0  0  0
 17  2  1  1  0  0  0
 17 22  1  0  0  0  0
 18 19  1  6  0  0  0
 18 24  1  0  0  0  0
 18 30  1  0  0  0  0
 20 21  1  0  0  0  0
 20 26  1  6  0  0  0
 22 23  1  6  0  0  0
 22 28  1  0  0  0  0
 24 25  1  0  0  0  0
 26 27  1  0  0  0  0
 28 29  1  1  0  0  0
M  END
>  <CHROM.1>
-174.96033178,-176.97859785,-90.23192199,-167.19016025,-113.46049500,68.37027876
-21.11501456,-14.34418364,-16.65391561,0.14754067,0.75228165,-2.93890764

>  <Name>
ligand

>  <RI>
0

>  <Rbt.Current_Directory>
/home/itssahil/PROJECTS/Mol_Feturizer/New_Systems/rnas/4GPW

>  <Rbt.Executable>
rbdock ($Id: //depot/dev/client3/rdock/2013.1/src/exe/rbdock.cxx#4 $)

>  <Rbt.Library>
libRbt.so (2013.1, Build901 2013/11/27)

>  <Rbt.Parameter_File>
/export/apps/rDock/src/rDock_2013.1_src/data/scripts/dock_solv.prm

>  <Rbt.Receptor>
prm/pocket_docking_6.prm

>  <SCORE>
-10.4498

>  <SCORE.INTER>
-2.68871

>  <SCORE.INTER.CONST>
1

>  <SCORE.INTER.POLAR>
0

>  <SCORE.INTER.ROT>
6

>  <SCORE.INTER.SOLV>
6.56766

>  <SCORE.INTER.VDW>
-11.5817

>  <SCORE.INTER.norm>
-0.0867327

>  <SCORE.INTRA>
-7.76107

>  <SCORE.INTRA.DIHEDRAL>
-15.607

>  <SCORE.INTRA.DIHEDRAL.0>
19.2558

>  <SCORE.INTRA.POLAR>
0

>  <SCORE.INTRA.POLAR.0>
0

>  <SCORE.INTRA.REPUL>
0

>  <SCORE.INTRA.REPUL.0>
0

>  <SCORE.INTRA.SOLV>
-1.90311

>  <SCORE.INTRA.SOLV.lig_0>
-64.5929

>  <SCORE.INTRA.VDW>
0.993958

>  <SCORE.INTRA.VDW.0>
-4.40538

>  <SCORE.INTRA.norm>
-0.250357

>  <SCORE.RESTR>
0

>  <SCORE.RESTR.CAVITY>
0

>  <SCORE.RESTR.norm>
0

>  <SCORE.SYSTEM>
0

>  <SCORE.SYSTEM.CONST>
0

>  <SCORE.SYSTEM.DIHEDRAL>
0

>  <SCORE.SYSTEM.SOLV>
0

>  <SCORE.SYSTEM.norm>
0

>  <SCORE.heavy>
31

>  <SCORE.norm>
-0.33709

>  <RMSD>
4.985

$$$$
ligand
 OpenBabel11021811493D
libRbt.so/2013.1/901 2013/11/27
 31 33  0  0  0  0  0  0  0  0999 V2000
  -17.6744  -14.0303  -15.1427 C   0  0  2  0  0  0  0  0  0  0  0  0
  -17.3837  -13.4875  -16.4224 O   0  0  0  0  0  0  0  0  0  0  0  0
  -19.6799  -12.4653  -19.8658 C   0  0  2  0  0  0  0  0  0  0  0  0
  -20.5306  -12.6156  -21.0020 N   0  0  0  0  0  0  0  0  0  0  0  0
  -22.8172  -12.1237  -19.1774 C   0  0  2  0  0  0  0  0  0  0  0  0
  -16.6137  -13.4259  -14.1318 C   0  0  2  0  0  0  0  0  0  0  0  0
  -16.7232  -11.9596  -14.1339 N   0  0  0  0  0  0  0  0  0  0  0  0
  -18.4003  -13.3875  -20.0709 C   0  0  0  0  0  0  0  0  0  0  0  0
  -23.6272  -10.8457  -18.7789 C   0  0  2  0  0  0  0  0  0  0  0  0
  -22.8098   -9.7223  -19.0081 O   0  0  0  0  0  0  0  0  0  0  0  0
  -15.1592  -13.8838  -14.5459 C   0  0  0  0  0  0  0  0  0  0  0  0
  -17.4453  -13.2154  -18.8049 C   0  0  2  0  0  0  0  0  0  0  0  0
  -16.2447  -14.0617  -18.9780 N   0  0  0  0  0  0  0  0  0  0  0  0
  -24.0528  -10.9487  -17.2552 C   0  0  1  0  0  0  0  0  0  0  0  0
  -24.8319   -9.7237  -16.8514 N   0  0  0  0  0  0  0  0  0  0  0  0
  -15.1148  -15.3923  -15.0308 C   0  0  0  0  0  0  0  0  0  0  0  0
  -18.2312  -13.6598  -17.5033 C   0  0  2  0  0  0  0  0  0  0  0  0
  -24.9913  -12.2622  -17.0521 C   0  0  1  0  0  0  0  0  0  0  0  0
  -26.1820  -12.2179  -17.8120 O   0  0  0  0  0  0  0  0  0  0  0  0
  -16.2524  -16.0758  -15.2902 C   0  0  2  0  0  0  0  0  0  0  0  0
  -17.5509  -15.4914  -15.1439 O   0  0  0  0  0  0  0  0  0  0  0  0
  -19.5115  -12.7450  -17.3253 C   0  0  2  0  0  0  0  0  0  0  0  0
  -20.2251  -13.1600  -16.1487 O   0  0  0  0  0  0  0  0  0  0  0  0
  -24.1771  -13.5279  -17.4813 C   0  0  0  0  0  0  0  0  0  0  0  0
  -23.6533  -13.3611  -18.9065 O   0  0  0  0  0  0  0  0  0  0  0  0
  -16.2485  -17.5308  -15.7569 C   0  0  0  0  0  0  0  0  0  0  0  0
  -16.7426  -17.5660  -17.1048 O   0  0  0  0  0  0  0  0  0  0  0  0
  -20.4608  -12.9115  -18.5776 C   0  0  1  0  0  0  0  0  0  0  0  0
  -21.5851  -12.0700  -18.3872 O   0  0  0  0  0  0  0  0  0  0  0  0
  -25.4670  -12.4959  -15.6023 C   0  0  0  0  0  0  0  0  0  0  0  0
  -24.5319   -9.1649  -15.5174 C   0  0  0  0  0  0  0  0  0  0  0  0
  1  2  1  6  0  0  0
  1  6  1  0  0  0  0
  1 21  1  0  0  0  0
  3  4  1  6  0  0  0
  3  8  1  0  0  0  0
  3 28  1  0  0  0  0
  5  9  1  0  0  0  0
  5 25  1  0  0  0  0
  5 29  1  1  0  0  0
  6  7  1  6  0  0  0
  6 11  1  0  0  0  0
  8 12  1  0  0  0  0
  9 10  1  1  0  0  0
  9 14  1  0  0  0  0
 11 16  1  0  0  0  0
 12 13  1  6  0  0  0
 12 17  1  0  0  0  0
 14 15  1  6  0  0  0
 14 18  1  0  0  0  0
 15 31  1  0  0  0  0
 16 20  1  0  0  0  0
 17  2  1  1  0  0  0
 17 22  1  0  0  0  0
 18 19  1  6  0  0  0
 18 24  1  0  0  0  0
 18 30  1  0  0  0  0
 20 21  1  0  0  0  0
 20 26  1  1  0  0  0
 22 23  1  1  0  0  0
 22 28  1  0  0  0  0
 24 25  1  0  0  0  0
 26 27  1  0  0  0  0
 28 29  1  1  0  0  0
M  END
>  <CHROM.1>
-170.80484099,-169.49334135,-139.13111640,-167.44992693,-113.18847281,74.49990792
-20.19300470,-13.08940805,-17.18049575,0.19227164,-0.43456997,1.55138978

>  <Name>
ligand

>  <RI>
0

>  <Rbt.Current_Directory>
/home/itssahil/PROJECTS/Mol_Feturizer/New_Systems/rnas/4GPW

>  <Rbt.Executable>
rbdock ($Id: //depot/dev/client3/rdock/2013.1/src/exe/rbdock.cxx#4 $)

>  <Rbt.Library>
libRbt.so (2013.1, Build901 2013/11/27)

>  <Rbt.Parameter_File>
/export/apps/rDock/src/rDock_2013.1_src/data/scripts/dock_solv.prm

>  <Rbt.Receptor>
prm/pocket_docking_8.prm

>  <SCORE>
-13.6169

>  <SCORE.INTER>
-6.5935

>  <SCORE.INTER.CONST>
1

>  <SCORE.INTER.POLAR>
0

>  <SCORE.INTER.ROT>
6

>  <SCORE.INTER.SOLV>
9.25412

>  <SCORE.INTER.VDW>
-15.0804

>  <SCORE.INTER.norm>
-0.212693

>  <SCORE.INTRA>
-7.02339

>  <SCORE.INTRA.DIHEDRAL>
-13.8993

>  <SCORE.INTRA.DIHEDRAL.0>
19.2558

>  <SCORE.INTRA.POLAR>
0

>  <SCORE.INTRA.POLAR.0>
0

>  <SCORE.INTRA.REPUL>
0

>  <SCORE.INTRA.REPUL.0>
0

>  <SCORE.INTRA.SOLV>
-2.00886

>  <SCORE.INTRA.SOLV.lig_0>
-64.5929

>  <SCORE.INTRA.VDW>
0.9307

>  <SCORE.INTRA.VDW.0>
-4.40538

>  <SCORE.INTRA.norm>
-0.226561

>  <SCORE.RESTR>
0

>  <SCORE.RESTR.CAVITY>
0

>  <SCORE.RESTR.norm>
0

>  <SCORE.SYSTEM>
0

>  <SCORE.SYSTEM.CONST>
0

>  <SCORE.SYSTEM.DIHEDRAL>
0

>  <SCORE.SYSTEM.SOLV>
0

>  <SCORE.SYSTEM.norm>
0

>  <SCORE.heavy>
31

>  <SCORE.norm>
-0.439254

>  <RMSD>
4.985

$$$$
ligand
 OpenBabel11021811493D
libRbt.so/2013.1/901 2013/11/27
 31 33  0  0  0  0  0  0  0  0999 V2000
  -22.0584  -16.2159  -15.7231 C   0  0  2  0  0  0  0  0  0  0  0  0
  -22.4428  -15.4408  -16.8492 O   0  0  0  0  0  0  0  0  0  0  0  0
  -23.9926  -11.4935  -17.2875 C   0  0  2  0  0  0  0  0  0  0  0  0
  -24.9029  -10.3963  -17.2197 N   0  0  0  0  0  0  0  0  0  0  0  0
  -23.7539   -9.8306  -14.4754 C   0  0  2  0  0  0  0  0  0  0  0  0
  -20.8698  -17.1541  -16.1912 C   0  0  2  0  0  0  0  0  0  0  0  0
  -19.7594  -16.3228  -16.6788 N   0  0  0  0  0  0  0  0  0  0  0  0
  -24.6717  -12.6581  -18.1315 C   0  0  0  0  0  0  0  0  0  0  0  0
  -22.6457   -9.0099  -13.7360 C   0  0  2  0  0  0  0  0  0  0  0  0
  -21.6540   -8.6706  -14.6763 O   0  0  0  0  0  0  0  0  0  0  0  0
  -21.3770  -18.1369  -17.3197 C   0  0  0  0  0  0  0  0  0  0  0  0
  -23.6528  -13.8826  -18.2140 C   0  0  2  0  0  0  0  0  0  0  0  0
  -24.2634  -14.9763  -19.0004 N   0  0  0  0  0  0  0  0  0  0  0  0
  -22.0473   -9.8819  -12.5551 C   0  0  1  0  0  0  0  0  0  0  0  0
  -20.9747   -9.1087  -11.8326 N   0  0  0  0  0  0  0  0  0  0  0  0
  -22.8367  -18.6848  -17.0338 C   0  0  0  0  0  0  0  0  0  0  0  0
  -23.3373  -14.3892  -16.7467 C   0  0  2  0  0  0  0  0  0  0  0  0
  -23.2362  -10.2434  -11.5048 C   0  0  1  0  0  0  0  0  0  0  0  0
  -23.8258   -9.1011  -10.9176 O   0  0  0  0  0  0  0  0  0  0  0  0
  -23.6095  -18.1403  -16.0669 C   0  0  2  0  0  0  0  0  0  0  0  0
  -23.1659  -17.0521  -15.2496 O   0  0  0  0  0  0  0  0  0  0  0  0
  -22.6802  -13.2125  -15.9151 C   0  0  2  0  0  0  0  0  0  0  0  0
  -22.4060  -13.6757  -14.5824 O   0  0  0  0  0  0  0  0  0  0  0  0
  -24.3487  -11.0390  -12.2654 C   0  0  0  0  0  0  0  0  0  0  0  0
  -24.8238  -10.2494  -13.4837 O   0  0  0  0  0  0  0  0  0  0  0  0
  -25.0198  -18.6434  -15.7617 C   0  0  0  0  0  0  0  0  0  0  0  0
  -24.9502  -19.4802  -14.5968 O   0  0  0  0  0  0  0  0  0  0  0  0
  -23.6858  -11.9964  -15.8310 C   0  0  1  0  0  0  0  0  0  0  0  0
  -23.0582  -10.9622  -15.0927 O   0  0  0  0  0  0  0  0  0  0  0  0
  -22.7949  -11.1097  -10.3057 C   0  0  0  0  0  0  0  0  0  0  0  0
  -19.6242   -9.7069  -11.8277 C   0  0  0  0  0  0  0  0  0  0  0  0
  1  2  1  6  0  0  0
  1  6  1  0  0  0  0
  1 21  1  0  0  0  0
  3  4  1  1  0  0  0
  3  8  1  0  0  0  0
  3 28  1  0  0  0  0
  5  9  1  0  0  0  0
  5 25  1  0  0  0  0
  5 29  1  1  0  0  0
  6  7  1  6  0  0  0
  6 11  1  0  0  0  0
  8 12  1  0  0  0  0
  9 10  1  6  0  0  0
  9 14  1  0  0  0  0
 11 16  1  0  0  0  0
 12 13  1  6  0  0  0
 12 17  1  0  0  0  0
 14 15  1  1  0  0  0
 14 18  1  0  0  0  0
 15 31  1  0  0  0  0
 16 20  1  0  0  0  0
 17  2  1  6  0  0  0
 17 22  1  0  0  0  0
 18 19  1  1  0  0  0
 18 24  1  0  0  0  0
 18 30  1  0  0  0  0
 20 21  1  0  0  0  0
 20 26  1  1  0  0  0
 22 23  1  1  0  0  0
 22 28  1  0  0  0  0
 24 25  1  0  0  0  0
 26 27  1  0  0  0  0
 28 29  1  1  0  0  0
M  END
>  <CHROM.1>
-171.23643353,177.78634042,-119.76593363,-173.31655699,100.89232701,79.41759786
-22.98584666,-13.24963458,-15.02571519,-1.69854301,-1.24049453,0.33973319

>  <Name>
ligand

>  <RI>
0

>  <Rbt.Current_Directory>
/home/itssahil/PROJECTS/Mol_Feturizer/New_Systems/rnas/4GPW

>  <Rbt.Executable>
rbdock ($Id: //depot/dev/client3/rdock/2013.1/src/exe/rbdock.cxx#4 $)

>  <Rbt.Library>
libRbt.so (2013.1, Build901 2013/11/27)

>  <Rbt.Parameter_File>
/export/apps/rDock/src/rDock_2013.1_src/data/scripts/dock_solv.prm

>  <Rbt.Receptor>
prm/pocket_docking_6.prm

>  <SCORE>
-8.74955

>  <SCORE.INTER>
-1.47433

>  <SCORE.INTER.CONST>
1

>  <SCORE.INTER.POLAR>
0

>  <SCORE.INTER.ROT>
6

>  <SCORE.INTER.SOLV>
8.37554

>  <SCORE.INTER.VDW>
-11.3747

>  <SCORE.INTER.norm>
-0.0475589

>  <SCORE.INTRA>
-7.27522

>  <SCORE.INTRA.DIHEDRAL>
-13.5995

>  <SCORE.INTRA.DIHEDRAL.0>
19.2558

>  <SCORE.INTRA.POLAR>
0

>  <SCORE.INTRA.POLAR.0>
0

>  <SCORE.INTRA.REPUL>
0

>  <SCORE.INTRA.REPUL.0>
0

>  <SCORE.INTRA.SOLV>
-2.75766

>  <SCORE.INTRA.SOLV.lig_0>
-64.5929

>  <SCORE.INTRA.VDW>
0.903344

>  <SCORE.INTRA.VDW.0>
-4.40538

>  <SCORE.INTRA.norm>
-0.234685

>  <SCORE.RESTR>
0

>  <SCORE.RESTR.CAVITY>
0

>  <SCORE.RESTR.norm>
0

>  <SCORE.SYSTEM>
0

>  <SCORE.SYSTEM.CONST>
0

>  <SCORE.SYSTEM.DIHEDRAL>
0

>  <SCORE.SYSTEM.SOLV>
0

>  <SCORE.SYSTEM.norm>
0

>  <SCORE.heavy>
31

>  <SCORE.norm>
-0.282244

>  <RMSD>
5.042

$$$$
ligand
 OpenBabel11021811493D
libRbt.so/2013.1/901 2013/11/27
 31 33  0  0  0  0  0  0  0  0999 V2000
  -17.1058  -14.1652  -14.8576 C   0  0  2  0  0  0  0  0  0  0  0  0
  -17.6672  -14.6514  -16.0681 O   0  0  0  0  0  0  0  0  0  0  0  0
  -18.7147  -10.9848  -17.9743 C   0  0  2  0  0  0  0  0  0  0  0  0
  -19.2044  -10.0822  -18.9656 N   0  0  0  0  0  0  0  0  0  0  0  0
  -21.5883  -10.0186  -17.5593 C   0  0  2  0  0  0  0  0  0  0  0  0
  -16.2713  -15.3546  -14.2240 C   0  0  2  0  0  0  0  0  0  0  0  0
  -15.2290  -15.7742  -15.1723 N   0  0  0  0  0  0  0  0  0  0  0  0
  -17.5458  -11.8510  -18.6173 C   0  0  0  0  0  0  0  0  0  0  0  0
  -22.7044   -9.5740  -16.5568 C   0  0  2  0  0  0  0  0  0  0  0  0
  -22.0927   -9.2912  -15.3205 O   0  0  0  0  0  0  0  0  0  0  0  0
  -17.2348  -16.5574  -13.8757 C   0  0  0  0  0  0  0  0  0  0  0  0
  -16.9928  -12.8557  -17.5086 C   0  0  2  0  0  0  0  0  0  0  0  0
  -15.8997  -13.6683  -18.0849 N   0  0  0  0  0  0  0  0  0  0  0  0
  -23.7770  -10.7332  -16.4183 C   0  0  1  0  0  0  0  0  0  0  0  0
  -24.8594  -10.3245  -15.4530 N   0  0  0  0  0  0  0  0  0  0  0  0
  -18.6189  -16.0702  -13.2763 C   0  0  0  0  0  0  0  0  0  0  0  0
  -18.1726  -13.8017  -17.0370 C   0  0  2  0  0  0  0  0  0  0  0  0
  -24.4465  -11.0158  -17.8741 C   0  0  1  0  0  0  0  0  0  0  0  0
  -25.1189   -9.8917  -18.4046 O   0  0  0  0  0  0  0  0  0  0  0  0
  -18.9812  -14.7682  -13.3258 C   0  0  2  0  0  0  0  0  0  0  0  0
  -18.1503  -13.7606  -13.9115 O   0  0  0  0  0  0  0  0  0  0  0  0
  -19.3351  -12.9223  -16.4180 C   0  0  2  0  0  0  0  0  0  0  0  0
  -20.4061  -13.7857  -16.0017 O   0  0  0  0  0  0  0  0  0  0  0  0
  -23.3145  -11.4317  -18.8713 C   0  0  0  0  0  0  0  0  0  0  0  0
  -22.2157  -10.3708  -18.8957 O   0  0  0  0  0  0  0  0  0  0  0  0
  -20.3058  -14.2618  -12.7566 C   0  0  0  0  0  0  0  0  0  0  0  0
  -20.0129  -13.2340  -11.7975 O   0  0  0  0  0  0  0  0  0  0  0  0
  -19.8860  -11.9246  -17.5126 C   0  0  1  0  0  0  0  0  0  0  0  0
  -20.9124  -11.1489  -16.9182 O   0  0  0  0  0  0  0  0  0  0  0  0
  -25.5037  -12.1406  -17.8893 C   0  0  0  0  0  0  0  0  0  0  0  0
  -24.6092  -10.6113  -14.0258 C   0  0  0  0  0  0  0  0  0  0  0  0
  1  2  1  6  0  0  0
  1  6  1  0  0  0  0
  1 21  1  0  0  0  0
  3  4  1  6  0  0  0
  3  8  1  0  0  0  0
  3 28  1  0  0  0  0
  5  9  1  0  0  0  0
  5 25  1  0  0  0  0
  5 29  1  1  0  0  0
  6  7  1  6  0  0  0
  6 11  1  0  0  0  0
  8 12  1  0  0  0  0
  9 10  1  1  0  0  0
  9 14  1  0  0  0  0
 11 16  1  0  0  0  0
 12 13  1  6  0  0  0
 12 17  1  0  0  0  0
 14 15  1  1  0  0  0
 14 18  1  0  0  0  0
 15 31  1  0  0  0  0
 16 20  1  0  0  0  0
 17  2  1  1  0  0  0
 17 22  1  0  0  0  0
 18 19  1  6  0  0  0
 18 24  1  0  0  0  0
 18 30  1  0  0  0  0
 20 21  1  0  0  0  0
 20 26  1  1  0  0  0
 22 23  1  6  0  0  0
 22 28  1  0  0  0  0
 24 25  1  0  0  0  0
 26 27  1  0  0  0  0
 28 29  1  1  0  0  0
M  END
>  <CHROM.1>
-163.60825898,175.61181159,-87.20645144,59.82581723,123.60131358,55.37789902
-20.26689850,-12.47009049,-16.15805418,0.53720951,-0.39264439,2.07147918

>  <Name>
ligand

>  <RI>
0

>  <Rbt.Current_Directory>
/home/itssahil/PROJECTS/Mol_Feturizer/New_Systems/rnas/4GPW

>  <Rbt.Executable>
rbdock ($Id: //depot/dev/client3/rdock/2013.1/src/exe/rbdock.cxx#4 $)

>  <Rbt.Library>
libRbt.so (2013.1, Build901 2013/11/27)

>  <Rbt.Parameter_File>
/export/apps/rDock/src/rDock_2013.1_src/data/scripts/dock_solv.prm

>  <Rbt.Receptor>
prm/pocket_docking_7.prm

>  <SCORE>
-9.92185

>  <SCORE.INTER>
-3.77463

>  <SCORE.INTER.CONST>
1

>  <SCORE.INTER.POLAR>
0

>  <SCORE.INTER.ROT>
6

>  <SCORE.INTER.SOLV>
8.808

>  <SCORE.INTER.VDW>
-13.0524

>  <SCORE.INTER.norm>
-0.121762

>  <SCORE.INTRA>
-6.14722

>  <SCORE.INTRA.DIHEDRAL>
-15.5834

>  <SCORE.INTRA.DIHEDRAL.0>
19.2558

>  <SCORE.INTRA.POLAR>
0

>  <SCORE.INTRA.POLAR.0>
0

>  <SCORE.INTRA.REPUL>
0

>  <SCORE.INTRA.REPUL.0>
0

>  <SCORE.INTRA.SOLV>
0.0477223

>  <SCORE.INTRA.SOLV.lig_0>
-64.5929

>  <SCORE.INTRA.VDW>
1.62063

>  <SCORE.INTRA.VDW.0>
-4.40538

>  <SCORE.INTRA.norm>
-0.198297

>  <SCORE.RESTR>
0

>  <SCORE.RESTR.CAVITY>
0

>  <SCORE.RESTR.norm>
0

>  <SCORE.SYSTEM>
0

>  <SCORE.SYSTEM.CONST>
0

>  <SCORE.SYSTEM.DIHEDRAL>
0

>  <SCORE.SYSTEM.SOLV>
0

>  <SCORE.SYSTEM.norm>
0

>  <SCORE.heavy>
31

>  <SCORE.norm>
-0.32006

>  <RMSD>
5.067

$$$$
ligand
 OpenBabel11021811493D
libRbt.so/2013.1/901 2013/11/27
 31 33  0  0  0  0  0  0  0  0999 V2000
  -16.2852  -14.6975  -14.4476 C   0  0  2  0  0  0  0  0  0  0  0  0
  -17.5603  -14.0789  -14.5372 O   0  0  0  0  0  0  0  0  0  0  0  0
  -18.7727  -10.0313  -15.1047 C   0  0  2  0  0  0  0  0  0  0  0  0
  -18.9559   -8.7630  -15.7333 N   0  0  0  0  0  0  0  0  0  0  0  0
  -21.5131   -9.7181  -16.6488 C   0  0  2  0  0  0  0  0  0  0  0  0
  -15.9635  -15.3036  -15.8765 C   0  0  2  0  0  0  0  0  0  0  0  0
  -15.9707  -14.2233  -16.8738 N   0  0  0  0  0  0  0  0  0  0  0  0
  -17.2136  -10.3397  -15.0407 C   0  0  0  0  0  0  0  0  0  0  0  0
  -23.0335   -9.7933  -16.2867 C   0  0  2  0  0  0  0  0  0  0  0  0
  -23.1470   -9.8142  -14.8833 O   0  0  0  0  0  0  0  0  0  0  0  0
  -17.0286  -16.4132  -16.2386 C   0  0  0  0  0  0  0  0  0  0  0  0
  -17.0069  -11.7538  -14.3322 C   0  0  2  0  0  0  0  0  0  0  0  0
  -15.5615  -12.0579  -14.2575 N   0  0  0  0  0  0  0  0  0  0  0  0
  -23.6635  -11.0950  -16.9362 C   0  0  1  0  0  0  0  0  0  0  0  0
  -25.1284  -11.1867  -16.5951 N   0  0  0  0  0  0  0  0  0  0  0  0
  -17.4089  -17.3165  -14.9929 C   0  0  0  0  0  0  0  0  0  0  0  0
  -17.7458  -12.8679  -15.1819 C   0  0  2  0  0  0  0  0  0  0  0  0
  -23.5017  -11.0149  -18.5532 C   0  0  1  0  0  0  0  0  0  0  0  0
  -24.1650   -9.9054  -19.1243 O   0  0  0  0  0  0  0  0  0  0  0  0
  -17.0384  -16.9689  -13.7397 C   0  0  2  0  0  0  0  0  0  0  0  0
  -16.2881  -15.7821  -13.4610 O   0  0  0  0  0  0  0  0  0  0  0  0
  -19.2925  -12.5351  -15.2518 C   0  0  2  0  0  0  0  0  0  0  0  0
  -19.9549  -13.5439  -16.0323 O   0  0  0  0  0  0  0  0  0  0  0  0
  -21.9785  -10.9120  -18.8974 C   0  0  0  0  0  0  0  0  0  0  0  0
  -21.3481   -9.7336  -18.1575 O   0  0  0  0  0  0  0  0  0  0  0  0
  -17.3849  -17.8155  -12.5157 C   0  0  0  0  0  0  0  0  0  0  0  0
  -18.2507  -17.0414  -11.6711 O   0  0  0  0  0  0  0  0  0  0  0  0
  -19.5025  -11.1344  -15.9526 C   0  0  1  0  0  0  0  0  0  0  0  0
  -20.8940  -10.8673  -15.9843 O   0  0  0  0  0  0  0  0  0  0  0  0
  -24.0605  -12.2342  -19.3175 C   0  0  0  0  0  0  0  0  0  0  0  0
  -25.4714  -11.9330  -15.3674 C   0  0  0  0  0  0  0  0  0  0  0  0
  1  2  1  6  0  0  0
  1  6  1  0  0  0  0
  1 21  1  0  0  0  0
  3  4  1  6  0  0  0
  3  8  1  0  0  0  0
  3 28  1  0  0  0  0
  5  9  1  0  0  0  0
  5 25  1  0  0  0  0
  5 29  1  1  0  0  0
  6  7  1  6  0  0  0
  6 11  1  0  0  0  0
  8 12  1  0  0  0  0
  9 10  1  1  0  0  0
  9 14  1  0  0  0  0
 11 16  1  0  0  0  0
 12 13  1  6  0  0  0
 12 17  1  0  0  0  0
 14 15  1  6  0  0  0
 14 18  1  0  0  0  0
 15 31  1  0  0  0  0
 16 20  1  0  0  0  0
 17  2  1  1  0  0  0
 17 22  1  0  0  0  0
 18 19  1  6  0  0  0
 18 24  1  0  0  0  0
 18 30  1  0  0  0  0
 20 21  1  0  0  0  0
 20 26  1  6  0  0  0
 22 23  1  6  0  0  0
 22 28  1  0  0  0  0
 24 25  1  0  0  0  0
 26 27  1  0  0  0  0
 28 29  1  1  0  0  0
M  END
>  <CHROM.1>
-74.76335942,-174.70604190,-90.93878539,-67.65162227,-116.05456801,66.96560700
-19.75218861,-12.61993157,-15.73457741,-0.71045167,-0.25447024,-0.27185971

>  <Name>
ligand

>  <RI>
0

>  <Rbt.Current_Directory>
/home/itssahil/PROJECTS/Mol_Feturizer/New_Systems/rnas/4GPW

>  <Rbt.Executable>
rbdock ($Id: //depot/dev/client3/rdock/2013.1/src/exe/rbdock.cxx#4 $)

>  <Rbt.Library>
libRbt.so (2013.1, Build901 2013/11/27)

>  <Rbt.Parameter_File>
/export/apps/rDock/src/rDock_2013.1_src/data/scripts/dock_solv.prm

>  <Rbt.Receptor>
prm/pocket_docking_8.prm

>  <SCORE>
-12.2851

>  <SCORE.INTER>
-7.56613

>  <SCORE.INTER.CONST>
1

>  <SCORE.INTER.POLAR>
0

>  <SCORE.INTER.ROT>
6

>  <SCORE.INTER.SOLV>
7.816

>  <SCORE.INTER.VDW>
-15.2494

>  <SCORE.INTER.norm>
-0.244069

>  <SCORE.INTRA>
-4.71894

>  <SCORE.INTRA.DIHEDRAL>
-15.2274

>  <SCORE.INTRA.DIHEDRAL.0>
19.2558

>  <SCORE.INTRA.POLAR>
0

>  <SCORE.INTRA.POLAR.0>
0

>  <SCORE.INTRA.REPUL>
0

>  <SCORE.INTRA.REPUL.0>
0

>  <SCORE.INTRA.SOLV>
1.63671

>  <SCORE.INTRA.SOLV.lig_0>
-64.5929

>  <SCORE.INTRA.VDW>
2.07641

>  <SCORE.INTRA.VDW.0>
-4.40538

>  <SCORE.INTRA.norm>
-0.152224

>  <SCORE.RESTR>
0

>  <SCORE.RESTR.CAVITY>
0

>  <SCORE.RESTR.norm>
0

>  <SCORE.SYSTEM>
0

>  <SCORE.SYSTEM.CONST>
0

>  <SCORE.SYSTEM.DIHEDRAL>
0

>  <SCORE.SYSTEM.SOLV>
0

>  <SCORE.SYSTEM.norm>
0

>  <SCORE.heavy>
31

>  <SCORE.norm>
-0.396293

>  <RMSD>
5.074

$$$$
ligand
 OpenBabel11021811493D
libRbt.so/2013.1/901 2013/11/27
 31 33  0  0  0  0  0  0  0  0999 V2000
  -16.9845  -13.3490  -13.5095 C   0  0  2  0  0  0  0  0  0  0  0  0
  -17.7109  -13.1000  -14.7040 O   0  0  0  0  0  0  0  0  0  0  0  0
  -21.4285  -11.1416  -15.4242 C   0  0  2  0  0  0  0  0  0  0  0  0
  -22.8367  -10.9111  -15.4600 N   0  0  0  0  0  0  0  0  0  0  0  0
  -22.5192   -9.4171  -13.1850 C   0  0  2  0  0  0  0  0  0  0  0  0
  -15.4495  -13.3945  -13.9023 C   0  0  2  0  0  0  0  0  0  0  0  0
  -15.0666  -12.1114  -14.5097 N   0  0  0  0  0  0  0  0  0  0  0  0
  -21.1162  -12.4702  -16.2411 C   0  0  0  0  0  0  0  0  0  0  0  0
  -22.3237   -8.2208  -12.1956 C   0  0  2  0  0  0  0  0  0  0  0  0
  -21.2298   -7.4569  -12.6457 O   0  0  0  0  0  0  0  0  0  0  0  0
  -15.1884  -14.5915  -14.9001 C   0  0  0  0  0  0  0  0  0  0  0  0
  -19.5421  -12.7256  -16.2077 C   0  0  2  0  0  0  0  0  0  0  0  0
  -19.2288  -13.9554  -16.9673 N   0  0  0  0  0  0  0  0  0  0  0  0
  -22.0724   -8.7839  -10.7351 C   0  0  1  0  0  0  0  0  0  0  0  0
  -21.8781   -7.6452   -9.7675 N   0  0  0  0  0  0  0  0  0  0  0  0
  -16.0110  -15.8906  -14.5154 C   0  0  0  0  0  0  0  0  0  0  0  0
  -19.0797  -12.8932  -14.7020 C   0  0  2  0  0  0  0  0  0  0  0  0
  -23.3649   -9.6565  -10.2713 C   0  0  1  0  0  0  0  0  0  0  0  0
  -24.5581   -8.9007  -10.2234 O   0  0  0  0  0  0  0  0  0  0  0  0
  -17.0001  -15.8430  -13.5944 C   0  0  2  0  0  0  0  0  0  0  0  0
  -17.3614  -14.6356  -12.9158 O   0  0  0  0  0  0  0  0  0  0  0  0
  -19.4157  -11.5701  -13.8993 C   0  0  2  0  0  0  0  0  0  0  0  0
  -19.0030  -11.7328  -12.5322 O   0  0  0  0  0  0  0  0  0  0  0  0
  -23.5636  -10.8314  -11.2859 C   0  0  0  0  0  0  0  0  0  0  0  0
  -23.6677  -10.2880  -12.7097 O   0  0  0  0  0  0  0  0  0  0  0  0
  -17.8125  -17.0746  -13.1968 C   0  0  0  0  0  0  0  0  0  0  0  0
  -17.6007  -17.3130  -11.7966 O   0  0  0  0  0  0  0  0  0  0  0  0
  -20.9744  -11.3123  -13.9299 C   0  0  1  0  0  0  0  0  0  0  0  0
  -21.2325  -10.1165  -13.2145 O   0  0  0  0  0  0  0  0  0  0  0  0
  -23.2481  -10.2830   -8.8652 C   0  0  0  0  0  0  0  0  0  0  0  0
  -20.4835   -7.2302   -9.5133 C   0  0  0  0  0  0  0  0  0  0  0  0
  1  2  1  6  0  0  0
  1  6  1  0  0  0  0
  1 21  1  0  0  0  0
  3  4  1  1  0  0  0
  3  8  1  0  0  0  0
  3 28  1  0  0  0  0
  5  9  1  0  0  0  0
  5 25  1  0  0  0  0
  5 29  1  1  0  0  0
  6  7  1  6  0  0  0
  6 11  1  0  0  0  0
  8 12  1  0  0  0  0
  9 10  1  6  0  0  0
  9 14  1  0  0  0  0
 11 16  1  0  0  0  0
 12 13  1  6  0  0  0
 12 17  1  0  0  0  0
 14 15  1  1  0  0  0
 14 18  1  0  0  0  0
 15 31  1  0  0  0  0
 16 20  1  0  0  0  0
 17  2  1  6  0  0  0
 17 22  1  0  0  0  0
 18 19  1  6  0  0  0
 18 24  1  0  0  0  0
 18 30  1  0  0  0  0
 20 21  1  0  0  0  0
 20 26  1  1  0  0  0
 22 23  1  1  0  0  0
 22 28  1  0  0  0  0
 24 25  1  0  0  0  0
 26 27  1  0  0  0  0
 28 29  1  1  0  0  0
M  END
>  <CHROM.1>
-174.76370169,176.40814751,-93.79163351,-177.10154329,118.62245535,51.63684528
-19.97770015,-11.76431569,-13.10548924,-0.49861970,-0.72170090,1.35933363

>  <Name>
ligand

>  <RI>
0

>  <Rbt.Current_Directory>
/home/itssahil/PROJECTS/Mol_Feturizer/New_Systems/rnas/4GPW

>  <Rbt.Executable>
rbdock ($Id: //depot/dev/client3/rdock/2013.1/src/exe/rbdock.cxx#4 $)

>  <Rbt.Library>
libRbt.so (2013.1, Build901 2013/11/27)

>  <Rbt.Parameter_File>
/export/apps/rDock/src/rDock_2013.1_src/data/scripts/dock_solv.prm

>  <Rbt.Receptor>
prm/pocket_docking_8.prm

>  <SCORE>
-12.3396

>  <SCORE.INTER>
-5.24315

>  <SCORE.INTER.CONST>
1

>  <SCORE.INTER.POLAR>
0

>  <SCORE.INTER.ROT>
6

>  <SCORE.INTER.SOLV>
6.75981

>  <SCORE.INTER.VDW>
-13.3487

>  <SCORE.INTER.norm>
-0.169134

>  <SCORE.INTRA>
-7.09642

>  <SCORE.INTRA.DIHEDRAL>
-16.2584

>  <SCORE.INTRA.DIHEDRAL.0>
19.2558

>  <SCORE.INTRA.POLAR>
0

>  <SCORE.INTRA.POLAR.0>
0

>  <SCORE.INTRA.REPUL>
0

>  <SCORE.INTRA.REPUL.0>
0

>  <SCORE.INTRA.SOLV>
-1.90963

>  <SCORE.INTRA.SOLV.lig_0>
-64.5929

>  <SCORE.INTRA.VDW>
1.98761

>  <SCORE.INTRA.VDW.0>
-4.40538

>  <SCORE.INTRA.norm>
-0.228917

>  <SCORE.RESTR>
0

>  <SCORE.RESTR.CAVITY>
0

>  <SCORE.RESTR.norm>
0

>  <SCORE.SYSTEM>
0

>  <SCORE.SYSTEM.CONST>
0

>  <SCORE.SYSTEM.DIHEDRAL>
0

>  <SCORE.SYSTEM.SOLV>
0

>  <SCORE.SYSTEM.norm>
0

>  <SCORE.heavy>
31

>  <SCORE.norm>
-0.398051

>  <RMSD>
5.118

$$$$
ligand
 OpenBabel11021811493D
libRbt.so/2013.1/901 2013/11/27
 31 33  0  0  0  0  0  0  0  0999 V2000
  -22.3532  -16.9363  -14.0986 C   0  0  2  0  0  0  0  0  0  0  0  0
  -21.1394  -16.4400  -14.6437 O   0  0  0  0  0  0  0  0  0  0  0  0
  -20.2257  -13.3527  -11.8493 C   0  0  2  0  0  0  0  0  0  0  0  0
  -19.5030  -12.3138  -11.1892 N   0  0  0  0  0  0  0  0  0  0  0  0
  -20.8370  -10.4253  -12.9757 C   0  0  2  0  0  0  0  0  0  0  0  0
  -22.8235  -18.1310  -15.0281 C   0  0  2  0  0  0  0  0  0  0  0  0
  -21.7795  -19.1660  -15.0524 N   0  0  0  0  0  0  0  0  0  0  0  0
  -19.3499  -14.6797  -11.8057 C   0  0  0  0  0  0  0  0  0  0  0  0
  -22.0342   -9.4695  -13.2941 C   0  0  2  0  0  0  0  0  0  0  0  0
  -23.1699   -9.9522  -12.6159 O   0  0  0  0  0  0  0  0  0  0  0  0
  -23.1176  -17.5917  -16.4839 C   0  0  0  0  0  0  0  0  0  0  0  0
  -20.1592  -15.8435  -12.5371 C   0  0  2  0  0  0  0  0  0  0  0  0
  -19.3637  -17.0899  -12.5030 N   0  0  0  0  0  0  0  0  0  0  0  0
  -22.2712   -9.4297  -14.8610 C   0  0  1  0  0  0  0  0  0  0  0  0
  -23.4241   -8.5159  -15.1874 N   0  0  0  0  0  0  0  0  0  0  0  0
  -23.8417  -16.1818  -16.4722 C   0  0  0  0  0  0  0  0  0  0  0  0
  -20.4260  -15.4189  -14.0396 C   0  0  2  0  0  0  0  0  0  0  0  0
  -20.9290   -8.8671  -15.5884 C   0  0  1  0  0  0  0  0  0  0  0  0
  -20.5880   -7.5552  -15.1885 O   0  0  0  0  0  0  0  0  0  0  0  0
  -23.9338  -15.4539  -15.3362 C   0  0  2  0  0  0  0  0  0  0  0  0
  -23.3939  -15.9034  -14.0891 O   0  0  0  0  0  0  0  0  0  0  0  0
  -21.2816  -14.0866  -14.0645 C   0  0  2  0  0  0  0  0  0  0  0  0
  -21.5114  -13.7016  -15.4301 O   0  0  0  0  0  0  0  0  0  0  0  0
  -19.7361   -9.8173  -15.2377 C   0  0  0  0  0  0  0  0  0  0  0  0
  -19.6009   -9.9586  -13.7227 O   0  0  0  0  0  0  0  0  0  0  0  0
  -24.6260  -14.0925  -15.2866 C   0  0  0  0  0  0  0  0  0  0  0  0
  -25.1738  -13.9208  -13.9703 O   0  0  0  0  0  0  0  0  0  0  0  0
  -20.4842  -12.9304  -13.3403 C   0  0  1  0  0  0  0  0  0  0  0  0
  -21.2858  -11.7621  -13.3720 O   0  0  0  0  0  0  0  0  0  0  0  0
  -21.0143   -8.7914  -17.1279 C   0  0  0  0  0  0  0  0  0  0  0  0
  -24.7562   -9.1472  -15.2815 C   0  0  0  0  0  0  0  0  0  0  0  0
  1  2  1  6  0  0  0
  1  6  1  0  0  0  0
  1 21  1  0  0  0  0
  3  4  1  1  0  0  0
  3  8  1  0  0  0  0
  3 28  1  0  0  0  0
  5  9  1  0  0  0  0
  5 25  1  0  0  0  0
  5 29  1  6  0  0  0
  6  7  1  6  0  0  0
  6 11  1  0  0  0  0
  8 12  1  0  0  0  0
  9 10  1  1  0  0  0
  9 14  1  0  0  0  0
 11 16  1  0  0  0  0
 12 13  1  6  0  0  0
 12 17  1  0  0  0  0
 14 15  1  1  0  0  0
 14 18  1  0  0  0  0
 15 31  1  0  0  0  0
 16 20  1  0  0  0  0
 17  2  1  6  0  0  0
 17 22  1  0  0  0  0
 18 19  1  1  0  0  0
 18 24  1  0  0  0  0
 18 30  1  0  0  0  0
 20 21  1  0  0  0  0
 20 26  1  1  0  0  0
 22 23  1  6  0  0  0
 22 28  1  0  0  0  0
 24 25  1  0  0  0  0
 26 27  1  0  0  0  0
 28 29  1  1  0  0  0
M  END
>  <CHROM.1>
-177.39429738,175.67912943,-92.33543425,54.01510638,149.95778658,70.76989576
-21.76930822,-13.08452817,-14.25836730,1.65230071,0.61220750,3.07906592

>  <Name>
ligand

>  <RI>
0

>  <Rbt.Current_Directory>
/home/itssahil/PROJECTS/Mol_Feturizer/New_Systems/rnas/4GPW

>  <Rbt.Executable>
rbdock ($Id: //depot/dev/client3/rdock/2013.1/src/exe/rbdock.cxx#4 $)

>  <Rbt.Library>
libRbt.so (2013.1, Build901 2013/11/27)

>  <Rbt.Parameter_File>
/export/apps/rDock/src/rDock_2013.1_src/data/scripts/dock_solv.prm

>  <Rbt.Receptor>
prm/pocket_docking_5.prm

>  <SCORE>
-7.64409

>  <SCORE.INTER>
-0.80966

>  <SCORE.INTER.CONST>
1

>  <SCORE.INTER.POLAR>
0

>  <SCORE.INTER.ROT>
6

>  <SCORE.INTER.SOLV>
11.4191

>  <SCORE.INTER.VDW>
-11.9461

>  <SCORE.INTER.norm>
-0.0261181

>  <SCORE.INTRA>
-6.83443

>  <SCORE.INTRA.DIHEDRAL>
-15.0713

>  <SCORE.INTRA.DIHEDRAL.0>
19.2558

>  <SCORE.INTRA.POLAR>
0

>  <SCORE.INTRA.POLAR.0>
0

>  <SCORE.INTRA.REPUL>
0

>  <SCORE.INTRA.REPUL.0>
0

>  <SCORE.INTRA.SOLV>
-1.00683

>  <SCORE.INTRA.SOLV.lig_0>
-64.5929

>  <SCORE.INTRA.VDW>
1.20464

>  <SCORE.INTRA.VDW.0>
-4.40538

>  <SCORE.INTRA.norm>
-0.220466

>  <SCORE.RESTR>
0

>  <SCORE.RESTR.CAVITY>
0

>  <SCORE.RESTR.norm>
0

>  <SCORE.SYSTEM>
0

>  <SCORE.SYSTEM.CONST>
0

>  <SCORE.SYSTEM.DIHEDRAL>
0

>  <SCORE.SYSTEM.SOLV>
0

>  <SCORE.SYSTEM.norm>
0

>  <SCORE.heavy>
31

>  <SCORE.norm>
-0.246584

>  <RMSD>
5.131

$$$$
ligand
 OpenBabel11021811493D
libRbt.so/2013.1/901 2013/11/27
 31 33  0  0  0  0  0  0  0  0999 V2000
  -18.8640  -16.1061  -15.1133 C   0  0  2  0  0  0  0  0  0  0  0  0
  -18.0717  -14.9324  -15.0073 O   0  0  0  0  0  0  0  0  0  0  0  0
  -18.3919  -10.9531  -16.5031 C   0  0  2  0  0  0  0  0  0  0  0  0
  -18.4495   -9.8719  -17.4330 N   0  0  0  0  0  0  0  0  0  0  0  0
  -21.3180  -10.1566  -17.4053 C   0  0  2  0  0  0  0  0  0  0  0  0
  -18.5984  -16.9633  -13.8067 C   0  0  2  0  0  0  0  0  0  0  0  0
  -18.9640  -16.1700  -12.6240 N   0  0  0  0  0  0  0  0  0  0  0  0
  -17.0104  -11.7154  -16.7042 C   0  0  0  0  0  0  0  0  0  0  0  0
  -22.5452   -9.5715  -16.6310 C   0  0  2  0  0  0  0  0  0  0  0  0
  -22.1133   -9.2053  -15.3418 O   0  0  0  0  0  0  0  0  0  0  0  0
  -17.0792  -17.3941  -13.7498 C   0  0  0  0  0  0  0  0  0  0  0  0
  -16.9414  -12.9200  -15.6609 C   0  0  2  0  0  0  0  0  0  0  0  0
  -15.6603  -13.6400  -15.8275 N   0  0  0  0  0  0  0  0  0  0  0  0
  -23.6935  -10.6627  -16.5667 C   0  0  1  0  0  0  0  0  0  0  0  0
  -24.8841  -10.1182  -15.8206 N   0  0  0  0  0  0  0  0  0  0  0  0
  -16.5131  -17.8058  -15.1719 C   0  0  0  0  0  0  0  0  0  0  0  0
  -18.1502  -13.9068  -15.9337 C   0  0  2  0  0  0  0  0  0  0  0  0
  -24.1491  -11.0460  -18.0809 C   0  0  1  0  0  0  0  0  0  0  0  0
  -24.6646   -9.9454  -18.8020 O   0  0  0  0  0  0  0  0  0  0  0  0
  -17.2101  -17.5483  -16.3017 C   0  0  2  0  0  0  0  0  0  0  0  0
  -18.4858  -16.8992  -16.2871 O   0  0  0  0  0  0  0  0  0  0  0  0
  -19.5162  -13.1274  -15.7486 C   0  0  2  0  0  0  0  0  0  0  0  0
  -20.6080  -14.0256  -16.0074 O   0  0  0  0  0  0  0  0  0  0  0  0
  -22.9051  -11.6029  -18.8500 C   0  0  0  0  0  0  0  0  0  0  0  0
  -21.7542  -10.6003  -18.7897 O   0  0  0  0  0  0  0  0  0  0  0  0
  -16.6974  -17.9323  -17.6890 C   0  0  0  0  0  0  0  0  0  0  0  0
  -16.5428  -16.7271  -18.4545 O   0  0  0  0  0  0  0  0  0  0  0  0
  -19.5890  -11.9322  -16.7798 C   0  0  1  0  0  0  0  0  0  0  0  0
  -20.8161  -11.2536  -16.5744 O   0  0  0  0  0  0  0  0  0  0  0  0
  -25.2567  -12.1178  -18.1683 C   0  0  0  0  0  0  0  0  0  0  0  0
  -24.8782  -10.2968  -14.3544 C   0  0  0  0  0  0  0  0  0  0  0  0
  1  2  1  1  0  0  0
  1  6  1  0  0  0  0
  1 21  1  0  0  0  0
  3  4  1  6  0  0  0
  3  8  1  0  0  0  0
  3 28  1  0  0  0  0
  5  9  1  0  0  0  0
  5 25  1  0  0  0  0
  5 29  1  1  0  0  0
  6  7  1  1  0  0  0
  6 11  1  0  0  0  0
  8 12  1  0  0  0  0
  9 10  1  1  0  0  0
  9 14  1  0  0  0  0
 11 16  1  0  0  0  0
 12 13  1  6  0  0  0
 12 17  1  0  0  0  0
 14 15  1  1  0  0  0
 14 18  1  0  0  0  0
 15 31  1  0  0  0  0
 16 20  1  0  0  0  0
 17  2  1  1  0  0  0
 17 22  1  0  0  0  0
 18 19  1  6  0  0  0
 18 24  1  0  0  0  0
 18 30  1  0  0  0  0
 20 21  1  0  0  0  0
 20 26  1  1  0  0  0
 22 23  1  6  0  0  0
 22 28  1  0  0  0  0
 24 25  1  0  0  0  0
 26 27  1  0  0  0  0
 28 29  1  1  0  0  0
M  END
>  <CHROM.1>
-174.49960648,-169.51068902,-87.80858930,-168.93111270,-118.57007577,67.28041432
-20.04017997,-13.12945583,-16.34854517,0.78368444,-0.14237598,2.75910311

>  <Name>
ligand

>  <RI>
0

>  <Rbt.Current_Directory>
/home/itssahil/PROJECTS/Mol_Feturizer/New_Systems/rnas/4GPW

>  <Rbt.Executable>
rbdock ($Id: //depot/dev/client3/rdock/2013.1/src/exe/rbdock.cxx#4 $)

>  <Rbt.Library>
libRbt.so (2013.1, Build901 2013/11/27)

>  <Rbt.Parameter_File>
/export/apps/rDock/src/rDock_2013.1_src/data/scripts/dock_solv.prm

>  <Rbt.Receptor>
prm/pocket_docking_7.prm

>  <SCORE>
-12.4727

>  <SCORE.INTER>
-4.87115

>  <SCORE.INTER.CONST>
1

>  <SCORE.INTER.POLAR>
0

>  <SCORE.INTER.ROT>
6

>  <SCORE.INTER.SOLV>
8.18862

>  <SCORE.INTER.VDW>
-13.577

>  <SCORE.INTER.norm>
-0.157134

>  <SCORE.INTRA>
-7.60158

>  <SCORE.INTRA.DIHEDRAL>
-15.5009

>  <SCORE.INTRA.DIHEDRAL.0>
19.2558

>  <SCORE.INTRA.POLAR>
0

>  <SCORE.INTRA.POLAR.0>
0

>  <SCORE.INTRA.REPUL>
0

>  <SCORE.INTRA.REPUL.0>
0

>  <SCORE.INTRA.SOLV>
-2.02445

>  <SCORE.INTRA.SOLV.lig_0>
-64.5929

>  <SCORE.INTRA.VDW>
1.16108

>  <SCORE.INTRA.VDW.0>
-4.40538

>  <SCORE.INTRA.norm>
-0.245212

>  <SCORE.RESTR>
0

>  <SCORE.RESTR.CAVITY>
0

>  <SCORE.RESTR.norm>
0

>  <SCORE.SYSTEM>
0

>  <SCORE.SYSTEM.CONST>
0

>  <SCORE.SYSTEM.DIHEDRAL>
0

>  <SCORE.SYSTEM.SOLV>
0

>  <SCORE.SYSTEM.norm>
0

>  <SCORE.heavy>
31

>  <SCORE.norm>
-0.402346

>  <RMSD>
5.153

$$$$
ligand
 OpenBabel11021811493D
libRbt.so/2013.1/901 2013/11/27
 31 33  0  0  0  0  0  0  0  0999 V2000
  -18.8929  -16.1722  -15.1816 C   0  0  2  0  0  0  0  0  0  0  0  0
  -18.1175  -15.0059  -14.9471 O   0  0  0  0  0  0  0  0  0  0  0  0
  -18.2898  -10.9520  -16.2553 C   0  0  2  0  0  0  0  0  0  0  0  0
  -18.2704   -9.8245  -17.1302 N   0  0  0  0  0  0  0  0  0  0  0  0
  -21.1631  -10.1095  -17.3573 C   0  0  2  0  0  0  0  0  0  0  0  0
  -18.6997  -17.1170  -13.9237 C   0  0  2  0  0  0  0  0  0  0  0  0
  -19.1419  -16.4089  -12.7134 N   0  0  0  0  0  0  0  0  0  0  0  0
  -16.9056  -11.7224  -16.3980 C   0  0  0  0  0  0  0  0  0  0  0  0
  -22.4356   -9.5377  -16.6486 C   0  0  2  0  0  0  0  0  0  0  0  0
  -22.0805   -9.1855  -15.3324 O   0  0  0  0  0  0  0  0  0  0  0  0
  -17.1835  -17.5454  -13.8048 C   0  0  0  0  0  0  0  0  0  0  0  0
  -16.9230  -12.9791  -15.4158 C   0  0  2  0  0  0  0  0  0  0  0  0
  -15.6409  -13.7075  -15.5290 N   0  0  0  0  0  0  0  0  0  0  0  0
  -23.5812  -10.6333  -16.6639 C   0  0  1  0  0  0  0  0  0  0  0  0
  -24.8152  -10.1017  -15.9819 N   0  0  0  0  0  0  0  0  0  0  0  0
  -16.5298  -17.8554  -15.2151 C   0  0  0  0  0  0  0  0  0  0  0  0
  -18.1196  -13.9338  -15.8229 C   0  0  2  0  0  0  0  0  0  0  0  0
  -23.9468  -11.0001  -18.2063 C   0  0  1  0  0  0  0  0  0  0  0  0
  -24.4240   -9.8926  -18.9432 O   0  0  0  0  0  0  0  0  0  0  0  0
  -17.1596  -17.5226  -16.3646 C   0  0  2  0  0  0  0  0  0  0  0  0
  -18.4388  -16.8807  -16.3823 O   0  0  0  0  0  0  0  0  0  0  0  0
  -19.4872  -13.1457  -15.6941 C   0  0  2  0  0  0  0  0  0  0  0  0
  -20.5672  -14.0143  -16.0746 O   0  0  0  0  0  0  0  0  0  0  0  0
  -22.6581  -11.5436  -18.9085 C   0  0  0  0  0  0  0  0  0  0  0  0
  -21.5166  -10.5380  -18.7697 O   0  0  0  0  0  0  0  0  0  0  0  0
  -16.5614  -17.8077  -17.7415 C   0  0  0  0  0  0  0  0  0  0  0  0
  -17.4558  -18.6872  -18.4406 O   0  0  0  0  0  0  0  0  0  0  0  0
  -19.4745  -11.8990  -16.6651 C   0  0  1  0  0  0  0  0  0  0  0  0
  -20.7060  -11.2146  -16.5115 O   0  0  0  0  0  0  0  0  0  0  0  0
  -25.0431  -12.0744  -18.3704 C   0  0  0  0  0  0  0  0  0  0  0  0
  -24.9119  -10.3322  -14.5261 C   0  0  0  0  0  0  0  0  0  0  0  0
  1  2  1  1  0  0  0
  1  6  1  0  0  0  0
  1 21  1  0  0  0  0
  3  4  1  6  0  0  0
  3  8  1  0  0  0  0
  3 28  1  0  0  0  0
  5  9  1  0  0  0  0
  5 25  1  0  0  0  0
  5 29  1  1  0  0  0
  6  7  1  1  0  0  0
  6 11  1  0  0  0  0
  8 12  1  0  0  0  0
  9 10  1  1  0  0  0
  9 14  1  0  0  0  0
 11 16  1  0  0  0  0
 12 13  1  6  0  0  0
 12 17  1  0  0  0  0
 14 15  1  6  0  0  0
 14 18  1  0  0  0  0
 15 31  1  0  0  0  0
 16 20  1  0  0  0  0
 17  2  1  1  0  0  0
 17 22  1  0  0  0  0
 18 19  1  6  0  0  0
 18 24  1  0  0  0  0
 18 30  1  0  0  0  0
 20 21  1  0  0  0  0
 20 26  1  6  0  0  0
 22 23  1  6  0  0  0
 22 28  1  0  0  0  0
 24 25  1  0  0  0  0
 26 27  1  0  0  0  0
 28 29  1  1  0  0  0
M  END
>  <CHROM.1>
-176.32799409,-170.44631649,-89.51924938,-167.70208429,118.85293562,70.22147439
-20.00550805,-13.20760361,-16.34191582,0.82909244,0.18702020,3.08047703

>  <Name>
ligand

>  <RI>
0

>  <Rbt.Current_Directory>
/home/itssahil/PROJECTS/Mol_Feturizer/New_Systems/rnas/4GPW

>  <Rbt.Executable>
rbdock ($Id: //depot/dev/client3/rdock/2013.1/src/exe/rbdock.cxx#4 $)

>  <Rbt.Library>
libRbt.so (2013.1, Build901 2013/11/27)

>  <Rbt.Parameter_File>
/export/apps/rDock/src/rDock_2013.1_src/data/scripts/dock_solv.prm

>  <Rbt.Receptor>
prm/pocket_docking_8.prm

>  <SCORE>
-12.4777

>  <SCORE.INTER>
-4.86797

>  <SCORE.INTER.CONST>
1

>  <SCORE.INTER.POLAR>
0

>  <SCORE.INTER.ROT>
6

>  <SCORE.INTER.SOLV>
8.6483

>  <SCORE.INTER.VDW>
-13.7281

>  <SCORE.INTER.norm>
-0.157031

>  <SCORE.INTRA>
-7.60974

>  <SCORE.INTRA.DIHEDRAL>
-15.2411

>  <SCORE.INTRA.DIHEDRAL.0>
19.2558

>  <SCORE.INTRA.POLAR>
0

>  <SCORE.INTRA.POLAR.0>
0

>  <SCORE.INTRA.REPUL>
0

>  <SCORE.INTRA.REPUL.0>
0

>  <SCORE.INTRA.SOLV>
-2.26281

>  <SCORE.INTRA.SOLV.lig_0>
-64.5929

>  <SCORE.INTRA.VDW>
1.14221

>  <SCORE.INTRA.VDW.0>
-4.40538

>  <SCORE.INTRA.norm>
-0.245475

>  <SCORE.RESTR>
0

>  <SCORE.RESTR.CAVITY>
0

>  <SCORE.RESTR.norm>
0

>  <SCORE.SYSTEM>
0

>  <SCORE.SYSTEM.CONST>
0

>  <SCORE.SYSTEM.DIHEDRAL>
0

>  <SCORE.SYSTEM.SOLV>
0

>  <SCORE.SYSTEM.norm>
0

>  <SCORE.heavy>
31

>  <SCORE.norm>
-0.402507

>  <RMSD>
5.155

$$$$
ligand
 OpenBabel11021811493D
libRbt.so/2013.1/901 2013/11/27
 31 33  0  0  0  0  0  0  0  0999 V2000
  -23.1351  -16.6182  -15.5052 C   0  0  2  0  0  0  0  0  0  0  0  0
  -23.2487  -15.7379  -16.6137 O   0  0  0  0  0  0  0  0  0  0  0  0
  -24.1219  -11.5918  -17.0849 C   0  0  2  0  0  0  0  0  0  0  0  0
  -24.8466  -10.3627  -17.0493 N   0  0  0  0  0  0  0  0  0  0  0  0
  -23.7291   -9.9468  -14.3323 C   0  0  2  0  0  0  0  0  0  0  0  0
  -21.9316  -17.6016  -15.8167 C   0  0  2  0  0  0  0  0  0  0  0  0
  -20.7032  -16.8175  -16.0117 N   0  0  0  0  0  0  0  0  0  0  0  0
  -24.9371  -12.6300  -17.9723 C   0  0  0  0  0  0  0  0  0  0  0  0
  -22.5099   -9.2626  -13.6297 C   0  0  2  0  0  0  0  0  0  0  0  0
  -21.4636   -9.1671  -14.5671 O   0  0  0  0  0  0  0  0  0  0  0  0
  -22.2623  -18.4612  -17.1005 C   0  0  0  0  0  0  0  0  0  0  0  0
  -24.1250  -14.0022  -18.0186 C   0  0  2  0  0  0  0  0  0  0  0  0
  -24.8640  -14.9815  -18.8445 N   0  0  0  0  0  0  0  0  0  0  0  0
  -22.0796  -10.1237  -12.3701 C   0  0  1  0  0  0  0  0  0  0  0  0
  -20.9030   -9.4817  -11.6815 N   0  0  0  0  0  0  0  0  0  0  0  0
  -23.7776  -18.9239  -17.1453 C   0  0  0  0  0  0  0  0  0  0  0  0
  -23.9668  -14.5565  -16.5432 C   0  0  2  0  0  0  0  0  0  0  0  0
  -23.3254  -10.1999  -11.3264 C   0  0  1  0  0  0  0  0  0  0  0  0
  -23.7252   -8.9331  -10.8441 O   0  0  0  0  0  0  0  0  0  0  0  0
  -24.6931  -18.3980  -16.3003 C   0  0  2  0  0  0  0  0  0  0  0  0
  -24.3581  -17.4063  -15.3240 O   0  0  0  0  0  0  0  0  0  0  0  0
  -23.1709  -13.5027  -15.6691 C   0  0  2  0  0  0  0  0  0  0  0  0
  -23.0398  -14.0073  -14.3297 O   0  0  0  0  0  0  0  0  0  0  0  0
  -24.5444  -10.8604  -12.0523 C   0  0  0  0  0  0  0  0  0  0  0  0
  -24.8663  -10.1035  -13.3395 O   0  0  0  0  0  0  0  0  0  0  0  0
  -26.1614  -18.8210  -16.3129 C   0  0  0  0  0  0  0  0  0  0  0  0
  -26.9569  -17.6554  -16.5789 O   0  0  0  0  0  0  0  0  0  0  0  0
  -23.9712  -12.1411  -15.6207 C   0  0  1  0  0  0  0  0  0  0  0  0
  -23.2226  -11.2230  -14.8426 O   0  0  0  0  0  0  0  0  0  0  0  0
  -23.0493  -11.0281  -10.0533 C   0  0  0  0  0  0  0  0  0  0  0  0
  -19.5650   -9.9616  -12.0831 C   0  0  0  0  0  0  0  0  0  0  0  0
  1  2  1  6  0  0  0
  1  6  1  0  0  0  0
  1 21  1  0  0  0  0
  3  4  1  1  0  0  0
  3  8  1  0  0  0  0
  3 28  1  0  0  0  0
  5  9  1  0  0  0  0
  5 25  1  0  0  0  0
  5 29  1  1  0  0  0
  6  7  1  6  0  0  0
  6 11  1  0  0  0  0
  8 12  1  0  0  0  0
  9 10  1  6  0  0  0
  9 14  1  0  0  0  0
 11 16  1  0  0  0  0
 12 13  1  6  0  0  0
 12 17  1  0  0  0  0
 14 15  1  1  0  0  0
 14 18  1  0  0  0  0
 15 31  1  0  0  0  0
 16 20  1  0  0  0  0
 17  2  1  6  0  0  0
 17 22  1  0  0  0  0
 18 19  1  1  0  0  0
 18 24  1  0  0  0  0
 18 30  1  0  0  0  0
 20 21  1  0  0  0  0
 20 26  1  1  0  0  0
 22 23  1  1  0  0  0
 22 28  1  0  0  0  0
 24 25  1  0  0  0  0
 26 27  1  0  0  0  0
 28 29  1  1  0  0  0
M  END
>  <CHROM.1>
-163.78959745,-176.14517990,-93.65152144,-168.39515430,-120.64561191,74.55999561
-23.46649812,-13.35886622,-14.96799434,-1.87965712,-0.97884672,0.24864298

>  <Name>
ligand

>  <RI>
0

>  <Rbt.Current_Directory>
/home/itssahil/PROJECTS/Mol_Feturizer/New_Systems/rnas/4GPW

>  <Rbt.Executable>
rbdock ($Id: //depot/dev/client3/rdock/2013.1/src/exe/rbdock.cxx#4 $)

>  <Rbt.Library>
libRbt.so (2013.1, Build901 2013/11/27)

>  <Rbt.Parameter_File>
/export/apps/rDock/src/rDock_2013.1_src/data/scripts/dock_solv.prm

>  <Rbt.Receptor>
prm/pocket_docking_8.prm

>  <SCORE>
-8.463

>  <SCORE.INTER>
-1.38942

>  <SCORE.INTER.CONST>
1

>  <SCORE.INTER.POLAR>
0

>  <SCORE.INTER.ROT>
6

>  <SCORE.INTER.SOLV>
8.44114

>  <SCORE.INTER.VDW>
-11.34

>  <SCORE.INTER.norm>
-0.0448201

>  <SCORE.INTRA>
-7.07358

>  <SCORE.INTRA.DIHEDRAL>
-13.9129

>  <SCORE.INTRA.DIHEDRAL.0>
19.2558

>  <SCORE.INTRA.POLAR>
0

>  <SCORE.INTRA.POLAR.0>
0

>  <SCORE.INTRA.REPUL>
0

>  <SCORE.INTRA.REPUL.0>
0

>  <SCORE.INTRA.SOLV>
-1.98643

>  <SCORE.INTRA.SOLV.lig_0>
-64.5929

>  <SCORE.INTRA.VDW>
0.876085

>  <SCORE.INTRA.VDW.0>
-4.40538

>  <SCORE.INTRA.norm>
-0.22818

>  <SCORE.RESTR>
0

>  <SCORE.RESTR.CAVITY>
0

>  <SCORE.RESTR.norm>
0

>  <SCORE.SYSTEM>
0

>  <SCORE.SYSTEM.CONST>
0

>  <SCORE.SYSTEM.DIHEDRAL>
0

>  <SCORE.SYSTEM.SOLV>
0

>  <SCORE.SYSTEM.norm>
0

>  <SCORE.heavy>
31

>  <SCORE.norm>
-0.273

>  <RMSD>
5.443

$$$$
ligand
 OpenBabel11021811493D
libRbt.so/2013.1/901 2013/11/27
 31 33  0  0  0  0  0  0  0  0999 V2000
  -23.1583  -16.1800  -16.0786 C   0  0  2  0  0  0  0  0  0  0  0  0
  -23.9917  -15.9999  -14.9430 O   0  0  0  0  0  0  0  0  0  0  0  0
  -23.6090  -11.7956  -14.3496 C   0  0  2  0  0  0  0  0  0  0  0  0
  -23.8070  -10.4981  -13.7888 N   0  0  0  0  0  0  0  0  0  0  0  0
  -20.5735  -12.1097  -13.7189 C   0  0  2  0  0  0  0  0  0  0  0  0
  -23.3779  -17.6667  -16.5826 C   0  0  2  0  0  0  0  0  0  0  0  0
  -24.7964  -17.8601  -16.9178 N   0  0  0  0  0  0  0  0  0  0  0  0
  -25.0178  -12.3543  -14.8325 C   0  0  0  0  0  0  0  0  0  0  0  0
  -19.3340  -12.0778  -12.7644 C   0  0  2  0  0  0  0  0  0  0  0  0
  -19.3600  -13.2447  -11.9768 O   0  0  0  0  0  0  0  0  0  0  0  0
  -22.9185  -18.6837  -15.4641 C   0  0  0  0  0  0  0  0  0  0  0  0
  -24.7972  -13.8016  -15.4657 C   0  0  2  0  0  0  0  0  0  0  0  0
  -26.0961  -14.3380  -15.9268 N   0  0  0  0  0  0  0  0  0  0  0  0
  -19.3976  -10.7734  -11.8658 C   0  0  1  0  0  0  0  0  0  0  0  0
  -18.2126  -10.7267  -10.9363 N   0  0  0  0  0  0  0  0  0  0  0  0
  -21.5938  -18.2173  -14.7292 C   0  0  0  0  0  0  0  0  0  0  0  0
  -24.1837  -14.7581  -14.3621 C   0  0  2  0  0  0  0  0  0  0  0  0
  -19.3662   -9.4618  -12.8281 C   0  0  1  0  0  0  0  0  0  0  0  0
  -18.1899   -9.3709  -13.6061 O   0  0  0  0  0  0  0  0  0  0  0  0
  -21.1067  -16.9669  -14.8956 C   0  0  2  0  0  0  0  0  0  0  0  0
  -21.7444  -15.9987  -15.7351 O   0  0  0  0  0  0  0  0  0  0  0  0
  -22.7921  -14.1771  -13.8788 C   0  0  2  0  0  0  0  0  0  0  0  0
  -22.2461  -15.0439  -12.8707 O   0  0  0  0  0  0  0  0  0  0  0  0
  -20.5955   -9.5229  -13.7947 C   0  0  0  0  0  0  0  0  0  0  0  0
  -20.6017  -10.8457  -14.5586 O   0  0  0  0  0  0  0  0  0  0  0  0
  -19.8321  -16.4830  -14.2055 C   0  0  0  0  0  0  0  0  0  0  0  0
  -18.9348  -16.0010  -15.2178 O   0  0  0  0  0  0  0  0  0  0  0  0
  -23.0053  -12.7426  -13.2511 C   0  0  1  0  0  0  0  0  0  0  0  0
  -21.7393  -12.2527  -12.8438 O   0  0  0  0  0  0  0  0  0  0  0  0
  -19.4401   -8.1129  -12.0810 C   0  0  0  0  0  0  0  0  0  0  0  0
  -18.3135  -11.5324   -9.7024 C   0  0  0  0  0  0  0  0  0  0  0  0
  1  2  1  1  0  0  0
  1  6  1  0  0  0  0
  1 21  1  0  0  0  0
  3  4  1  1  0  0  0
  3  8  1  0  0  0  0
  3 28  1  0  0  0  0
  5  9  1  0  0  0  0
  5 25  1  0  0  0  0
  5 29  1  1  0  0  0
  6  7  1  1  0  0  0
  6 11  1  0  0  0  0
  8 12  1  0  0  0  0
  9 10  1  1  0  0  0
  9 14  1  0  0  0  0
 11 16  1  0  0  0  0
 12 13  1  1  0  0  0
 12 17  1  0  0  0  0
 14 15  1  1  0  0  0
 14 18  1  0  0  0  0
 15 31  1  0  0  0  0
 16 20  1  0  0  0  0
 17  2  1  6  0  0  0
 17 22  1  0  0  0  0
 18 19  1  6  0  0  0
 18 24  1  0  0  0  0
 18 30  1  0  0  0  0
 20 21  1  0  0  0  0
 20 26  1  6  0  0  0
 22 23  1  1  0  0  0
 22 28  1  0  0  0  0
 24 25  1  0  0  0  0
 26 27  1  0  0  0  0
 28 29  1  6  0  0  0
M  END
>  <CHROM.1>
-170.99287283,-158.84387911,-81.42889528,59.16070985,124.66193618,-61.93753312
-21.63365570,-13.52969074,-13.98806200,2.11510363,0.38479661,-2.89481278

>  <Name>
ligand

>  <RI>
0

>  <Rbt.Current_Directory>
/home/itssahil/PROJECTS/Mol_Feturizer/New_Systems/rnas/4GPW

>  <Rbt.Executable>
rbdock ($Id: //depot/dev/client3/rdock/2013.1/src/exe/rbdock.cxx#4 $)

>  <Rbt.Library>
libRbt.so (2013.1, Build901 2013/11/27)

>  <Rbt.Parameter_File>
/export/apps/rDock/src/rDock_2013.1_src/data/scripts/dock_solv.prm

>  <Rbt.Receptor>
prm/pocket_docking_5.prm

>  <SCORE>
-3.91815

>  <SCORE.INTER>
2.42046

>  <SCORE.INTER.CONST>
1

>  <SCORE.INTER.POLAR>
0

>  <SCORE.INTER.ROT>
6

>  <SCORE.INTER.SOLV>
9.73994

>  <SCORE.INTER.VDW>
-9.23301

>  <SCORE.INTER.norm>
0.0780794

>  <SCORE.INTRA>
-6.3424

>  <SCORE.INTRA.DIHEDRAL>
-14.7829

>  <SCORE.INTRA.DIHEDRAL.0>
19.2558

>  <SCORE.INTRA.POLAR>
0

>  <SCORE.INTRA.POLAR.0>
0

>  <SCORE.INTRA.REPUL>
0

>  <SCORE.INTRA.REPUL.0>
0

>  <SCORE.INTRA.SOLV>
-0.00854834

>  <SCORE.INTRA.SOLV.lig_0>
-64.5929

>  <SCORE.INTRA.VDW>
1.05335

>  <SCORE.INTRA.VDW.0>
-4.40538

>  <SCORE.INTRA.norm>
-0.204593

>  <SCORE.RESTR>
0.00378968

>  <SCORE.RESTR.CAVITY>
0.00378968

>  <SCORE.RESTR.norm>
0.000122248

>  <SCORE.SYSTEM>
0

>  <SCORE.SYSTEM.CONST>
0

>  <SCORE.SYSTEM.DIHEDRAL>
0

>  <SCORE.SYSTEM.SOLV>
0

>  <SCORE.SYSTEM.norm>
0

>  <SCORE.heavy>
31

>  <SCORE.norm>
-0.126392

>  <RMSD>
5.649

$$$$
ligand
 OpenBabel11021811493D
libRbt.so/2013.1/901 2013/11/27
 31 33  0  0  0  0  0  0  0  0999 V2000
  -19.5509  -18.4358  -13.5792 C   0  0  2  0  0  0  0  0  0  0  0  0
  -20.3183  -17.3313  -13.1234 O   0  0  0  0  0  0  0  0  0  0  0  0
  -23.8884  -15.3977  -14.4236 C   0  0  2  0  0  0  0  0  0  0  0  0
  -24.7884  -14.6625  -15.2523 N   0  0  0  0  0  0  0  0  0  0  0  0
  -24.5902  -18.8011  -16.1137 C   0  0  2  0  0  0  0  0  0  0  0  0
  -18.7539  -18.9934  -12.3277 C   0  0  2  0  0  0  0  0  0  0  0  0
  -19.7091  -19.3936  -11.2841 N   0  0  0  0  0  0  0  0  0  0  0  0
  -22.6111  -14.4924  -14.1427 C   0  0  0  0  0  0  0  0  0  0  0  0
  -24.3155  -18.4384  -17.6108 C   0  0  2  0  0  0  0  0  0  0  0  0
  -23.1156  -17.7037  -17.6684 O   0  0  0  0  0  0  0  0  0  0  0  0
  -17.7611  -17.8879  -11.7903 C   0  0  0  0  0  0  0  0  0  0  0  0
  -21.6073  -15.3100  -13.2110 C   0  0  2  0  0  0  0  0  0  0  0  0
  -20.4131  -14.4830  -12.9326 N   0  0  0  0  0  0  0  0  0  0  0  0
  -25.5342  -17.5987  -18.1791 C   0  0  1  0  0  0  0  0  0  0  0  0
  -25.2861  -17.2366  -19.6205 N   0  0  0  0  0  0  0  0  0  0  0  0
  -17.0587  -17.0841  -12.9620 C   0  0  0  0  0  0  0  0  0  0  0  0
  -21.1768  -16.6381  -13.9594 C   0  0  2  0  0  0  0  0  0  0  0  0
  -26.8885  -18.4957  -18.0854 C   0  0  1  0  0  0  0  0  0  0  0  0
  -26.8194  -19.6878  -18.8413 O   0  0  0  0  0  0  0  0  0  0  0  0
  -17.4905  -17.1919  -14.2390 C   0  0  2  0  0  0  0  0  0  0  0  0
  -18.5915  -18.0278  -14.6103 O   0  0  0  0  0  0  0  0  0  0  0  0
  -22.4616  -17.5176  -14.2486 C   0  0  2  0  0  0  0  0  0  0  0  0
  -22.0652  -18.7158  -14.9365 O   0  0  0  0  0  0  0  0  0  0  0  0
  -27.1336  -18.8735  -16.5866 C   0  0  0  0  0  0  0  0  0  0  0  0
  -25.8994  -19.5615  -16.0064 O   0  0  0  0  0  0  0  0  0  0  0  0
  -16.8370  -16.4346  -15.3940 C   0  0  0  0  0  0  0  0  0  0  0  0
  -15.4356  -16.3094  -15.1064 O   0  0  0  0  0  0  0  0  0  0  0  0
  -23.4597  -16.7114  -15.1710 C   0  0  1  0  0  0  0  0  0  0  0  0
  -24.5987  -17.5244  -15.3956 O   0  0  0  0  0  0  0  0  0  0  0  0
  -28.1645  -17.7903  -18.5925 C   0  0  0  0  0  0  0  0  0  0  0  0
  -24.6024  -15.9505  -19.8663 C   0  0  0  0  0  0  0  0  0  0  0  0
  1  2  1  1  0  0  0
  1  6  1  0  0  0  0
  1 21  1  0  0  0  0
  3  4  1  6  0  0  0
  3  8  1  0  0  0  0
  3 28  1  0  0  0  0
  5  9  1  0  0  0  0
  5 25  1  0  0  0  0
  5 29  1  1  0  0  0
  6  7  1  1  0  0  0
  6 11  1  0  0  0  0
  8 12  1  0  0  0  0
  9 10  1  1  0  0  0
  9 14  1  0  0  0  0
 11 16  1  0  0  0  0
 12 13  1  6  0  0  0
 12 17  1  0  0  0  0
 14 15  1  6  0  0  0
 14 18  1  0  0  0  0
 15 31  1  0  0  0  0
 16 20  1  0  0  0  0
 17  2  1  1  0  0  0
 17 22  1  0  0  0  0
 18 19  1  6  0  0  0
 18 24  1  0  0  0  0
 18 30  1  0  0  0  0
 20 21  1  0  0  0  0
 20 26  1  6  0  0  0
 22 23  1  6  0  0  0
 22 28  1  0  0  0  0
 24 25  1  0  0  0  0
 26 27  1  0  0  0  0
 28 29  1  1  0  0  0
M  END
>  <CHROM.1>
-177.52433383,-69.53762012,-90.82658379,-167.90816368,32.80958195,177.43977493
-22.28439280,-17.39601153,-15.36279123,0.41794403,0.31770117,2.01111097

>  <Name>
ligand

>  <RI>
0

>  <Rbt.Current_Directory>
/home/itssahil/PROJECTS/Mol_Feturizer/New_Systems/rnas/4GPW

>  <Rbt.Executable>
rbdock ($Id: //depot/dev/client3/rdock/2013.1/src/exe/rbdock.cxx#4 $)

>  <Rbt.Library>
libRbt.so (2013.1, Build901 2013/11/27)

>  <Rbt.Parameter_File>
/export/apps/rDock/src/rDock_2013.1_src/data/scripts/dock_solv.prm

>  <Rbt.Receptor>
prm/pocket_docking_7.prm

>  <SCORE>
-12.7298

>  <SCORE.INTER>
-6.56545

>  <SCORE.INTER.CONST>
1

>  <SCORE.INTER.POLAR>
0

>  <SCORE.INTER.ROT>
6

>  <SCORE.INTER.SOLV>
13.4533

>  <SCORE.INTER.VDW>
-16.4614

>  <SCORE.INTER.norm>
-0.211789

>  <SCORE.INTRA>
-6.16436

>  <SCORE.INTRA.DIHEDRAL>
-14.6329

>  <SCORE.INTRA.DIHEDRAL.0>
19.2558

>  <SCORE.INTRA.POLAR>
0

>  <SCORE.INTRA.POLAR.0>
0

>  <SCORE.INTRA.REPUL>
0

>  <SCORE.INTRA.REPUL.0>
0

>  <SCORE.INTRA.SOLV>
-2.5856

>  <SCORE.INTRA.SOLV.lig_0>
-64.5929

>  <SCORE.INTRA.VDW>
2.44489

>  <SCORE.INTRA.VDW.0>
-4.40538

>  <SCORE.INTRA.norm>
-0.19885

>  <SCORE.RESTR>
0

>  <SCORE.RESTR.CAVITY>
0

>  <SCORE.RESTR.norm>
0

>  <SCORE.SYSTEM>
0

>  <SCORE.SYSTEM.CONST>
0

>  <SCORE.SYSTEM.DIHEDRAL>
0

>  <SCORE.SYSTEM.SOLV>
0

>  <SCORE.SYSTEM.norm>
0

>  <SCORE.heavy>
31

>  <SCORE.norm>
-0.410639

>  <RMSD>
5.686

$$$$
ligand
 OpenBabel11021811493D
libRbt.so/2013.1/901 2013/11/27
 31 33  0  0  0  0  0  0  0  0999 V2000
  -16.9577  -15.3843  -14.8046 C   0  0  2  0  0  0  0  0  0  0  0  0
  -18.1486  -15.4390  -15.5762 O   0  0  0  0  0  0  0  0  0  0  0  0
  -19.7782  -13.1113  -18.7544 C   0  0  2  0  0  0  0  0  0  0  0  0
  -19.8911  -12.4718  -20.0255 N   0  0  0  0  0  0  0  0  0  0  0  0
  -22.2026  -15.0554  -19.0001 C   0  0  2  0  0  0  0  0  0  0  0  0
  -15.9186  -16.3676  -15.4871 C   0  0  2  0  0  0  0  0  0  0  0  0
  -15.6838  -15.9383  -16.8735 N   0  0  0  0  0  0  0  0  0  0  0  0
  -18.4630  -12.5759  -18.0378 C   0  0  0  0  0  0  0  0  0  0  0  0
  -23.1121  -15.9477  -19.9083 C   0  0  2  0  0  0  0  0  0  0  0  0
  -22.5505  -17.2382  -19.9540 O   0  0  0  0  0  0  0  0  0  0  0  0
  -16.4722  -17.8468  -15.4403 C   0  0  0  0  0  0  0  0  0  0  0  0
  -18.3391  -13.2847  -16.6142 C   0  0  2  0  0  0  0  0  0  0  0  0
  -17.1236  -12.7962  -15.9276 N   0  0  0  0  0  0  0  0  0  0  0  0
  -23.2003  -15.3051  -21.3548 C   0  0  1  0  0  0  0  0  0  0  0  0
  -24.0703  -16.1533  -22.2460 N   0  0  0  0  0  0  0  0  0  0  0  0
  -17.1906  -18.1810  -14.0675 C   0  0  0  0  0  0  0  0  0  0  0  0
  -18.2418  -14.8515  -16.8262 C   0  0  2  0  0  0  0  0  0  0  0  0
  -23.8533  -13.8193  -21.2384 C   0  0  1  0  0  0  0  0  0  0  0  0
  -25.1636  -13.8276  -20.7090 O   0  0  0  0  0  0  0  0  0  0  0  0
  -17.4973  -17.2040  -13.1843 C   0  0  2  0  0  0  0  0  0  0  0  0
  -17.1956  -15.8259  -13.4268 O   0  0  0  0  0  0  0  0  0  0  0  0
  -19.5492  -15.3644  -17.5578 C   0  0  2  0  0  0  0  0  0  0  0  0
  -19.4498  -16.7845  -17.7561 O   0  0  0  0  0  0  0  0  0  0  0  0
  -22.9479  -12.9484  -20.3052 C   0  0  0  0  0  0  0  0  0  0  0  0
  -22.7554  -13.6425  -18.9581 O   0  0  0  0  0  0  0  0  0  0  0  0
  -18.1873  -17.4886  -11.8510 C   0  0  0  0  0  0  0  0  0  0  0  0
  -19.4971  -16.9015  -11.8947 O   0  0  0  0  0  0  0  0  0  0  0  0
  -19.6769  -14.6644  -18.9688 C   0  0  1  0  0  0  0  0  0  0  0  0
  -20.8621  -15.1382  -19.5847 O   0  0  0  0  0  0  0  0  0  0  0  0
  -23.9836  -13.0662  -22.5796 C   0  0  0  0  0  0  0  0  0  0  0  0
  -23.4076  -17.2842  -22.9269 C   0  0  0  0  0  0  0  0  0  0  0  0
  1  2  1  6  0  0  0
  1  6  1  0  0  0  0
  1 21  1  0  0  0  0
  3  4  1  6  0  0  0
  3  8  1  0  0  0  0
  3 28  1  0  0  0  0
  5  9  1  0  0  0  0
  5 25  1  0  0  0  0
  5 29  1  6  0  0  0
  6  7  1  6  0  0  0
  6 11  1  0  0  0  0
  8 12  1  0  0  0  0
  9 10  1  6  0  0  0
  9 14  1  0  0  0  0
 11 16  1  0  0  0  0
 12 13  1  6  0  0  0
 12 17  1  0  0  0  0
 14 15  1  6  0  0  0
 14 18  1  0  0  0  0
 15 31  1  0  0  0  0
 16 20  1  0  0  0  0
 17  2  1  1  0  0  0
 17 22  1  0  0  0  0
 18 19  1  1  0  0  0
 18 24  1  0  0  0  0
 18 30  1  0  0  0  0
 20 21  1  0  0  0  0
 20 26  1  1  0  0  0
 22 23  1  6  0  0  0
 22 28  1  0  0  0  0
 24 25  1  0  0  0  0
 26 27  1  0  0  0  0
 28 29  1  1  0  0  0
M  END
>  <CHROM.1>
-73.04554525,-169.13161859,-85.39819530,-74.18716778,-113.21251860,-62.05170217
-20.08109872,-15.24483674,-17.79530279,-0.58470110,-0.68614533,-0.57091437

>  <Name>
ligand

>  <RI>
0

>  <Rbt.Current_Directory>
/home/itssahil/PROJECTS/Mol_Feturizer/New_Systems/rnas/4GPW

>  <Rbt.Executable>
rbdock ($Id: //depot/dev/client3/rdock/2013.1/src/exe/rbdock.cxx#4 $)

>  <Rbt.Library>
libRbt.so (2013.1, Build901 2013/11/27)

>  <Rbt.Parameter_File>
/export/apps/rDock/src/rDock_2013.1_src/data/scripts/dock_solv.prm

>  <Rbt.Receptor>
prm/pocket_docking_8.prm

>  <SCORE>
-10.2231

>  <SCORE.INTER>
-5.79499

>  <SCORE.INTER.CONST>
1

>  <SCORE.INTER.POLAR>
0

>  <SCORE.INTER.ROT>
6

>  <SCORE.INTER.SOLV>
5.91751

>  <SCORE.INTER.VDW>
-13.4358

>  <SCORE.INTER.norm>
-0.186935

>  <SCORE.INTRA>
-4.42811

>  <SCORE.INTRA.DIHEDRAL>
-14.6988

>  <SCORE.INTRA.DIHEDRAL.0>
19.2558

>  <SCORE.INTRA.POLAR>
0

>  <SCORE.INTRA.POLAR.0>
0

>  <SCORE.INTRA.REPUL>
0

>  <SCORE.INTRA.REPUL.0>
0

>  <SCORE.INTRA.SOLV>
2.42787

>  <SCORE.INTRA.SOLV.lig_0>
-64.5929

>  <SCORE.INTRA.VDW>
1.70734

>  <SCORE.INTRA.VDW.0>
-4.40538

>  <SCORE.INTRA.norm>
-0.142842

>  <SCORE.RESTR>
0

>  <SCORE.RESTR.CAVITY>
0

>  <SCORE.RESTR.norm>
0

>  <SCORE.SYSTEM>
0

>  <SCORE.SYSTEM.CONST>
0

>  <SCORE.SYSTEM.DIHEDRAL>
0

>  <SCORE.SYSTEM.SOLV>
0

>  <SCORE.SYSTEM.norm>
0

>  <SCORE.heavy>
31

>  <SCORE.norm>
-0.329777

>  <RMSD>
5.689

$$$$
ligand
 OpenBabel11021811493D
libRbt.so/2013.1/901 2013/11/27
 31 33  0  0  0  0  0  0  0  0999 V2000
  -24.1880  -16.3527  -15.7852 C   0  0  2  0  0  0  0  0  0  0  0  0
  -23.1956  -16.5257  -16.7861 O   0  0  0  0  0  0  0  0  0  0  0  0
  -21.2207  -13.7099  -19.3051 C   0  0  2  0  0  0  0  0  0  0  0  0
  -21.0055  -12.7873  -20.3727 N   0  0  0  0  0  0  0  0  0  0  0  0
  -22.5867  -10.6393  -18.1883 C   0  0  2  0  0  0  0  0  0  0  0  0
  -23.9848  -17.5145  -14.7263 C   0  0  2  0  0  0  0  0  0  0  0  0
  -22.6293  -17.4257  -14.1637 N   0  0  0  0  0  0  0  0  0  0  0  0
  -21.6186  -15.1173  -19.9301 C   0  0  0  0  0  0  0  0  0  0  0  0
  -22.0804   -9.6359  -17.0997 C   0  0  2  0  0  0  0  0  0  0  0  0
  -20.6737   -9.6923  -17.0751 O   0  0  0  0  0  0  0  0  0  0  0  0
  -24.2178  -18.9156  -15.4187 C   0  0  0  0  0  0  0  0  0  0  0  0
  -21.8528  -16.1514  -18.7384 C   0  0  2  0  0  0  0  0  0  0  0  0
  -22.2191  -17.4702  -19.2986 N   0  0  0  0  0  0  0  0  0  0  0  0
  -22.6985  -10.0310  -15.6944 C   0  0  1  0  0  0  0  0  0  0  0  0
  -22.2190   -9.0770  -14.6311 N   0  0  0  0  0  0  0  0  0  0  0  0
  -25.4301  -18.8920  -16.4396 C   0  0  0  0  0  0  0  0  0  0  0  0
  -23.0244  -15.6167  -17.8160 C   0  0  2  0  0  0  0  0  0  0  0  0
  -24.3210   -9.9494  -15.7844 C   0  0  1  0  0  0  0  0  0  0  0  0
  -24.7964   -8.6556  -16.0961 O   0  0  0  0  0  0  0  0  0  0  0  0
  -25.9920  -17.7252  -16.8290 C   0  0  2  0  0  0  0  0  0  0  0  0
  -25.5371  -16.4553  -16.3503 O   0  0  0  0  0  0  0  0  0  0  0  0
  -22.6203  -14.2070  -17.2183 C   0  0  2  0  0  0  0  0  0  0  0  0
  -23.6914  -13.7233  -16.3910 O   0  0  0  0  0  0  0  0  0  0  0  0
  -24.8090  -10.9371  -16.8959 C   0  0  0  0  0  0  0  0  0  0  0  0
  -24.1042  -10.6358  -18.2172 O   0  0  0  0  0  0  0  0  0  0  0  0
  -27.1627  -17.6638  -17.8091 C   0  0  0  0  0  0  0  0  0  0  0  0
  -26.7294  -16.9440  -18.9737 O   0  0  0  0  0  0  0  0  0  0  0  0
  -22.3864  -13.1790  -18.3954 C   0  0  1  0  0  0  0  0  0  0  0  0
  -22.0150  -11.9372  -17.8222 O   0  0  0  0  0  0  0  0  0  0  0  0
  -25.0582  -10.3282  -14.4821 C   0  0  0  0  0  0  0  0  0  0  0  0
  -21.5464   -9.6801  -13.4625 C   0  0  0  0  0  0  0  0  0  0  0  0
  1  2  1  6  0  0  0
  1  6  1  0  0  0  0
  1 21  1  0  0  0  0
  3  4  1  6  0  0  0
  3  8  1  0  0  0  0
  3 28  1  0  0  0  0
  5  9  1  0  0  0  0
  5 25  1  0  0  0  0
  5 29  1  1  0  0  0
  6  7  1  6  0  0  0
  6 11  1  0  0  0  0
  8 12  1  0  0  0  0
  9 10  1  1  0  0  0
  9 14  1  0  0  0  0
 11 16  1  0  0  0  0
 12 13  1  6  0  0  0
 12 17  1  0  0  0  0
 14 15  1  1  0  0  0
 14 18  1  0  0  0  0
 15 31  1  0  0  0  0
 16 20  1  0  0  0  0
 17  2  1  1  0  0  0
 17 22  1  0  0  0  0
 18 19  1  6  0  0  0
 18 24  1  0  0  0  0
 18 30  1  0  0  0  0
 20 21  1  0  0  0  0
 20 26  1  1  0  0  0
 22 23  1  1  0  0  0
 22 28  1  0  0  0  0
 24 25  1  0  0  0  0
 26 27  1  0  0  0  0
 28 29  1  1  0  0  0
M  END
>  <CHROM.1>
-175.01999973,168.79621958,-124.19943910,-179.09666133,-117.83736494,109.03858689
-23.42926997,-13.76004051,-16.96728069,1.94172840,-0.89368649,-2.75767795

>  <Name>
ligand

>  <RI>
0

>  <Rbt.Current_Directory>
/home/itssahil/PROJECTS/Mol_Feturizer/New_Systems/rnas/4GPW

>  <Rbt.Executable>
rbdock ($Id: //depot/dev/client3/rdock/2013.1/src/exe/rbdock.cxx#4 $)

>  <Rbt.Library>
libRbt.so (2013.1, Build901 2013/11/27)

>  <Rbt.Parameter_File>
/export/apps/rDock/src/rDock_2013.1_src/data/scripts/dock_solv.prm

>  <Rbt.Receptor>
prm/pocket_docking_6.prm

>  <SCORE>
-8.47382

>  <SCORE.INTER>
-3.12359

>  <SCORE.INTER.CONST>
1

>  <SCORE.INTER.POLAR>
0

>  <SCORE.INTER.ROT>
6

>  <SCORE.INTER.SOLV>
9.03596

>  <SCORE.INTER.VDW>
-12.6944

>  <SCORE.INTER.norm>
-0.100761

>  <SCORE.INTRA>
-5.35024

>  <SCORE.INTRA.DIHEDRAL>
-9.03314

>  <SCORE.INTRA.DIHEDRAL.0>
19.2558

>  <SCORE.INTRA.POLAR>
0

>  <SCORE.INTRA.POLAR.0>
0

>  <SCORE.INTRA.REPUL>
0

>  <SCORE.INTRA.REPUL.0>
0

>  <SCORE.INTRA.SOLV>
-3.1898

>  <SCORE.INTRA.SOLV.lig_0>
-64.5929

>  <SCORE.INTRA.VDW>
0.761233

>  <SCORE.INTRA.VDW.0>
-4.40538

>  <SCORE.INTRA.norm>
-0.172588

>  <SCORE.RESTR>
0

>  <SCORE.RESTR.CAVITY>
0

>  <SCORE.RESTR.norm>
0

>  <SCORE.SYSTEM>
0

>  <SCORE.SYSTEM.CONST>
0

>  <SCORE.SYSTEM.DIHEDRAL>
0

>  <SCORE.SYSTEM.SOLV>
0

>  <SCORE.SYSTEM.norm>
0

>  <SCORE.heavy>
31

>  <SCORE.norm>
-0.273349

>  <RMSD>
5.714

$$$$
ligand
 OpenBabel11021811493D
libRbt.so/2013.1/901 2013/11/27
 31 33  0  0  0  0  0  0  0  0999 V2000
  -17.7209  -14.6117  -15.7046 C   0  0  2  0  0  0  0  0  0  0  0  0
  -17.4629  -13.4633  -14.9102 O   0  0  0  0  0  0  0  0  0  0  0  0
  -19.1481   -9.5496  -14.7776 C   0  0  2  0  0  0  0  0  0  0  0  0
  -19.4817   -8.2202  -15.1760 N   0  0  0  0  0  0  0  0  0  0  0  0
  -21.9147   -9.3808  -16.4710 C   0  0  2  0  0  0  0  0  0  0  0  0
  -17.4165  -15.8776  -14.8006 C   0  0  2  0  0  0  0  0  0  0  0  0
  -18.2775  -15.8407  -13.6093 N   0  0  0  0  0  0  0  0  0  0  0  0
  -17.5633   -9.6797  -14.7393 C   0  0  0  0  0  0  0  0  0  0  0  0
  -23.4177   -9.6795  -16.1544 C   0  0  2  0  0  0  0  0  0  0  0  0
  -23.5590   -9.7713  -14.7564 O   0  0  0  0  0  0  0  0  0  0  0  0
  -15.8899  -15.8892  -14.3935 C   0  0  0  0  0  0  0  0  0  0  0  0
  -17.1888  -11.1629  -14.2876 C   0  0  2  0  0  0  0  0  0  0  0  0
  -15.7174  -11.3041  -14.2402 N   0  0  0  0  0  0  0  0  0  0  0  0
  -23.8456  -11.0291  -16.8676 C   0  0  1  0  0  0  0  0  0  0  0  0
  -25.2908  -11.3357  -16.5711 N   0  0  0  0  0  0  0  0  0  0  0  0
  -14.9429  -15.4406  -15.5829 C   0  0  0  0  0  0  0  0  0  0  0  0
  -17.7921  -12.1873  -15.3344 C   0  0  2  0  0  0  0  0  0  0  0  0
  -23.6598  -10.8637  -18.4756 C   0  0  1  0  0  0  0  0  0  0  0  0
  -24.4579   -9.8347  -19.0247 O   0  0  0  0  0  0  0  0  0  0  0  0
  -15.4486  -14.8747  -16.7021 C   0  0  2  0  0  0  0  0  0  0  0  0
  -16.8504  -14.6495  -16.8839 O   0  0  0  0  0  0  0  0  0  0  0  0
  -19.3674  -12.0308  -15.3741 C   0  0  2  0  0  0  0  0  0  0  0  0
  -19.9071  -12.9557  -16.3328 O   0  0  0  0  0  0  0  0  0  0  0  0
  -22.1584  -10.5378  -18.7731 C   0  0  0  0  0  0  0  0  0  0  0  0
  -21.7149   -9.3138  -17.9740 O   0  0  0  0  0  0  0  0  0  0  0  0
  -14.5672  -14.4322  -17.8693 C   0  0  0  0  0  0  0  0  0  0  0  0
  -14.7191  -13.0129  -18.0270 O   0  0  0  0  0  0  0  0  0  0  0  0
  -19.7436  -10.5624  -15.8205 C   0  0  1  0  0  0  0  0  0  0  0  0
  -21.1570  -10.4587  -15.8311 O   0  0  0  0  0  0  0  0  0  0  0  0
  -24.0262  -12.1173  -19.2986 C   0  0  0  0  0  0  0  0  0  0  0  0
  -25.5536  -12.1814  -15.3890 C   0  0  0  0  0  0  0  0  0  0  0  0
  1  2  1  1  0  0  0
  1  6  1  0  0  0  0
  1 21  1  0  0  0  0
  3  4  1  6  0  0  0
  3  8  1  0  0  0  0
  3 28  1  0  0  0  0
  5  9  1  0  0  0  0
  5 25  1  0  0  0  0
  5 29  1  6  0  0  0
  6  7  1  1  0  0  0
  6 11  1  0  0  0  0
  8 12  1  0  0  0  0
  9 10  1  1  0  0  0
  9 14  1  0  0  0  0
 11 16  1  0  0  0  0
 12 13  1  6  0  0  0
 12 17  1  0  0  0  0
 14 15  1  6  0  0  0
 14 18  1  0  0  0  0
 15 31  1  0  0  0  0
 16 20  1  0  0  0  0
 17  2  1  1  0  0  0
 17 22  1  0  0  0  0
 18 19  1  6  0  0  0
 18 24  1  0  0  0  0
 18 30  1  0  0  0  0
 20 21  1  0  0  0  0
 20 26  1  6  0  0  0
 22 23  1  6  0  0  0
 22 28  1  0  0  0  0
 24 25  1  0  0  0  0
 26 27  1  0  0  0  0
 28 29  1  1  0  0  0
M  END
>  <CHROM.1>
-171.46367828,-177.60479989,-91.53463791,-172.67077843,-118.11192384,76.45578474
-19.70008364,-12.00491736,-16.16181900,0.40595826,0.28458944,-2.91295338

>  <Name>
ligand

>  <RI>
0

>  <Rbt.Current_Directory>
/home/itssahil/PROJECTS/Mol_Feturizer/New_Systems/rnas/4GPW

>  <Rbt.Executable>
rbdock ($Id: //depot/dev/client3/rdock/2013.1/src/exe/rbdock.cxx#4 $)

>  <Rbt.Library>
libRbt.so (2013.1, Build901 2013/11/27)

>  <Rbt.Parameter_File>
/export/apps/rDock/src/rDock_2013.1_src/data/scripts/dock_solv.prm

>  <Rbt.Receptor>
prm/pocket_docking_8.prm

>  <SCORE>
-12.3357

>  <SCORE.INTER>
-4.59954

>  <SCORE.INTER.CONST>
1

>  <SCORE.INTER.POLAR>
0

>  <SCORE.INTER.ROT>
6

>  <SCORE.INTER.SOLV>
6.58944

>  <SCORE.INTER.VDW>
-12.8628

>  <SCORE.INTER.norm>
-0.148372

>  <SCORE.INTRA>
-7.73617

>  <SCORE.INTRA.DIHEDRAL>
-15.0092

>  <SCORE.INTRA.DIHEDRAL.0>
19.2558

>  <SCORE.INTRA.POLAR>
0

>  <SCORE.INTRA.POLAR.0>
0

>  <SCORE.INTRA.REPUL>
0

>  <SCORE.INTRA.REPUL.0>
0

>  <SCORE.INTRA.SOLV>
-2.45787

>  <SCORE.INTRA.SOLV.lig_0>
-64.5929

>  <SCORE.INTRA.VDW>
0.997365

>  <SCORE.INTRA.VDW.0>
-4.40538

>  <SCORE.INTRA.norm>
-0.249554

>  <SCORE.RESTR>
0

>  <SCORE.RESTR.CAVITY>
0

>  <SCORE.RESTR.norm>
0

>  <SCORE.SYSTEM>
0

>  <SCORE.SYSTEM.CONST>
0

>  <SCORE.SYSTEM.DIHEDRAL>
0

>  <SCORE.SYSTEM.SOLV>
0

>  <SCORE.SYSTEM.norm>
0

>  <SCORE.heavy>
31

>  <SCORE.norm>
-0.397926

>  <RMSD>
5.876

$$$$
ligand
 OpenBabel11021811493D
libRbt.so/2013.1/901 2013/11/27
 31 33  0  0  0  0  0  0  0  0999 V2000
  -19.8571  -18.9010  -13.4586 C   0  0  2  0  0  0  0  0  0  0  0  0
  -20.6397  -17.8037  -13.0112 O   0  0  0  0  0  0  0  0  0  0  0  0
  -23.7139  -15.3724  -14.6881 C   0  0  2  0  0  0  0  0  0  0  0  0
  -24.3694  -14.4568  -15.5652 N   0  0  0  0  0  0  0  0  0  0  0  0
  -24.3310  -18.4228  -16.9752 C   0  0  2  0  0  0  0  0  0  0  0  0
  -19.3228  -19.6461  -12.1656 C   0  0  2  0  0  0  0  0  0  0  0  0
  -20.4663  -20.0927  -11.3565 N   0  0  0  0  0  0  0  0  0  0  0  0
  -22.4506  -14.6432  -14.0538 C   0  0  0  0  0  0  0  0  0  0  0  0
  -25.3448  -18.0812  -18.1171 C   0  0  2  0  0  0  0  0  0  0  0  0
  -24.9797  -16.8373  -18.6667 O   0  0  0  0  0  0  0  0  0  0  0  0
  -18.3897  -18.6767  -11.3373 C   0  0  0  0  0  0  0  0  0  0  0  0
  -21.7207  -15.6630  -13.0681 C   0  0  2  0  0  0  0  0  0  0  0  0
  -20.5443  -15.0023  -12.4624 N   0  0  0  0  0  0  0  0  0  0  0  0
  -26.8128  -18.0399  -17.5200 C   0  0  1  0  0  0  0  0  0  0  0  0
  -27.8041  -17.7086  -18.6053 N   0  0  0  0  0  0  0  0  0  0  0  0
  -17.4525  -17.7985  -12.2663 C   0  0  0  0  0  0  0  0  0  0  0  0
  -21.2565  -16.9331  -13.8932 C   0  0  2  0  0  0  0  0  0  0  0  0
  -27.1766  -19.4995  -16.8999 C   0  0  1  0  0  0  0  0  0  0  0  0
  -27.1505  -20.5346  -17.8618 O   0  0  0  0  0  0  0  0  0  0  0  0
  -17.6552  -17.7354  -13.6018 C   0  0  2  0  0  0  0  0  0  0  0  0
  -18.7114  -18.4483  -14.2538 O   0  0  0  0  0  0  0  0  0  0  0  0
  -22.5234  -17.6350  -14.5334 C   0  0  2  0  0  0  0  0  0  0  0  0
  -22.0942  -18.7801  -15.2886 O   0  0  0  0  0  0  0  0  0  0  0  0
  -26.1378  -19.8385  -15.7797 C   0  0  0  0  0  0  0  0  0  0  0  0
  -24.7163  -19.7417  -16.3304 O   0  0  0  0  0  0  0  0  0  0  0  0
  -16.7713  -16.9017  -14.5285 C   0  0  0  0  0  0  0  0  0  0  0  0
  -16.3614  -15.7265  -13.8123 O   0  0  0  0  0  0  0  0  0  0  0  0
  -23.2505  -16.6282  -15.5106 C   0  0  1  0  0  0  0  0  0  0  0  0
  -24.3826  -17.2870  -16.0517 O   0  0  0  0  0  0  0  0  0  0  0  0
  -28.5803  -19.5979  -16.2651 C   0  0  0  0  0  0  0  0  0  0  0  0
  -27.9528  -16.2787  -18.9447 C   0  0  0  0  0  0  0  0  0  0  0  0
  1  2  1  1  0  0  0
  1  6  1  0  0  0  0
  1 21  1  0  0  0  0
  3  4  1  6  0  0  0
  3  8  1  0  0  0  0
  3 28  1  0  0  0  0
  5  9  1  0  0  0  0
  5 25  1  0  0  0  0
  5 29  1  1  0  0  0
  6  7  1  1  0  0  0
  6 11  1  0  0  0  0
  8 12  1  0  0  0  0
  9 10  1  1  0  0  0
  9 14  1  0  0  0  0
 11 16  1  0  0  0  0
 12 13  1  6  0  0  0
 12 17  1  0  0  0  0
 14 15  1  6  0  0  0
 14 18  1  0  0  0  0
 15 31  1  0  0  0  0
 16 20  1  0  0  0  0
 17  2  1  1  0  0  0
 17 22  1  0  0  0  0
 18 19  1  6  0  0  0
 18 24  1  0  0  0  0
 18 30  1  0  0  0  0
 20 21  1  0  0  0  0
 20 26  1  6  0  0  0
 22 23  1  6  0  0  0
 22 28  1  0  0  0  0
 24 25  1  0  0  0  0
 26 27  1  0  0  0  0
 28 29  1  1  0  0  0
M  END
>  <CHROM.1>
179.74653614,-133.26535810,-81.73764642,-166.18258424,-34.17288659,174.07630313
-22.67746652,-17.71313484,-15.09016502,0.03064974,0.50863184,2.91210485

>  <Name>
ligand

>  <RI>
0

>  <Rbt.Current_Directory>
/home/itssahil/PROJECTS/Mol_Feturizer/New_Systems/rnas/4GPW

>  <Rbt.Executable>
rbdock ($Id: //depot/dev/client3/rdock/2013.1/src/exe/rbdock.cxx#4 $)

>  <Rbt.Library>
libRbt.so (2013.1, Build901 2013/11/27)

>  <Rbt.Parameter_File>
/export/apps/rDock/src/rDock_2013.1_src/data/scripts/dock_solv.prm

>  <Rbt.Receptor>
prm/pocket_docking_6.prm

>  <SCORE>
-13.6905

>  <SCORE.INTER>
-9.93998

>  <SCORE.INTER.CONST>
1

>  <SCORE.INTER.POLAR>
0

>  <SCORE.INTER.ROT>
6

>  <SCORE.INTER.SOLV>
17.2369

>  <SCORE.INTER.VDW>
-19.9723

>  <SCORE.INTER.norm>
-0.320644

>  <SCORE.INTRA>
-3.7505

>  <SCORE.INTRA.DIHEDRAL>
-8.60126

>  <SCORE.INTRA.DIHEDRAL.0>
19.2558

>  <SCORE.INTRA.POLAR>
0

>  <SCORE.INTRA.POLAR.0>
0

>  <SCORE.INTRA.REPUL>
0

>  <SCORE.INTRA.REPUL.0>
0

>  <SCORE.INTRA.SOLV>
-2.94073

>  <SCORE.INTRA.SOLV.lig_0>
-64.5929

>  <SCORE.INTRA.VDW>
2.02049

>  <SCORE.INTRA.VDW.0>
-4.40538

>  <SCORE.INTRA.norm>
-0.120984

>  <SCORE.RESTR>
0

>  <SCORE.RESTR.CAVITY>
0

>  <SCORE.RESTR.norm>
0

>  <SCORE.SYSTEM>
0

>  <SCORE.SYSTEM.CONST>
0

>  <SCORE.SYSTEM.DIHEDRAL>
0

>  <SCORE.SYSTEM.SOLV>
0

>  <SCORE.SYSTEM.norm>
0

>  <SCORE.heavy>
31

>  <SCORE.norm>
-0.441628

>  <RMSD>
5.935

$$$$
ligand
 OpenBabel11021811493D
libRbt.so/2013.1/901 2013/11/27
 31 33  0  0  0  0  0  0  0  0999 V2000
  -18.5430  -15.7351  -15.5444 C   0  0  2  0  0  0  0  0  0  0  0  0
  -17.8953  -16.4228  -16.6046 O   0  0  0  0  0  0  0  0  0  0  0  0
  -19.2718  -18.4858  -20.0722 C   0  0  2  0  0  0  0  0  0  0  0  0
  -19.9070  -19.4794  -20.8763 N   0  0  0  0  0  0  0  0  0  0  0  0
  -22.3308  -17.8227  -20.7751 C   0  0  2  0  0  0  0  0  0  0  0  0
  -17.4928  -14.7076  -14.9496 C   0  0  2  0  0  0  0  0  0  0  0  0
  -17.0645  -13.7838  -16.0103 N   0  0  0  0  0  0  0  0  0  0  0  0
  -18.1722  -19.1974  -19.1698 C   0  0  0  0  0  0  0  0  0  0  0  0
  -23.0038  -16.6998  -21.6322 C   0  0  2  0  0  0  0  0  0  0  0  0
  -21.9939  -16.0437  -22.3617 O   0  0  0  0  0  0  0  0  0  0  0  0
  -16.2582  -15.4913  -14.3512 C   0  0  0  0  0  0  0  0  0  0  0  0
  -17.4567  -18.0872  -18.2755 C   0  0  2  0  0  0  0  0  0  0  0  0
  -16.4252  -18.7279  -17.4312 N   0  0  0  0  0  0  0  0  0  0  0  0
  -23.7685  -15.6954  -20.6733 C   0  0  1  0  0  0  0  0  0  0  0  0
  -24.4210  -14.6036  -21.4812 N   0  0  0  0  0  0  0  0  0  0  0  0
  -16.6916  -16.8099  -13.5857 C   0  0  0  0  0  0  0  0  0  0  0  0
  -18.5419  -17.3878  -17.3578 C   0  0  2  0  0  0  0  0  0  0  0  0
  -24.9183  -16.5084  -19.8583 C   0  0  1  0  0  0  0  0  0  0  0  0
  -25.8889  -17.0945  -20.7019 O   0  0  0  0  0  0  0  0  0  0  0  0
  -17.9492  -17.2959  -13.6900 C   0  0  2  0  0  0  0  0  0  0  0  0
  -18.9560  -16.6598  -14.4841 O   0  0  0  0  0  0  0  0  0  0  0  0
  -19.6385  -16.7017  -18.2713 C   0  0  2  0  0  0  0  0  0  0  0  0
  -20.6250  -16.0780  -17.4326 O   0  0  0  0  0  0  0  0  0  0  0  0
  -24.2325  -17.6446  -19.0288 C   0  0  0  0  0  0  0  0  0  0  0  0
  -23.3856  -18.5284  -19.9426 O   0  0  0  0  0  0  0  0  0  0  0  0
  -18.4034  -18.5622  -12.9653 C   0  0  0  0  0  0  0  0  0  0  0  0
  -19.3893  -18.1868  -11.9911 O   0  0  0  0  0  0  0  0  0  0  0  0
  -20.3500  -17.7977  -19.1599 C   0  0  1  0  0  0  0  0  0  0  0  0
  -21.3122  -17.1447  -19.9700 O   0  0  0  0  0  0  0  0  0  0  0  0
  -25.7348  -15.6503  -18.8683 C   0  0  0  0  0  0  0  0  0  0  0  0
  -23.5844  -13.4262  -21.7905 C   0  0  0  0  0  0  0  0  0  0  0  0
  1  2  1  6  0  0  0
  1  6  1  0  0  0  0
  1 21  1  0  0  0  0
  3  4  1  6  0  0  0
  3  8  1  0  0  0  0
  3 28  1  0  0  0  0
  5  9  1  0  0  0  0
  5 25  1  0  0  0  0
  5 29  1  1  0  0  0
  6  7  1  6  0  0  0
  6 11  1  0  0  0  0
  8 12  1  0  0  0  0
  9 10  1  1  0  0  0
  9 14  1  0  0  0  0
 11 16  1  0  0  0  0
 12 13  1  1  0  0  0
 12 17  1  0  0  0  0
 14 15  1  6  0  0  0
 14 18  1  0  0  0  0
 15 31  1  0  0  0  0
 16 20  1  0  0  0  0
 17  2  1  6  0  0  0
 17 22  1  0  0  0  0
 18 19  1  6  0  0  0
 18 24  1  0  0  0  0
 18 30  1  0  0  0  0
 20 21  1  0  0  0  0
 20 26  1  1  0  0  0
 22 23  1  1  0  0  0
 22 28  1  0  0  0  0
 24 25  1  0  0  0  0
 26 27  1  0  0  0  0
 28 29  1  6  0  0  0
M  END
>  <CHROM.1>
-179.12049732,-172.17676737,-86.75832933,-171.14166593,113.99342589,72.11835046
-20.47941186,-16.84816563,-18.03589732,0.70187221,-0.38247447,1.23369283

>  <Name>
ligand

>  <RI>
0

>  <Rbt.Current_Directory>
/home/itssahil/PROJECTS/Mol_Feturizer/New_Systems/rnas/4GPW

>  <Rbt.Executable>
rbdock ($Id: //depot/dev/client3/rdock/2013.1/src/exe/rbdock.cxx#4 $)

>  <Rbt.Library>
libRbt.so (2013.1, Build901 2013/11/27)

>  <Rbt.Parameter_File>
/export/apps/rDock/src/rDock_2013.1_src/data/scripts/dock_solv.prm

>  <Rbt.Receptor>
prm/pocket_docking_7.prm

>  <SCORE>
-8.81167

>  <SCORE.INTER>
-1.03851

>  <SCORE.INTER.CONST>
1

>  <SCORE.INTER.POLAR>
0

>  <SCORE.INTER.ROT>
6

>  <SCORE.INTER.SOLV>
7.80575

>  <SCORE.INTER.VDW>
-10.8943

>  <SCORE.INTER.norm>
-0.0335004

>  <SCORE.INTRA>
-7.77316

>  <SCORE.INTRA.DIHEDRAL>
-15.6307

>  <SCORE.INTRA.DIHEDRAL.0>
19.2558

>  <SCORE.INTRA.POLAR>
0

>  <SCORE.INTRA.POLAR.0>
0

>  <SCORE.INTRA.REPUL>
0

>  <SCORE.INTRA.REPUL.0>
0

>  <SCORE.INTRA.SOLV>
-2.44771

>  <SCORE.INTRA.SOLV.lig_0>
-64.5929

>  <SCORE.INTRA.VDW>
1.26607

>  <SCORE.INTRA.VDW.0>
-4.40538

>  <SCORE.INTRA.norm>
-0.250747

>  <SCORE.RESTR>
0

>  <SCORE.RESTR.CAVITY>
0

>  <SCORE.RESTR.norm>
0

>  <SCORE.SYSTEM>
0

>  <SCORE.SYSTEM.CONST>
0

>  <SCORE.SYSTEM.DIHEDRAL>
0

>  <SCORE.SYSTEM.SOLV>
0

>  <SCORE.SYSTEM.norm>
0

>  <SCORE.heavy>
31

>  <SCORE.norm>
-0.284247

>  <RMSD>
5.946

$$$$
ligand
 OpenBabel11021811493D
libRbt.so/2013.1/901 2013/11/27
 31 33  0  0  0  0  0  0  0  0999 V2000
  -19.7126  -18.8586  -13.3983 C   0  0  2  0  0  0  0  0  0  0  0  0
  -20.4448  -17.7406  -12.9182 O   0  0  0  0  0  0  0  0  0  0  0  0
  -23.5959  -15.3468  -14.5041 C   0  0  2  0  0  0  0  0  0  0  0  0
  -24.2832  -14.4270  -15.3519 N   0  0  0  0  0  0  0  0  0  0  0  0
  -25.0850  -16.7235  -16.9777 C   0  0  2  0  0  0  0  0  0  0  0  0
  -19.1250  -19.6061  -12.1301 C   0  0  2  0  0  0  0  0  0  0  0  0
  -20.2321  -20.0207  -11.2559 N   0  0  0  0  0  0  0  0  0  0  0  0
  -22.3440  -14.6019  -13.8654 C   0  0  0  0  0  0  0  0  0  0  0  0
  -26.0004  -17.9188  -17.4035 C   0  0  2  0  0  0  0  0  0  0  0  0
  -26.6795  -18.3776  -16.2585 O   0  0  0  0  0  0  0  0  0  0  0  0
  -18.1265  -18.6520  -11.3623 C   0  0  0  0  0  0  0  0  0  0  0  0
  -21.5786  -15.6266  -12.9122 C   0  0  2  0  0  0  0  0  0  0  0  0
  -20.4123  -14.9516  -12.3029 N   0  0  0  0  0  0  0  0  0  0  0  0
  -25.1068  -19.0624  -18.0415 C   0  0  1  0  0  0  0  0  0  0  0  0
  -25.9714  -20.2251  -18.4552 N   0  0  0  0  0  0  0  0  0  0  0  0
  -17.2223  -17.8022  -12.3486 C   0  0  0  0  0  0  0  0  0  0  0  0
  -21.0924  -16.8646  -13.7725 C   0  0  2  0  0  0  0  0  0  0  0  0
  -24.3481  -18.4746  -19.3554 C   0  0  1  0  0  0  0  0  0  0  0  0
  -25.2380  -18.0355  -20.3616 O   0  0  0  0  0  0  0  0  0  0  0  0
  -17.4964  -17.7444  -13.6716 C   0  0  2  0  0  0  0  0  0  0  0  0
  -18.6024  -18.4379  -14.2588 O   0  0  0  0  0  0  0  0  0  0  0  0
  -22.3486  -17.5822  -14.4164 C   0  0  2  0  0  0  0  0  0  0  0  0
  -21.8997  -18.6979  -15.2035 O   0  0  0  0  0  0  0  0  0  0  0  0
  -23.4592  -17.2632  -18.9176 C   0  0  0  0  0  0  0  0  0  0  0  0
  -24.3049  -16.2262  -18.1809 O   0  0  0  0  0  0  0  0  0  0  0  0
  -16.6463  -16.9378  -14.6523 C   0  0  0  0  0  0  0  0  0  0  0  0
  -17.4490  -15.8560  -15.1500 O   0  0  0  0  0  0  0  0  0  0  0  0
  -23.1108  -16.5707  -15.3614 C   0  0  1  0  0  0  0  0  0  0  0  0
  -24.2323  -17.2442  -15.9066 O   0  0  0  0  0  0  0  0  0  0  0  0
  -23.4240  -19.4834  -20.0706 C   0  0  0  0  0  0  0  0  0  0  0  0
  -26.0940  -21.3307  -17.4834 C   0  0  0  0  0  0  0  0  0  0  0  0
  1  2  1  1  0  0  0
  1  6  1  0  0  0  0
  1 21  1  0  0  0  0
  3  4  1  6  0  0  0
  3  8  1  0  0  0  0
  3 28  1  0  0  0  0
  5  9  1  0  0  0  0
  5 25  1  0  0  0  0
  5 29  1  1  0  0  0
  6  7  1  1  0  0  0
  6 11  1  0  0  0  0
  8 12  1  0  0  0  0
  9 10  1  1  0  0  0
  9 14  1  0  0  0  0
 11 16  1  0  0  0  0
 12 13  1  6  0  0  0
 12 17  1  0  0  0  0
 14 15  1  6  0  0  0
 14 18  1  0  0  0  0
 15 31  1  0  0  0  0
 16 20  1  0  0  0  0
 17  2  1  1  0  0  0
 17 22  1  0  0  0  0
 18 19  1  6  0  0  0
 18 24  1  0  0  0  0
 18 30  1  0  0  0  0
 20 21  1  0  0  0  0
 20 26  1  6  0  0  0
 22 23  1  6  0  0  0
 22 28  1  0  0  0  0
 24 25  1  0  0  0  0
 26 27  1  0  0  0  0
 28 29  1  1  0  0  0
M  END
>  <CHROM.1>
179.91708069,169.82311021,-95.15437593,-170.40203219,-113.39432218,71.09783880
-22.12641507,-17.64678762,-15.39903717,-0.36891498,0.59372759,-2.68307712

>  <Name>
ligand

>  <RI>
0

>  <Rbt.Current_Directory>
/home/itssahil/PROJECTS/Mol_Feturizer/New_Systems/rnas/4GPW

>  <Rbt.Executable>
rbdock ($Id: //depot/dev/client3/rdock/2013.1/src/exe/rbdock.cxx#4 $)

>  <Rbt.Library>
libRbt.so (2013.1, Build901 2013/11/27)

>  <Rbt.Parameter_File>
/export/apps/rDock/src/rDock_2013.1_src/data/scripts/dock_solv.prm

>  <Rbt.Receptor>
prm/pocket_docking_6.prm

>  <SCORE>
-13.7374

>  <SCORE.INTER>
-5.9564

>  <SCORE.INTER.CONST>
1

>  <SCORE.INTER.POLAR>
0

>  <SCORE.INTER.ROT>
6

>  <SCORE.INTER.SOLV>
14.461

>  <SCORE.INTER.VDW>
-16.3913

>  <SCORE.INTER.norm>
-0.192142

>  <SCORE.INTRA>
-7.78104

>  <SCORE.INTRA.DIHEDRAL>
-15.2078

>  <SCORE.INTRA.DIHEDRAL.0>
19.2558

>  <SCORE.INTRA.POLAR>
0

>  <SCORE.INTRA.POLAR.0>
0

>  <SCORE.INTRA.REPUL>
0

>  <SCORE.INTRA.REPUL.0>
0

>  <SCORE.INTRA.SOLV>
-2.04488

>  <SCORE.INTRA.SOLV.lig_0>
-64.5929

>  <SCORE.INTRA.VDW>
0.845311

>  <SCORE.INTRA.VDW.0>
-4.40538

>  <SCORE.INTRA.norm>
-0.251001

>  <SCORE.RESTR>
0

>  <SCORE.RESTR.CAVITY>
0

>  <SCORE.RESTR.norm>
0

>  <SCORE.SYSTEM>
0

>  <SCORE.SYSTEM.CONST>
0

>  <SCORE.SYSTEM.DIHEDRAL>
0

>  <SCORE.SYSTEM.SOLV>
0

>  <SCORE.SYSTEM.norm>
0

>  <SCORE.heavy>
31

>  <SCORE.norm>
-0.443143

>  <RMSD>
5.974

$$$$
ligand
 OpenBabel11021811493D
libRbt.so/2013.1/901 2013/11/27
 31 33  0  0  0  0  0  0  0  0999 V2000
  -16.6176  -17.1062  -19.1829 C   0  0  2  0  0  0  0  0  0  0  0  0
  -17.3365  -17.0333  -17.9604 O   0  0  0  0  0  0  0  0  0  0  0  0
  -19.1363  -13.8116  -15.8260 C   0  0  2  0  0  0  0  0  0  0  0  0
  -19.2562  -12.6208  -15.0481 N   0  0  0  0  0  0  0  0  0  0  0  0
  -20.4808  -12.8475  -18.5313 C   0  0  2  0  0  0  0  0  0  0  0  0
  -16.6836  -18.6134  -19.6693 C   0  0  2  0  0  0  0  0  0  0  0  0
  -18.0899  -19.0044  -19.8458 N   0  0  0  0  0  0  0  0  0  0  0  0
  -18.2826  -14.8682  -14.9986 C   0  0  0  0  0  0  0  0  0  0  0  0
  -20.8654  -11.5661  -19.3427 C   0  0  2  0  0  0  0  0  0  0  0  0
  -19.8191  -11.2901  -20.2437 O   0  0  0  0  0  0  0  0  0  0  0  0
  -15.9661  -19.5470  -18.6157 C   0  0  0  0  0  0  0  0  0  0  0  0
  -18.1535  -16.2020  -15.8638 C   0  0  2  0  0  0  0  0  0  0  0  0
  -17.3665  -17.2014  -15.1093 N   0  0  0  0  0  0  0  0  0  0  0  0
  -21.0970  -10.3603  -18.3400 C   0  0  1  0  0  0  0  0  0  0  0  0
  -21.4653   -9.1149  -19.1042 N   0  0  0  0  0  0  0  0  0  0  0  0
  -14.6455  -18.8951  -18.0297 C   0  0  0  0  0  0  0  0  0  0  0  0
  -17.4222  -15.8622  -17.2272 C   0  0  2  0  0  0  0  0  0  0  0  0
  -22.3125  -10.7368  -17.3261 C   0  0  1  0  0  0  0  0  0  0  0  0
  -23.5395  -10.9645  -17.9892 O   0  0  0  0  0  0  0  0  0  0  0  0
  -14.3580  -17.5907  -18.2409 C   0  0  2  0  0  0  0  0  0  0  0  0
  -15.2132  -16.7277  -18.9977 O   0  0  0  0  0  0  0  0  0  0  0  0
  -18.2749  -14.7952  -18.0285 C   0  0  2  0  0  0  0  0  0  0  0  0
  -17.6009  -14.4840  -19.2592 O   0  0  0  0  0  0  0  0  0  0  0  0
  -21.9246  -12.0350  -16.5430 C   0  0  0  0  0  0  0  0  0  0  0  0
  -21.5695  -13.1548  -17.5194 O   0  0  0  0  0  0  0  0  0  0  0  0
  -13.0941  -16.9289  -17.6938 C   0  0  0  0  0  0  0  0  0  0  0  0
  -13.4933  -15.9144  -16.7591 O   0  0  0  0  0  0  0  0  0  0  0  0
  -18.4062  -13.4718  -17.1750 C   0  0  1  0  0  0  0  0  0  0  0  0
  -19.1844  -12.5494  -17.9181 O   0  0  0  0  0  0  0  0  0  0  0  0
  -22.6361   -9.6512  -16.2774 C   0  0  0  0  0  0  0  0  0  0  0  0
  -20.5332   -7.9747  -18.9903 C   0  0  0  0  0  0  0  0  0  0  0  0
  1  2  1  1  0  0  0
  1  6  1  0  0  0  0
  1 21  1  0  0  0  0
  3  4  1  1  0  0  0
  3  8  1  0  0  0  0
  3 28  1  0  0  0  0
  5  9  1  0  0  0  0
  5 25  1  0  0  0  0
  5 29  1  1  0  0  0
  6  7  1  1  0  0  0
  6 11  1  0  0  0  0
  8 12  1  0  0  0  0
  9 10  1  6  0  0  0
  9 14  1  0  0  0  0
 11 16  1  0  0  0  0
 12 13  1  1  0  0  0
 12 17  1  0  0  0  0
 14 15  1  6  0  0  0
 14 18  1  0  0  0  0
 15 31  1  0  0  0  0
 16 20  1  0  0  0  0
 17  2  1  6  0  0  0
 17 22  1  0  0  0  0
 18 19  1  6  0  0  0
 18 24  1  0  0  0  0
 18 30  1  0  0  0  0
 20 21  1  0  0  0  0
 20 26  1  6  0  0  0
 22 23  1  6  0  0  0
 22 28  1  0  0  0  0
 24 25  1  0  0  0  0
 26 27  1  0  0  0  0
 28 29  1  6  0  0  0
M  END
>  <CHROM.1>
176.84226462,-174.79352572,-117.69487418,-173.72130612,-116.23669606,-68.07044585
-18.54234555,-14.25758594,-17.81226101,-0.17490743,0.85888012,-1.32399911

>  <Name>
ligand

>  <RI>
0

>  <Rbt.Current_Directory>
/home/itssahil/PROJECTS/Mol_Feturizer/New_Systems/rnas/4GPW

>  <Rbt.Executable>
rbdock ($Id: //depot/dev/client3/rdock/2013.1/src/exe/rbdock.cxx#4 $)

>  <Rbt.Library>
libRbt.so (2013.1, Build901 2013/11/27)

>  <Rbt.Parameter_File>
/export/apps/rDock/src/rDock_2013.1_src/data/scripts/dock_solv.prm

>  <Rbt.Receptor>
prm/pocket_docking_8.prm

>  <SCORE>
-7.21424

>  <SCORE.INTER>
0.434464

>  <SCORE.INTER.CONST>
1

>  <SCORE.INTER.POLAR>
0

>  <SCORE.INTER.ROT>
6

>  <SCORE.INTER.SOLV>
9.00666

>  <SCORE.INTER.VDW>
-10.3126

>  <SCORE.INTER.norm>
0.014015

>  <SCORE.INTRA>
-7.64871

>  <SCORE.INTRA.DIHEDRAL>
-15.653

>  <SCORE.INTRA.DIHEDRAL.0>
19.2558

>  <SCORE.INTRA.POLAR>
0

>  <SCORE.INTRA.POLAR.0>
0

>  <SCORE.INTRA.REPUL>
0

>  <SCORE.INTRA.REPUL.0>
0

>  <SCORE.INTRA.SOLV>
-1.36643

>  <SCORE.INTRA.SOLV.lig_0>
-64.5929

>  <SCORE.INTRA.VDW>
0.860986

>  <SCORE.INTRA.VDW.0>
-4.40538

>  <SCORE.INTRA.norm>
-0.246733

>  <SCORE.RESTR>
0

>  <SCORE.RESTR.CAVITY>
0

>  <SCORE.RESTR.norm>
0

>  <SCORE.SYSTEM>
0

>  <SCORE.SYSTEM.CONST>
0

>  <SCORE.SYSTEM.DIHEDRAL>
0

>  <SCORE.SYSTEM.SOLV>
0

>  <SCORE.SYSTEM.norm>
0

>  <SCORE.heavy>
31

>  <SCORE.norm>
-0.232718

>  <RMSD>
6.005

$$$$
ligand
 OpenBabel11021811493D
libRbt.so/2013.1/901 2013/11/27
 31 33  0  0  0  0  0  0  0  0999 V2000
  -17.3570  -12.4038  -14.7896 C   0  0  2  0  0  0  0  0  0  0  0  0
  -17.9520  -11.9977  -13.5659 O   0  0  0  0  0  0  0  0  0  0  0  0
  -21.6702  -10.1820  -12.5397 C   0  0  2  0  0  0  0  0  0  0  0  0
  -22.7014   -9.1994  -12.4483 N   0  0  0  0  0  0  0  0  0  0  0  0
  -23.7626  -10.3155  -15.0588 C   0  0  2  0  0  0  0  0  0  0  0  0
  -16.2273  -13.4553  -14.4284 C   0  0  2  0  0  0  0  0  0  0  0  0
  -16.8324  -14.5921  -13.7188 N   0  0  0  0  0  0  0  0  0  0  0  0
  -20.3453   -9.5810  -11.8966 C   0  0  0  0  0  0  0  0  0  0  0  0
  -24.8532  -11.3772  -15.4215 C   0  0  2  0  0  0  0  0  0  0  0  0
  -25.0630  -12.1904  -14.2912 O   0  0  0  0  0  0  0  0  0  0  0  0
  -15.1167  -12.7636  -13.5426 C   0  0  0  0  0  0  0  0  0  0  0  0
  -19.1937  -10.6805  -11.9918 C   0  0  2  0  0  0  0  0  0  0  0  0
  -17.9524  -10.1432  -11.3936 N   0  0  0  0  0  0  0  0  0  0  0  0
  -24.3614  -12.2309  -16.6635 C   0  0  1  0  0  0  0  0  0  0  0  0
  -25.3983  -13.2625  -17.0258 N   0  0  0  0  0  0  0  0  0  0  0  0
  -14.7896  -11.2893  -14.0244 C   0  0  0  0  0  0  0  0  0  0  0  0
  -18.9447  -11.0342  -13.5157 C   0  0  2  0  0  0  0  0  0  0  0  0
  -24.1351  -11.2404  -17.9343 C   0  0  1  0  0  0  0  0  0  0  0  0
  -25.3134  -10.5701  -18.3338 O   0  0  0  0  0  0  0  0  0  0  0  0
  -15.5801  -10.6566  -14.9208 C   0  0  2  0  0  0  0  0  0  0  0  0
  -16.7442  -11.2683  -15.4860 O   0  0  0  0  0  0  0  0  0  0  0  0
  -20.2780  -11.6123  -14.1449 C   0  0  2  0  0  0  0  0  0  0  0  0
  -20.0481  -11.9215  -15.5296 O   0  0  0  0  0  0  0  0  0  0  0  0
  -23.0631  -10.1683  -17.5462 C   0  0  0  0  0  0  0  0  0  0  0  0
  -23.4799   -9.4429  -16.2681 O   0  0  0  0  0  0  0  0  0  0  0  0
  -15.2950   -9.2372  -15.4097 C   0  0  0  0  0  0  0  0  0  0  0  0
  -16.3836   -8.3977  -14.9945 O   0  0  0  0  0  0  0  0  0  0  0  0
  -21.4226  -10.5267  -14.0523 C   0  0  1  0  0  0  0  0  0  0  0  0
  -22.5989  -11.0848  -14.6121 O   0  0  0  0  0  0  0  0  0  0  0  0
  -23.6360  -11.9411  -19.2161 C   0  0  0  0  0  0  0  0  0  0  0  0
  -25.2801  -14.5750  -16.3587 C   0  0  0  0  0  0  0  0  0  0  0  0
  1  2  1  1  0  0  0
  1  6  1  0  0  0  0
  1 21  1  0  0  0  0
  3  4  1  6  0  0  0
  3  8  1  0  0  0  0
  3 28  1  0  0  0  0
  5  9  1  0  0  0  0
  5 25  1  0  0  0  0
  5 29  1  6  0  0  0
  6  7  1  1  0  0  0
  6 11  1  0  0  0  0
  8 12  1  0  0  0  0
  9 10  1  1  0  0  0
  9 14  1  0  0  0  0
 11 16  1  0  0  0  0
 12 13  1  6  0  0  0
 12 17  1  0  0  0  0
 14 15  1  6  0  0  0
 14 18  1  0  0  0  0
 15 31  1  0  0  0  0
 16 20  1  0  0  0  0
 17  2  1  1  0  0  0
 17 22  1  0  0  0  0
 18 19  1  6  0  0  0
 18 24  1  0  0  0  0
 18 30  1  0  0  0  0
 20 21  1  0  0  0  0
 20 26  1  6  0  0  0
 22 23  1  6  0  0  0
 22 28  1  0  0  0  0
 24 25  1  0  0  0  0
 26 27  1  0  0  0  0
 28 29  1  1  0  0  0
M  END
>  <CHROM.1>
177.17619860,-173.02658952,-89.77294428,-171.07741963,-116.57756548,79.61054326
-20.53067823,-11.26233659,-14.90680282,-0.28864343,0.12060894,-2.09303982

>  <Name>
ligand

>  <RI>
0

>  <Rbt.Current_Directory>
/home/itssahil/PROJECTS/Mol_Feturizer/New_Systems/rnas/4GPW

>  <Rbt.Executable>
rbdock ($Id: //depot/dev/client3/rdock/2013.1/src/exe/rbdock.cxx#4 $)

>  <Rbt.Library>
libRbt.so (2013.1, Build901 2013/11/27)

>  <Rbt.Parameter_File>
/export/apps/rDock/src/rDock_2013.1_src/data/scripts/dock_solv.prm

>  <Rbt.Receptor>
prm/pocket_docking_8.prm

>  <SCORE>
-11.8843

>  <SCORE.INTER>
-4.27439

>  <SCORE.INTER.CONST>
1

>  <SCORE.INTER.POLAR>
0

>  <SCORE.INTER.ROT>
6

>  <SCORE.INTER.SOLV>
9.20184

>  <SCORE.INTER.VDW>
-13.5169

>  <SCORE.INTER.norm>
-0.137884

>  <SCORE.INTRA>
-7.60992

>  <SCORE.INTRA.DIHEDRAL>
-14.5552

>  <SCORE.INTRA.DIHEDRAL.0>
19.2558

>  <SCORE.INTRA.POLAR>
0

>  <SCORE.INTRA.POLAR.0>
0

>  <SCORE.INTRA.REPUL>
0

>  <SCORE.INTRA.REPUL.0>
0

>  <SCORE.INTRA.SOLV>
-2.4069

>  <SCORE.INTRA.SOLV.lig_0>
-64.5929

>  <SCORE.INTRA.VDW>
0.871146

>  <SCORE.INTRA.VDW.0>
-4.40538

>  <SCORE.INTRA.norm>
-0.245481

>  <SCORE.RESTR>
0

>  <SCORE.RESTR.CAVITY>
0

>  <SCORE.RESTR.norm>
0

>  <SCORE.SYSTEM>
0

>  <SCORE.SYSTEM.CONST>
0

>  <SCORE.SYSTEM.DIHEDRAL>
0

>  <SCORE.SYSTEM.SOLV>
0

>  <SCORE.SYSTEM.norm>
0

>  <SCORE.heavy>
31

>  <SCORE.norm>
-0.383365

>  <RMSD>
6.009

$$$$
ligand
 OpenBabel11021811493D
libRbt.so/2013.1/901 2013/11/27
 31 33  0  0  0  0  0  0  0  0999 V2000
  -26.1890  -19.0010  -18.3650 C   0  0  2  0  0  0  0  0  0  0  0  0
  -25.8890  -18.7938  -16.9925 O   0  0  0  0  0  0  0  0  0  0  0  0
  -23.8055  -15.7788  -14.8146 C   0  0  2  0  0  0  0  0  0  0  0  0
  -22.7315  -14.9594  -14.3536 N   0  0  0  0  0  0  0  0  0  0  0  0
  -25.5792  -13.5725  -16.1821 C   0  0  2  0  0  0  0  0  0  0  0  0
  -27.3650  -20.0619  -18.4266 C   0  0  2  0  0  0  0  0  0  0  0  0
  -28.5273  -19.5401  -17.6926 N   0  0  0  0  0  0  0  0  0  0  0  0
  -23.4413  -17.2983  -14.5171 C   0  0  0  0  0  0  0  0  0  0  0  0
  -25.7458  -12.3175  -17.1015 C   0  0  2  0  0  0  0  0  0  0  0  0
  -25.7245  -12.7520  -18.4407 O   0  0  0  0  0  0  0  0  0  0  0  0
  -26.8795  -21.4344  -17.8126 C   0  0  0  0  0  0  0  0  0  0  0  0
  -24.6436  -18.2149  -15.0257 C   0  0  2  0  0  0  0  0  0  0  0  0
  -24.3273  -19.6338  -14.7534 N   0  0  0  0  0  0  0  0  0  0  0  0
  -24.5720  -11.2931  -16.8084 C   0  0  1  0  0  0  0  0  0  0  0  0
  -24.7135  -10.0779  -17.6880 N   0  0  0  0  0  0  0  0  0  0  0  0
  -25.3888  -21.7862  -18.2204 C   0  0  0  0  0  0  0  0  0  0  0  0
  -24.8332  -17.9975  -16.5833 C   0  0  2  0  0  0  0  0  0  0  0  0
  -24.6467  -10.8293  -15.2506 C   0  0  1  0  0  0  0  0  0  0  0  0
  -25.8565  -10.1768  -14.9220 O   0  0  0  0  0  0  0  0  0  0  0  0
  -24.5889  -20.8650  -18.8037 C   0  0  2  0  0  0  0  0  0  0  0  0
  -25.0302  -19.5335  -19.0885 O   0  0  0  0  0  0  0  0  0  0  0  0
  -25.1755  -16.4768  -16.8631 C   0  0  2  0  0  0  0  0  0  0  0  0
  -25.3361  -16.2846  -18.2784 O   0  0  0  0  0  0  0  0  0  0  0  0
  -24.5068  -12.0981  -14.3453 C   0  0  0  0  0  0  0  0  0  0  0  0
  -25.5577  -13.1386  -14.7278 O   0  0  0  0  0  0  0  0  0  0  0  0
  -23.1481  -21.1686  -19.2124 C   0  0  0  0  0  0  0  0  0  0  0  0
  -22.2852  -20.2712  -18.4968 O   0  0  0  0  0  0  0  0  0  0  0  0
  -23.9873  -15.5644  -16.3603 C   0  0  1  0  0  0  0  0  0  0  0  0
  -24.3362  -14.2147  -16.6158 O   0  0  0  0  0  0  0  0  0  0  0  0
  -23.5443   -9.8381  -14.8202 C   0  0  0  0  0  0  0  0  0  0  0  0
  -24.1529  -10.1843  -19.0504 C   0  0  0  0  0  0  0  0  0  0  0  0
  1  2  1  1  0  0  0
  1  6  1  0  0  0  0
  1 21  1  0  0  0  0
  3  4  1  6  0  0  0
  3  8  1  0  0  0  0
  3 28  1  0  0  0  0
  5  9  1  0  0  0  0
  5 25  1  0  0  0  0
  5 29  1  6  0  0  0
  6  7  1  1  0  0  0
  6 11  1  0  0  0  0
  8 12  1  0  0  0  0
  9 10  1  6  0  0  0
  9 14  1  0  0  0  0
 11 16  1  0  0  0  0
 12 13  1  6  0  0  0
 12 17  1  0  0  0  0
 14 15  1  6  0  0  0
 14 18  1  0  0  0  0
 15 31  1  0  0  0  0
 16 20  1  0  0  0  0
 17  2  1  1  0  0  0
 17 22  1  0  0  0  0
 18 19  1  1  0  0  0
 18 24  1  0  0  0  0
 18 30  1  0  0  0  0
 20 21  1  0  0  0  0
 20 26  1  6  0  0  0
 22 23  1  6  0  0  0
 22 28  1  0  0  0  0
 24 25  1  0  0  0  0
 26 27  1  0  0  0  0
 28 29  1  1  0  0  0
M  END
>  <CHROM.1>
174.94312814,-160.09936378,-83.93239757,-169.73659634,-119.92456428,-65.04853440
-24.91346455,-15.94480797,-16.81486275,1.69591826,1.09327520,-3.05410170

>  <Name>
ligand

>  <RI>
0

>  <Rbt.Current_Directory>
/home/itssahil/PROJECTS/Mol_Feturizer/New_Systems/rnas/4GPW

>  <Rbt.Executable>
rbdock ($Id: //depot/dev/client3/rdock/2013.1/src/exe/rbdock.cxx#4 $)

>  <Rbt.Library>
libRbt.so (2013.1, Build901 2013/11/27)

>  <Rbt.Parameter_File>
/export/apps/rDock/src/rDock_2013.1_src/data/scripts/dock_solv.prm

>  <Rbt.Receptor>
prm/pocket_docking_7.prm

>  <SCORE>
-14.7025

>  <SCORE.INTER>
-7.66637

>  <SCORE.INTER.CONST>
1

>  <SCORE.INTER.POLAR>
0

>  <SCORE.INTER.ROT>
6

>  <SCORE.INTER.SOLV>
17.866

>  <SCORE.INTER.VDW>
-18.6662

>  <SCORE.INTER.norm>
-0.247302

>  <SCORE.INTRA>
-7.03617

>  <SCORE.INTRA.DIHEDRAL>
-14.604

>  <SCORE.INTRA.DIHEDRAL.0>
19.2558

>  <SCORE.INTRA.POLAR>
0

>  <SCORE.INTRA.POLAR.0>
0

>  <SCORE.INTRA.REPUL>
0

>  <SCORE.INTRA.REPUL.0>
0

>  <SCORE.INTRA.SOLV>
-1.40661

>  <SCORE.INTRA.SOLV.lig_0>
-64.5929

>  <SCORE.INTRA.VDW>
0.969115

>  <SCORE.INTRA.VDW.0>
-4.40538

>  <SCORE.INTRA.norm>
-0.226973

>  <SCORE.RESTR>
0

>  <SCORE.RESTR.CAVITY>
0

>  <SCORE.RESTR.norm>
0

>  <SCORE.SYSTEM>
0

>  <SCORE.SYSTEM.CONST>
0

>  <SCORE.SYSTEM.DIHEDRAL>
0

>  <SCORE.SYSTEM.SOLV>
0

>  <SCORE.SYSTEM.norm>
0

>  <SCORE.heavy>
31

>  <SCORE.norm>
-0.474275

>  <RMSD>
6.090

$$$$
ligand
 OpenBabel11021811493D
libRbt.so/2013.1/901 2013/11/27
 31 33  0  0  0  0  0  0  0  0999 V2000
  -25.0975  -16.4803  -16.3305 C   0  0  2  0  0  0  0  0  0  0  0  0
  -24.4975  -15.8987  -17.4786 O   0  0  0  0  0  0  0  0  0  0  0  0
  -24.0797  -11.8443  -18.7286 C   0  0  2  0  0  0  0  0  0  0  0  0
  -24.4267  -10.5559  -19.2353 N   0  0  0  0  0  0  0  0  0  0  0  0
  -25.3534  -10.8787  -15.2316 C   0  0  2  0  0  0  0  0  0  0  0  0
  -24.2171  -17.7376  -15.9350 C   0  0  2  0  0  0  0  0  0  0  0  0
  -22.8408  -17.2986  -15.6612 N   0  0  0  0  0  0  0  0  0  0  0  0
  -24.4361  -12.9314  -19.8337 C   0  0  0  0  0  0  0  0  0  0  0  0
  -24.8683   -9.4770  -14.7333 C   0  0  2  0  0  0  0  0  0  0  0  0
  -25.0231   -8.5606  -15.7911 O   0  0  0  0  0  0  0  0  0  0  0  0
  -24.2485  -18.8010  -17.1033 C   0  0  0  0  0  0  0  0  0  0  0  0
  -24.0425  -14.3713  -19.2715 C   0  0  2  0  0  0  0  0  0  0  0  0
  -24.3612  -15.3980  -20.2873 N   0  0  0  0  0  0  0  0  0  0  0  0
  -23.3543   -9.5787  -14.2746 C   0  0  1  0  0  0  0  0  0  0  0  0
  -22.8676   -8.2360  -13.7941 N   0  0  0  0  0  0  0  0  0  0  0  0
  -25.6845  -18.9358  -17.7605 C   0  0  0  0  0  0  0  0  0  0  0  0
  -24.8688  -14.6509  -17.9493 C   0  0  2  0  0  0  0  0  0  0  0  0
  -23.2381  -10.6499  -13.0555 C   0  0  1  0  0  0  0  0  0  0  0  0
  -23.9910  -10.2814  -11.9177 O   0  0  0  0  0  0  0  0  0  0  0  0
  -26.6609  -18.0388  -17.4943 C   0  0  2  0  0  0  0  0  0  0  0  0
  -26.4649  -16.9277  -16.6135 O   0  0  0  0  0  0  0  0  0  0  0  0
  -24.5171  -13.5491  -16.8676 C   0  0  2  0  0  0  0  0  0  0  0  0
  -25.2775  -13.8028  -15.6746 O   0  0  0  0  0  0  0  0  0  0  0  0
  -23.7528  -12.0386  -13.5611 C   0  0  0  0  0  0  0  0  0  0  0  0
  -25.1646  -11.9041  -14.1287 O   0  0  0  0  0  0  0  0  0  0  0  0
  -28.0571  -18.1379  -18.1073 C   0  0  0  0  0  0  0  0  0  0  0  0
  -28.9728  -18.5146  -17.0673 O   0  0  0  0  0  0  0  0  0  0  0  0
  -24.9046  -12.1203  -17.4203 C   0  0  1  0  0  0  0  0  0  0  0  0
  -24.5636  -11.1635  -16.4319 O   0  0  0  0  0  0  0  0  0  0  0  0
  -21.8063  -10.8621  -12.5188 C   0  0  0  0  0  0  0  0  0  0  0  0
  -22.3379   -7.3216  -14.8261 C   0  0  0  0  0  0  0  0  0  0  0  0
  1  2  1  6  0  0  0
  1  6  1  0  0  0  0
  1 21  1  0  0  0  0
  3  4  1  6  0  0  0
  3  8  1  0  0  0  0
  3 28  1  0  0  0  0
  5  9  1  0  0  0  0
  5 25  1  0  0  0  0
  5 29  1  6  0  0  0
  6  7  1  6  0  0  0
  6 11  1  0  0  0  0
  8 12  1  0  0  0  0
  9 10  1  6  0  0  0
  9 14  1  0  0  0  0
 11 16  1  0  0  0  0
 12 13  1  6  0  0  0
 12 17  1  0  0  0  0
 14 15  1  1  0  0  0
 14 18  1  0  0  0  0
 15 31  1  0  0  0  0
 16 20  1  0  0  0  0
 17  2  1  1  0  0  0
 17 22  1  0  0  0  0
 18 19  1  1  0  0  0
 18 24  1  0  0  0  0
 18 30  1  0  0  0  0
 20 21  1  0  0  0  0
 20 26  1  1  0  0  0
 22 23  1  1  0  0  0
 22 28  1  0  0  0  0
 24 25  1  0  0  0  0
 26 27  1  0  0  0  0
 28 29  1  1  0  0  0
M  END
>  <CHROM.1>
-168.33550333,-161.29535284,-86.44211199,-177.27132165,109.12838913,163.16919978
-24.66775903,-13.43863521,-16.26066553,-2.98867424,-1.30768191,-1.03309047

>  <Name>
ligand

>  <RI>
0

>  <Rbt.Current_Directory>
/home/itssahil/PROJECTS/Mol_Feturizer/New_Systems/rnas/4GPW

>  <Rbt.Executable>
rbdock ($Id: //depot/dev/client3/rdock/2013.1/src/exe/rbdock.cxx#4 $)

>  <Rbt.Library>
libRbt.so (2013.1, Build901 2013/11/27)

>  <Rbt.Parameter_File>
/export/apps/rDock/src/rDock_2013.1_src/data/scripts/dock_solv.prm

>  <Rbt.Receptor>
prm/pocket_docking_5.prm

>  <SCORE>
-13.0144

>  <SCORE.INTER>
-6.84015

>  <SCORE.INTER.CONST>
1

>  <SCORE.INTER.POLAR>
0

>  <SCORE.INTER.ROT>
6

>  <SCORE.INTER.SOLV>
14.3207

>  <SCORE.INTER.VDW>
-16.9337

>  <SCORE.INTER.norm>
-0.22065

>  <SCORE.INTRA>
-6.17421

>  <SCORE.INTRA.DIHEDRAL>
-13.3306

>  <SCORE.INTRA.DIHEDRAL.0>
19.2558

>  <SCORE.INTRA.POLAR>
0

>  <SCORE.INTRA.POLAR.0>
0

>  <SCORE.INTRA.REPUL>
0

>  <SCORE.INTRA.REPUL.0>
0

>  <SCORE.INTRA.SOLV>
-3.24635

>  <SCORE.INTRA.SOLV.lig_0>
-64.5929

>  <SCORE.INTRA.VDW>
2.11425

>  <SCORE.INTRA.VDW.0>
-4.40538

>  <SCORE.INTRA.norm>
-0.199168

>  <SCORE.RESTR>
0

>  <SCORE.RESTR.CAVITY>
0

>  <SCORE.RESTR.norm>
0

>  <SCORE.SYSTEM>
0

>  <SCORE.SYSTEM.CONST>
0

>  <SCORE.SYSTEM.DIHEDRAL>
0

>  <SCORE.SYSTEM.SOLV>
0

>  <SCORE.SYSTEM.norm>
0

>  <SCORE.heavy>
31

>  <SCORE.norm>
-0.419818

>  <RMSD>
6.097

$$$$
ligand
 OpenBabel11021811493D
libRbt.so/2013.1/901 2013/11/27
 31 33  0  0  0  0  0  0  0  0999 V2000
  -25.2008  -17.8008  -18.9445 C   0  0  2  0  0  0  0  0  0  0  0  0
  -26.0854  -16.6975  -18.8149 O   0  0  0  0  0  0  0  0  0  0  0  0
  -23.3075  -13.4981  -18.3435 C   0  0  2  0  0  0  0  0  0  0  0  0
  -22.7998  -12.1675  -18.2488 N   0  0  0  0  0  0  0  0  0  0  0  0
  -24.3720  -13.6875  -14.6342 C   0  0  2  0  0  0  0  0  0  0  0  0
  -26.0954  -19.0830  -19.2055 C   0  0  2  0  0  0  0  0  0  0  0  0
  -26.8882  -18.8802  -20.4270 N   0  0  0  0  0  0  0  0  0  0  0  0
  -24.0185  -13.6650  -19.7566 C   0  0  0  0  0  0  0  0  0  0  0  0
  -25.2234  -12.3796  -14.5211 C   0  0  2  0  0  0  0  0  0  0  0  0
  -26.0771  -12.3170  -15.6392 O   0  0  0  0  0  0  0  0  0  0  0  0
  -27.0331  -19.3430  -17.9606 C   0  0  0  0  0  0  0  0  0  0  0  0
  -24.5806  -15.1537  -19.8668 C   0  0  2  0  0  0  0  0  0  0  0  0
  -25.2419  -15.3321  -21.1776 N   0  0  0  0  0  0  0  0  0  0  0  0
  -24.2543  -11.1263  -14.4640 C   0  0  1  0  0  0  0  0  0  0  0  0
  -25.0571   -9.8555  -14.3584 N   0  0  0  0  0  0  0  0  0  0  0  0
  -26.2954  -19.0816  -16.5822 C   0  0  0  0  0  0  0  0  0  0  0  0
  -25.6258  -15.3966  -18.7016 C   0  0  2  0  0  0  0  0  0  0  0  0
  -23.2943  -11.2548  -13.1566 C   0  0  1  0  0  0  0  0  0  0  0  0
  -24.0122  -11.2782  -11.9395 O   0  0  0  0  0  0  0  0  0  0  0  0
  -25.0954  -18.4595  -16.5398 C   0  0  2  0  0  0  0  0  0  0  0  0
  -24.4225  -18.0057  -17.7189 O   0  0  0  0  0  0  0  0  0  0  0  0
  -24.9067  -15.2074  -17.3035 C   0  0  2  0  0  0  0  0  0  0  0  0
  -25.8627  -15.4192  -16.2513 O   0  0  0  0  0  0  0  0  0  0  0  0
  -22.4708  -12.5806  -13.2711 C   0  0  0  0  0  0  0  0  0  0  0  0
  -23.4090  -13.7705  -13.4639 O   0  0  0  0  0  0  0  0  0  0  0  0
  -24.3541  -18.1926  -15.2306 C   0  0  0  0  0  0  0  0  0  0  0  0
  -23.7461  -16.8947  -15.3213 O   0  0  0  0  0  0  0  0  0  0  0  0
  -24.3474  -13.7339  -17.1896 C   0  0  1  0  0  0  0  0  0  0  0  0
  -23.7018  -13.6085  -15.9342 O   0  0  0  0  0  0  0  0  0  0  0  0
  -22.2817  -10.1023  -12.9854 C   0  0  0  0  0  0  0  0  0  0  0  0
  -24.7085   -8.7779  -15.3065 C   0  0  0  0  0  0  0  0  0  0  0  0
  1  2  1  1  0  0  0
  1  6  1  0  0  0  0
  1 21  1  0  0  0  0
  3  4  1  6  0  0  0
  3  8  1  0  0  0  0
  3 28  1  0  0  0  0
  5  9  1  0  0  0  0
  5 25  1  0  0  0  0
  5 29  1  6  0  0  0
  6  7  1  6  0  0  0
  6 11  1  0  0  0  0
  8 12  1  0  0  0  0
  9 10  1  6  0  0  0
  9 14  1  0  0  0  0
 11 16  1  0  0  0  0
 12 13  1  6  0  0  0
 12 17  1  0  0  0  0
 14 15  1  1  0  0  0
 14 18  1  0  0  0  0
 15 31  1  0  0  0  0
 16 20  1  0  0  0  0
 17  2  1  1  0  0  0
 17 22  1  0  0  0  0
 18 19  1  1  0  0  0
 18 24  1  0  0  0  0
 18 30  1  0  0  0  0
 20 21  1  0  0  0  0
 20 26  1  6  0  0  0
 22 23  1  1  0  0  0
 22 28  1  0  0  0  0
 24 25  1  0  0  0  0
 26 27  1  0  0  0  0
 28 29  1  1  0  0  0
M  END
>  <CHROM.1>
-173.93610306,-70.50067505,-130.39316902,49.93629142,-141.00449827,176.31650602
-24.66688670,-14.59063840,-16.51041173,3.08943139,1.34462007,2.22298879

>  <Name>
ligand

>  <RI>
0

>  <Rbt.Current_Directory>
/home/itssahil/PROJECTS/Mol_Feturizer/New_Systems/rnas/4GPW

>  <Rbt.Executable>
rbdock ($Id: //depot/dev/client3/rdock/2013.1/src/exe/rbdock.cxx#4 $)

>  <Rbt.Library>
libRbt.so (2013.1, Build901 2013/11/27)

>  <Rbt.Parameter_File>
/export/apps/rDock/src/rDock_2013.1_src/data/scripts/dock_solv.prm

>  <Rbt.Receptor>
prm/pocket_docking_7.prm

>  <SCORE>
-10.0007

>  <SCORE.INTER>
-3.87022

>  <SCORE.INTER.CONST>
1

>  <SCORE.INTER.POLAR>
0

>  <SCORE.INTER.ROT>
6

>  <SCORE.INTER.SOLV>
8.89496

>  <SCORE.INTER.VDW>
-13.1451

>  <SCORE.INTER.norm>
-0.124846

>  <SCORE.INTRA>
-6.13051

>  <SCORE.INTRA.DIHEDRAL>
-14.6539

>  <SCORE.INTRA.DIHEDRAL.0>
19.2558

>  <SCORE.INTRA.POLAR>
0

>  <SCORE.INTRA.POLAR.0>
0

>  <SCORE.INTRA.REPUL>
0

>  <SCORE.INTRA.REPUL.0>
0

>  <SCORE.INTRA.SOLV>
-0.288972

>  <SCORE.INTRA.SOLV.lig_0>
-64.5929

>  <SCORE.INTRA.VDW>
1.34094

>  <SCORE.INTRA.VDW.0>
-4.40538

>  <SCORE.INTRA.norm>
-0.197758

>  <SCORE.RESTR>
0

>  <SCORE.RESTR.CAVITY>
0

>  <SCORE.RESTR.norm>
0

>  <SCORE.SYSTEM>
0

>  <SCORE.SYSTEM.CONST>
0

>  <SCORE.SYSTEM.DIHEDRAL>
0

>  <SCORE.SYSTEM.SOLV>
0

>  <SCORE.SYSTEM.norm>
0

>  <SCORE.heavy>
31

>  <SCORE.norm>
-0.322604

>  <RMSD>
6.206

$$$$
ligand
 OpenBabel11021811493D
libRbt.so/2013.1/901 2013/11/27
 31 33  0  0  0  0  0  0  0  0999 V2000
  -19.7643  -17.8734  -12.1102 C   0  0  2  0  0  0  0  0  0  0  0  0
  -18.4859  -17.8444  -12.7278 O   0  0  0  0  0  0  0  0  0  0  0  0
  -16.0553  -14.6339  -14.1274 C   0  0  2  0  0  0  0  0  0  0  0  0
  -15.5970  -13.5589  -14.9470 N   0  0  0  0  0  0  0  0  0  0  0  0
  -17.0647  -11.7755  -13.2236 C   0  0  2  0  0  0  0  0  0  0  0  0
  -19.9565  -19.3288  -11.5123 C   0  0  2  0  0  0  0  0  0  0  0  0
  -18.8832  -19.6008  -10.5449 N   0  0  0  0  0  0  0  0  0  0  0  0
  -16.1446  -15.9455  -15.0229 C   0  0  0  0  0  0  0  0  0  0  0  0
  -17.3799  -10.8164  -12.0283 C   0  0  2  0  0  0  0  0  0  0  0  0
  -16.6386  -11.2514  -10.9129 O   0  0  0  0  0  0  0  0  0  0  0  0
  -19.9461  -20.3923  -12.6808 C   0  0  0  0  0  0  0  0  0  0  0  0
  -16.6502  -17.1493  -14.1067 C   0  0  2  0  0  0  0  0  0  0  0  0
  -16.7353  -18.3818  -14.9197 N   0  0  0  0  0  0  0  0  0  0  0  0
  -18.9371  -10.8421  -11.7319 C   0  0  1  0  0  0  0  0  0  0  0  0
  -19.2601   -9.9260  -10.5800 N   0  0  0  0  0  0  0  0  0  0  0  0
  -20.7237  -19.8868  -13.9662 C   0  0  0  0  0  0  0  0  0  0  0  0
  -18.0799  -16.7897  -13.5272 C   0  0  2  0  0  0  0  0  0  0  0  0
  -19.7389  -10.3326  -13.0528 C   0  0  1  0  0  0  0  0  0  0  0  0
  -19.4110   -9.0098  -13.4268 O   0  0  0  0  0  0  0  0  0  0  0  0
  -21.1019  -18.5944  -14.0897 C   0  0  2  0  0  0  0  0  0  0  0  0
  -20.8310  -17.6143  -13.0823 O   0  0  0  0  0  0  0  0  0  0  0  0
  -17.9766  -15.4718  -12.6553 C   0  0  2  0  0  0  0  0  0  0  0  0
  -19.2786  -15.1457  -12.1412 O   0  0  0  0  0  0  0  0  0  0  0  0
  -19.3914  -11.2848  -14.2452 C   0  0  0  0  0  0  0  0  0  0  0  0
  -17.8778  -11.3613  -14.4365 O   0  0  0  0  0  0  0  0  0  0  0  0
  -21.8544  -18.0718  -15.3127 C   0  0  0  0  0  0  0  0  0  0  0  0
  -21.0204  -17.1026  -15.9663 O   0  0  0  0  0  0  0  0  0  0  0  0
  -17.4753  -14.2760  -13.5586 C   0  0  1  0  0  0  0  0  0  0  0  0
  -17.3837  -13.1215  -12.7418 O   0  0  0  0  0  0  0  0  0  0  0  0
  -21.2759  -10.3235  -12.9096 C   0  0  0  0  0  0  0  0  0  0  0  0
  -19.9461  -10.5400   -9.4249 C   0  0  0  0  0  0  0  0  0  0  0  0
  1  2  1  6  0  0  0
  1  6  1  0  0  0  0
  1 21  1  0  0  0  0
  3  4  1  6  0  0  0
  3  8  1  0  0  0  0
  3 28  1  0  0  0  0
  5  9  1  0  0  0  0
  5 25  1  0  0  0  0
  5 29  1  1  0  0  0
  6  7  1  1  0  0  0
  6 11  1  0  0  0  0
  8 12  1  0  0  0  0
  9 10  1  1  0  0  0
  9 14  1  0  0  0  0
 11 16  1  0  0  0  0
 12 13  1  6  0  0  0
 12 17  1  0  0  0  0
 14 15  1  1  0  0  0
 14 18  1  0  0  0  0
 15 31  1  0  0  0  0
 16 20  1  0  0  0  0
 17  2  1  1  0  0  0
 17 22  1  0  0  0  0
 18 19  1  6  0  0  0
 18 24  1  0  0  0  0
 18 30  1  0  0  0  0
 20 21  1  0  0  0  0
 20 26  1  1  0  0  0
 22 23  1  6  0  0  0
 22 28  1  0  0  0  0
 24 25  1  0  0  0  0
 26 27  1  0  0  0  0
 28 29  1  1  0  0  0
M  END
>  <CHROM.1>
169.87819356,168.27048533,-122.85035912,-176.49797940,-116.51882293,67.20400758
-18.75941219,-14.74509449,-13.08521210,1.70087622,-0.40922334,-2.96029389

>  <Name>
ligand

>  <RI>
0

>  <Rbt.Current_Directory>
/home/itssahil/PROJECTS/Mol_Feturizer/New_Systems/rnas/4GPW

>  <Rbt.Executable>
rbdock ($Id: //depot/dev/client3/rdock/2013.1/src/exe/rbdock.cxx#4 $)

>  <Rbt.Library>
libRbt.so (2013.1, Build901 2013/11/27)

>  <Rbt.Parameter_File>
/export/apps/rDock/src/rDock_2013.1_src/data/scripts/dock_solv.prm

>  <Rbt.Receptor>
prm/pocket_docking_6.prm

>  <SCORE>
-14.0029

>  <SCORE.INTER>
-6.55657

>  <SCORE.INTER.CONST>
1

>  <SCORE.INTER.POLAR>
0

>  <SCORE.INTER.ROT>
6

>  <SCORE.INTER.SOLV>
17.4787

>  <SCORE.INTER.VDW>
-17.7973

>  <SCORE.INTER.norm>
-0.211502

>  <SCORE.INTRA>
-7.44634

>  <SCORE.INTRA.DIHEDRAL>
-14.8845

>  <SCORE.INTRA.DIHEDRAL.0>
19.2558

>  <SCORE.INTRA.POLAR>
0

>  <SCORE.INTRA.POLAR.0>
0

>  <SCORE.INTRA.REPUL>
0

>  <SCORE.INTRA.REPUL.0>
0

>  <SCORE.INTRA.SOLV>
-2.09075

>  <SCORE.INTRA.SOLV.lig_0>
-64.5929

>  <SCORE.INTRA.VDW>
1.04126

>  <SCORE.INTRA.VDW.0>
-4.40538

>  <SCORE.INTRA.norm>
-0.240205

>  <SCORE.RESTR>
0

>  <SCORE.RESTR.CAVITY>
0

>  <SCORE.RESTR.norm>
0

>  <SCORE.SYSTEM>
0

>  <SCORE.SYSTEM.CONST>
0

>  <SCORE.SYSTEM.DIHEDRAL>
0

>  <SCORE.SYSTEM.SOLV>
0

>  <SCORE.SYSTEM.norm>
0

>  <SCORE.heavy>
31

>  <SCORE.norm>
-0.451707

>  <RMSD>
6.264

$$$$
ligand
 OpenBabel11021811493D
libRbt.so/2013.1/901 2013/11/27
 31 33  0  0  0  0  0  0  0  0999 V2000
  -25.3952  -16.5324  -16.4836 C   0  0  2  0  0  0  0  0  0  0  0  0
  -24.7187  -15.9957  -17.6110 O   0  0  0  0  0  0  0  0  0  0  0  0
  -23.9814  -11.9650  -18.7876 C   0  0  2  0  0  0  0  0  0  0  0  0
  -24.2180  -10.6545  -19.3013 N   0  0  0  0  0  0  0  0  0  0  0  0
  -25.4197  -10.9453  -15.3714 C   0  0  2  0  0  0  0  0  0  0  0  0
  -24.5883  -17.8186  -16.0289 C   0  0  2  0  0  0  0  0  0  0  0  0
  -23.2086  -17.4331  -15.6977 N   0  0  0  0  0  0  0  0  0  0  0  0
  -24.3300  -13.0208  -19.9249 C   0  0  0  0  0  0  0  0  0  0  0  0
  -24.9058   -9.5624  -14.8503 C   0  0  2  0  0  0  0  0  0  0  0  0
  -24.9549   -8.6478  -15.9197 O   0  0  0  0  0  0  0  0  0  0  0  0
  -24.6112  -18.8992  -17.1815 C   0  0  0  0  0  0  0  0  0  0  0  0
  -24.0596  -14.4857  -19.3546 C   0  0  2  0  0  0  0  0  0  0  0  0
  -24.3729  -15.4842  -20.3997 N   0  0  0  0  0  0  0  0  0  0  0  0
  -23.4289   -9.7261  -14.2980 C   0  0  1  0  0  0  0  0  0  0  0  0
  -22.9148   -8.4022  -13.7942 N   0  0  0  0  0  0  0  0  0  0  0  0
  -26.0199  -18.9848  -17.9029 C   0  0  0  0  0  0  0  0  0  0  0  0
  -24.9843  -14.7246  -18.0908 C   0  0  2  0  0  0  0  0  0  0  0  0
  -23.4350  -10.7925  -13.0692 C   0  0  1  0  0  0  0  0  0  0  0  0
  -24.2400  -10.3837  -11.9820 O   0  0  0  0  0  0  0  0  0  0  0  0
  -26.9684  -18.0433  -17.6959 C   0  0  2  0  0  0  0  0  0  0  0  0
  -26.7659  -16.9267  -16.8235 O   0  0  0  0  0  0  0  0  0  0  0  0
  -24.6378  -13.6536  -16.9769 C   0  0  2  0  0  0  0  0  0  0  0  0
  -25.4870  -13.8696  -15.8376 O   0  0  0  0  0  0  0  0  0  0  0  0
  -23.9775  -12.1613  -13.5996 C   0  0  0  0  0  0  0  0  0  0  0  0
  -25.3443  -11.9700  -14.2543 O   0  0  0  0  0  0  0  0  0  0  0  0
  -28.3378  -18.0941  -18.3719 C   0  0  0  0  0  0  0  0  0  0  0  0
  -29.3193  -18.3858  -17.3650 O   0  0  0  0  0  0  0  0  0  0  0  0
  -24.9035  -12.2002  -17.5375 C   0  0  1  0  0  0  0  0  0  0  0  0
  -24.5704  -11.2727  -16.5191 O   0  0  0  0  0  0  0  0  0  0  0  0
  -22.0497  -11.0625  -12.4438 C   0  0  0  0  0  0  0  0  0  0  0  0
  -22.2101   -7.5543  -14.7772 C   0  0  0  0  0  0  0  0  0  0  0  0
  1  2  1  6  0  0  0
  1  6  1  0  0  0  0
  1 21  1  0  0  0  0
  3  4  1  6  0  0  0
  3  8  1  0  0  0  0
  3 28  1  0  0  0  0
  5  9  1  0  0  0  0
  5 25  1  0  0  0  0
  5 29  1  6  0  0  0
  6  7  1  6  0  0  0
  6 11  1  0  0  0  0
  8 12  1  0  0  0  0
  9 10  1  6  0  0  0
  9 14  1  0  0  0  0
 11 16  1  0  0  0  0
 12 13  1  6  0  0  0
 12 17  1  0  0  0  0
 14 15  1  1  0  0  0
 14 18  1  0  0  0  0
 15 31  1  0  0  0  0
 16 20  1  0  0  0  0
 17  2  1  1  0  0  0
 17 22  1  0  0  0  0
 18 19  1  1  0  0  0
 18 24  1  0  0  0  0
 18 30  1  0  0  0  0
 20 21  1  0  0  0  0
 20 26  1  1  0  0  0
 22 23  1  1  0  0  0
 22 28  1  0  0  0  0
 24 25  1  0  0  0  0
 26 27  1  0  0  0  0
 28 29  1  1  0  0  0
M  END
>  <CHROM.1>
-166.21290252,-159.89042829,-90.04355391,-179.30111363,110.36630349,162.90289099
-24.81048347,-13.52497418,-16.36400778,2.96838534,-1.28004082,-1.35235233

>  <Name>
ligand

>  <RI>
0

>  <Rbt.Current_Directory>
/home/itssahil/PROJECTS/Mol_Feturizer/New_Systems/rnas/4GPW

>  <Rbt.Executable>
rbdock ($Id: //depot/dev/client3/rdock/2013.1/src/exe/rbdock.cxx#4 $)

>  <Rbt.Library>
libRbt.so (2013.1, Build901 2013/11/27)

>  <Rbt.Parameter_File>
/export/apps/rDock/src/rDock_2013.1_src/data/scripts/dock_solv.prm

>  <Rbt.Receptor>
prm/pocket_docking_8.prm

>  <SCORE>
-13.0644

>  <SCORE.INTER>
-7.01859

>  <SCORE.INTER.CONST>
1

>  <SCORE.INTER.POLAR>
0

>  <SCORE.INTER.ROT>
6

>  <SCORE.INTER.SOLV>
14.0209

>  <SCORE.INTER.VDW>
-16.9527

>  <SCORE.INTER.norm>
-0.226406

>  <SCORE.INTRA>
-6.04578

>  <SCORE.INTRA.DIHEDRAL>
-12.7734

>  <SCORE.INTRA.DIHEDRAL.0>
19.2558

>  <SCORE.INTRA.POLAR>
0

>  <SCORE.INTRA.POLAR.0>
0

>  <SCORE.INTRA.REPUL>
0

>  <SCORE.INTRA.REPUL.0>
0

>  <SCORE.INTRA.SOLV>
-3.29251

>  <SCORE.INTRA.SOLV.lig_0>
-64.5929

>  <SCORE.INTRA.VDW>
1.98717

>  <SCORE.INTRA.VDW.0>
-4.40538

>  <SCORE.INTRA.norm>
-0.195025

>  <SCORE.RESTR>
0

>  <SCORE.RESTR.CAVITY>
0

>  <SCORE.RESTR.norm>
0

>  <SCORE.SYSTEM>
0

>  <SCORE.SYSTEM.CONST>
0

>  <SCORE.SYSTEM.DIHEDRAL>
0

>  <SCORE.SYSTEM.SOLV>
0

>  <SCORE.SYSTEM.norm>
0

>  <SCORE.heavy>
31

>  <SCORE.norm>
-0.421431

>  <RMSD>
6.270

$$$$
ligand
 OpenBabel11021811493D
libRbt.so/2013.1/901 2013/11/27
 31 33  0  0  0  0  0  0  0  0999 V2000
  -17.6308  -10.5310  -16.3496 C   0  0  2  0  0  0  0  0  0  0  0  0
  -17.8716  -11.4549  -15.2984 O   0  0  0  0  0  0  0  0  0  0  0  0
  -21.3988  -12.4344  -13.1133 C   0  0  2  0  0  0  0  0  0  0  0  0
  -22.4774  -12.3141  -12.1863 N   0  0  0  0  0  0  0  0  0  0  0  0
  -23.4863  -10.2647  -15.4125 C   0  0  2  0  0  0  0  0  0  0  0  0
  -16.3585  -11.0502  -17.1395 C   0  0  2  0  0  0  0  0  0  0  0  0
  -16.6272  -12.3997  -17.6578 N   0  0  0  0  0  0  0  0  0  0  0  0
  -20.0308  -12.3254  -12.3092 C   0  0  0  0  0  0  0  0  0  0  0  0
  -24.8723  -10.8674  -15.8173 C   0  0  2  0  0  0  0  0  0  0  0  0
  -25.4135  -11.5129  -14.6889 O   0  0  0  0  0  0  0  0  0  0  0  0
  -15.1002  -11.0528  -16.1838 C   0  0  0  0  0  0  0  0  0  0  0  0
  -18.8243  -12.4665  -13.3430 C   0  0  2  0  0  0  0  0  0  0  0  0
  -17.5408  -12.3731  -12.6141 N   0  0  0  0  0  0  0  0  0  0  0  0
  -24.6726  -11.8797  -17.0208 C   0  0  1  0  0  0  0  0  0  0  0  0
  -25.9976  -12.4740  -17.4230 N   0  0  0  0  0  0  0  0  0  0  0  0
  -15.0581   -9.7837  -15.2351 C   0  0  0  0  0  0  0  0  0  0  0  0
  -18.9212  -11.2991  -14.4093 C   0  0  2  0  0  0  0  0  0  0  0  0
  -24.0452  -11.0796  -18.2911 C   0  0  1  0  0  0  0  0  0  0  0  0
  -24.8789  -10.0393  -18.7599 O   0  0  0  0  0  0  0  0  0  0  0  0
  -16.1291   -8.9669  -15.1143 C   0  0  2  0  0  0  0  0  0  0  0  0
  -17.3507   -9.1904  -15.8260 O   0  0  0  0  0  0  0  0  0  0  0  0
  -20.2965  -11.4109  -15.1865 C   0  0  2  0  0  0  0  0  0  0  0  0
  -20.3823  -10.3433  -16.1449 O   0  0  0  0  0  0  0  0  0  0  0  0
  -22.6738  -10.4596  -17.8619 C   0  0  0  0  0  0  0  0  0  0  0  0
  -22.8523   -9.5929  -16.6168 O   0  0  0  0  0  0  0  0  0  0  0  0
  -16.1244   -7.7340  -14.2117 C   0  0  0  0  0  0  0  0  0  0  0  0
  -16.3213   -6.5771  -15.0394 O   0  0  0  0  0  0  0  0  0  0  0  0
  -21.4952  -11.2724  -14.1662 C   0  0  1  0  0  0  0  0  0  0  0  0
  -22.7044  -11.3904  -14.8959 O   0  0  0  0  0  0  0  0  0  0  0  0
  -23.7810  -11.9534  -19.5360 C   0  0  0  0  0  0  0  0  0  0  0  0
  -26.0255  -13.9360  -17.6314 C   0  0  0  0  0  0  0  0  0  0  0  0
  1  2  1  1  0  0  0
  1  6  1  0  0  0  0
  1 21  1  0  0  0  0
  3  4  1  1  0  0  0
  3  8  1  0  0  0  0
  3 28  1  0  0  0  0
  5  9  1  0  0  0  0
  5 25  1  0  0  0  0
  5 29  1  6  0  0  0
  6  7  1  1  0  0  0
  6 11  1  0  0  0  0
  8 12  1  0  0  0  0
  9 10  1  1  0  0  0
  9 14  1  0  0  0  0
 11 16  1  0  0  0  0
 12 13  1  1  0  0  0
 12 17  1  0  0  0  0
 14 15  1  6  0  0  0
 14 18  1  0  0  0  0
 15 31  1  0  0  0  0
 16 20  1  0  0  0  0
 17  2  1  6  0  0  0
 17 22  1  0  0  0  0
 18 19  1  6  0  0  0
 18 24  1  0  0  0  0
 18 30  1  0  0  0  0
 20 21  1  0  0  0  0
 20 26  1  6  0  0  0
 22 23  1  6  0  0  0
 22 28  1  0  0  0  0
 24 25  1  0  0  0  0
 26 27  1  0  0  0  0
 28 29  1  6  0  0  0
M  END
>  <CHROM.1>
-179.91507976,-166.42144787,-133.96886343,-176.99940922,118.08656347,146.69096972
-20.58291407,-10.95133004,-15.68306760,-0.12049725,-0.26217052,-1.21274034

>  <Name>
ligand

>  <RI>
0

>  <Rbt.Current_Directory>
/home/itssahil/PROJECTS/Mol_Feturizer/New_Systems/rnas/4GPW

>  <Rbt.Executable>
rbdock ($Id: //depot/dev/client3/rdock/2013.1/src/exe/rbdock.cxx#4 $)

>  <Rbt.Library>
libRbt.so (2013.1, Build901 2013/11/27)

>  <Rbt.Parameter_File>
/export/apps/rDock/src/rDock_2013.1_src/data/scripts/dock_solv.prm

>  <Rbt.Receptor>
prm/pocket_docking_8.prm

>  <SCORE>
-8.34107

>  <SCORE.INTER>
-2.44848

>  <SCORE.INTER.CONST>
1

>  <SCORE.INTER.POLAR>
0

>  <SCORE.INTER.ROT>
6

>  <SCORE.INTER.SOLV>
9.74579

>  <SCORE.INTER.VDW>
-12.4809

>  <SCORE.INTER.norm>
-0.0789833

>  <SCORE.INTRA>
-5.89259

>  <SCORE.INTRA.DIHEDRAL>
-11.3802

>  <SCORE.INTRA.DIHEDRAL.0>
19.2558

>  <SCORE.INTRA.POLAR>
0

>  <SCORE.INTRA.POLAR.0>
0

>  <SCORE.INTRA.REPUL>
0

>  <SCORE.INTRA.REPUL.0>
0

>  <SCORE.INTRA.SOLV>
-3.20586

>  <SCORE.INTRA.SOLV.lig_0>
-64.5929

>  <SCORE.INTRA.VDW>
1.40041

>  <SCORE.INTRA.VDW.0>
-4.40538

>  <SCORE.INTRA.norm>
-0.190084

>  <SCORE.RESTR>
0

>  <SCORE.RESTR.CAVITY>
0

>  <SCORE.RESTR.norm>
0

>  <SCORE.SYSTEM>
0

>  <SCORE.SYSTEM.CONST>
0

>  <SCORE.SYSTEM.DIHEDRAL>
0

>  <SCORE.SYSTEM.SOLV>
0

>  <SCORE.SYSTEM.norm>
0

>  <SCORE.heavy>
31

>  <SCORE.norm>
-0.269067

>  <RMSD>
6.277

$$$$
ligand
 OpenBabel11021811493D
libRbt.so/2013.1/901 2013/11/27
 31 33  0  0  0  0  0  0  0  0999 V2000
  -25.5421  -17.3396  -16.4564 C   0  0  2  0  0  0  0  0  0  0  0  0
  -24.8802  -17.4515  -17.7078 O   0  0  0  0  0  0  0  0  0  0  0  0
  -23.7808  -14.3778  -20.4497 C   0  0  2  0  0  0  0  0  0  0  0  0
  -23.8931  -13.4082  -21.4911 N   0  0  0  0  0  0  0  0  0  0  0  0
  -25.3321  -11.7164  -18.2766 C   0  0  2  0  0  0  0  0  0  0  0  0
  -25.0163  -18.5265  -15.5470 C   0  0  2  0  0  0  0  0  0  0  0  0
  -23.5578  -18.4136  -15.3983 N   0  0  0  0  0  0  0  0  0  0  0  0
  -24.1723  -15.8005  -21.0436 C   0  0  0  0  0  0  0  0  0  0  0  0
  -24.4692  -10.4344  -18.0316 C   0  0  2  0  0  0  0  0  0  0  0  0
  -23.7898  -10.1310  -19.2270 O   0  0  0  0  0  0  0  0  0  0  0  0
  -25.4120  -19.9122  -16.1950 C   0  0  0  0  0  0  0  0  0  0  0  0
  -24.0406  -16.8863  -19.8827 C   0  0  2  0  0  0  0  0  0  0  0  0
  -24.3956  -18.2194  -20.4158 N   0  0  0  0  0  0  0  0  0  0  0  0
  -23.4548  -10.7042  -16.8436 C   0  0  1  0  0  0  0  0  0  0  0  0
  -22.6115   -9.4805  -16.5948 N   0  0  0  0  0  0  0  0  0  0  0  0
  -26.8689  -19.8944  -16.8190 C   0  0  0  0  0  0  0  0  0  0  0  0
  -25.0258  -16.5010  -18.7036 C   0  0  2  0  0  0  0  0  0  0  0  0
  -24.2952  -11.0499  -15.4940 C   0  0  1  0  0  0  0  0  0  0  0  0
  -25.1436   -9.9973  -15.0822 O   0  0  0  0  0  0  0  0  0  0  0  0
  -27.5433  -18.7339  -16.9841 C   0  0  2  0  0  0  0  0  0  0  0  0
  -26.9948  -17.4659  -16.6097 O   0  0  0  0  0  0  0  0  0  0  0  0
  -24.6344  -15.0747  -18.1375 C   0  0  2  0  0  0  0  0  0  0  0  0
  -25.5381  -14.7270  -17.0753 O   0  0  0  0  0  0  0  0  0  0  0  0
  -25.1735  -12.3166  -15.7642 C   0  0  0  0  0  0  0  0  0  0  0  0
  -26.0507  -12.0986  -16.9956 O   0  0  0  0  0  0  0  0  0  0  0  0
  -28.9494  -18.6783  -17.5798 C   0  0  0  0  0  0  0  0  0  0  0  0
  -28.8965  -17.8741  -18.7683 O   0  0  0  0  0  0  0  0  0  0  0  0
  -24.7626  -13.9953  -19.2845 C   0  0  1  0  0  0  0  0  0  0  0  0
  -24.3927  -12.7386  -18.7436 O   0  0  0  0  0  0  0  0  0  0  0  0
  -23.4267  -11.3530  -14.2543 C   0  0  0  0  0  0  0  0  0  0  0  0
  -21.2731   -9.4671  -17.2195 C   0  0  0  0  0  0  0  0  0  0  0  0
  1  2  1  6  0  0  0
  1  6  1  0  0  0  0
  1 21  1  0  0  0  0
  3  4  1  6  0  0  0
  3  8  1  0  0  0  0
  3 28  1  0  0  0  0
  5  9  1  0  0  0  0
  5 25  1  0  0  0  0
  5 29  1  1  0  0  0
  6  7  1  6  0  0  0
  6 11  1  0  0  0  0
  8 12  1  0  0  0  0
  9 10  1  6  0  0  0
  9 14  1  0  0  0  0
 11 16  1  0  0  0  0
 12 13  1  6  0  0  0
 12 17  1  0  0  0  0
 14 15  1  1  0  0  0
 14 18  1  0  0  0  0
 15 31  1  0  0  0  0
 16 20  1  0  0  0  0
 17  2  1  1  0  0  0
 17 22  1  0  0  0  0
 18 19  1  1  0  0  0
 18 24  1  0  0  0  0
 18 30  1  0  0  0  0
 20 21  1  0  0  0  0
 20 26  1  1  0  0  0
 22 23  1  1  0  0  0
 22 28  1  0  0  0  0
 24 25  1  0  0  0  0
 26 27  1  0  0  0  0
 28 29  1  1  0  0  0
M  END
>  <CHROM.1>
-174.48213080,-169.62556463,-97.41338594,174.64487323,-119.67771574,142.78526387
-24.96636058,-14.63836058,-17.63395782,2.56129981,-1.18867816,-2.13503010

>  <Name>
ligand

>  <RI>
0

>  <Rbt.Current_Directory>
/home/itssahil/PROJECTS/Mol_Feturizer/New_Systems/rnas/4GPW

>  <Rbt.Executable>
rbdock ($Id: //depot/dev/client3/rdock/2013.1/src/exe/rbdock.cxx#4 $)

>  <Rbt.Library>
libRbt.so (2013.1, Build901 2013/11/27)

>  <Rbt.Parameter_File>
/export/apps/rDock/src/rDock_2013.1_src/data/scripts/dock_solv.prm

>  <Rbt.Receptor>
prm/pocket_docking_6.prm

>  <SCORE>
-12.6296

>  <SCORE.INTER>
-7.51019

>  <SCORE.INTER.CONST>
1

>  <SCORE.INTER.POLAR>
0

>  <SCORE.INTER.ROT>
6

>  <SCORE.INTER.SOLV>
12.1268

>  <SCORE.INTER.VDW>
-16.649

>  <SCORE.INTER.norm>
-0.242264

>  <SCORE.INTRA>
-5.11937

>  <SCORE.INTRA.DIHEDRAL>
-11.008

>  <SCORE.INTRA.DIHEDRAL.0>
19.2558

>  <SCORE.INTRA.POLAR>
0

>  <SCORE.INTRA.POLAR.0>
0

>  <SCORE.INTRA.REPUL>
0

>  <SCORE.INTRA.REPUL.0>
0

>  <SCORE.INTRA.SOLV>
-3.29054

>  <SCORE.INTRA.SOLV.lig_0>
-64.5929

>  <SCORE.INTRA.VDW>
2.02988

>  <SCORE.INTRA.VDW.0>
-4.40538

>  <SCORE.INTRA.norm>
-0.165141

>  <SCORE.RESTR>
0

>  <SCORE.RESTR.CAVITY>
0

>  <SCORE.RESTR.norm>
0

>  <SCORE.SYSTEM>
0

>  <SCORE.SYSTEM.CONST>
0

>  <SCORE.SYSTEM.DIHEDRAL>
0

>  <SCORE.SYSTEM.SOLV>
0

>  <SCORE.SYSTEM.norm>
0

>  <SCORE.heavy>
31

>  <SCORE.norm>
-0.407405

>  <RMSD>
6.359

$$$$
ligand
 OpenBabel11021811493D
libRbt.so/2013.1/901 2013/11/27
 31 33  0  0  0  0  0  0  0  0999 V2000
  -17.2999  -14.5896  -15.5278 C   0  0  2  0  0  0  0  0  0  0  0  0
  -16.6471  -13.9557  -14.4376 O   0  0  0  0  0  0  0  0  0  0  0  0
  -17.1794  -10.2482  -12.4013 C   0  0  2  0  0  0  0  0  0  0  0  0
  -17.2134   -8.8405  -12.1680 N   0  0  0  0  0  0  0  0  0  0  0  0
  -20.0167   -8.9035  -12.9598 C   0  0  2  0  0  0  0  0  0  0  0  0
  -16.9556  -16.1342  -15.4386 C   0  0  2  0  0  0  0  0  0  0  0  0
  -17.4239  -16.6613  -14.1483 N   0  0  0  0  0  0  0  0  0  0  0  0
  -15.7059  -10.6480  -12.8474 C   0  0  0  0  0  0  0  0  0  0  0  0
  -21.4347   -9.0564  -12.3163 C   0  0  2  0  0  0  0  0  0  0  0  0
  -21.2970   -9.8012  -11.1293 O   0  0  0  0  0  0  0  0  0  0  0  0
  -15.3983  -16.3451  -15.6027 C   0  0  0  0  0  0  0  0  0  0  0  0
  -15.6646  -12.2221  -13.1020 C   0  0  2  0  0  0  0  0  0  0  0  0
  -14.2998  -12.6164  -13.5133 N   0  0  0  0  0  0  0  0  0  0  0  0
  -22.4012   -9.7807  -13.3432 C   0  0  1  0  0  0  0  0  0  0  0  0
  -23.7725   -9.9403  -12.7393 N   0  0  0  0  0  0  0  0  0  0  0  0
  -14.7710  -15.3917  -16.7028 C   0  0  0  0  0  0  0  0  0  0  0  0
  -16.6957  -12.5852  -14.2484 C   0  0  2  0  0  0  0  0  0  0  0  0
  -22.5196   -8.8771  -14.6911 C   0  0  1  0  0  0  0  0  0  0  0  0
  -23.0569   -7.5917  -14.4536 O   0  0  0  0  0  0  0  0  0  0  0  0
  -15.4783  -14.3606  -17.2180 C   0  0  2  0  0  0  0  0  0  0  0  0
  -16.8194  -14.0689  -16.8115 O   0  0  0  0  0  0  0  0  0  0  0  0
  -18.1535  -12.1630  -13.7962 C   0  0  2  0  0  0  0  0  0  0  0  0
  -19.0822  -12.4858  -14.8446 O   0  0  0  0  0  0  0  0  0  0  0  0
  -21.0904   -8.7101  -15.3066 C   0  0  0  0  0  0  0  0  0  0  0  0
  -20.1303   -8.1380  -14.2654 O   0  0  0  0  0  0  0  0  0  0  0  0
  -14.9076  -13.4227  -18.2808 C   0  0  0  0  0  0  0  0  0  0  0  0
  -14.9217  -12.0887  -17.7494 O   0  0  0  0  0  0  0  0  0  0  0  0
  -18.1994  -10.6040  -13.5421 C   0  0  1  0  0  0  0  0  0  0  0  0
  -19.5126  -10.2685  -13.1280 O   0  0  0  0  0  0  0  0  0  0  0  0
  -23.4226   -9.4759  -15.7907 C   0  0  0  0  0  0  0  0  0  0  0  0
  -24.4636  -11.2179  -13.0076 C   0  0  0  0  0  0  0  0  0  0  0  0
  1  2  1  1  0  0  0
  1  6  1  0  0  0  0
  1 21  1  0  0  0  0
  3  4  1  6  0  0  0
  3  8  1  0  0  0  0
  3 28  1  0  0  0  0
  5  9  1  0  0  0  0
  5 25  1  0  0  0  0
  5 29  1  6  0  0  0
  6  7  1  1  0  0  0
  6 11  1  0  0  0  0
  8 12  1  0  0  0  0
  9 10  1  1  0  0  0
  9 14  1  0  0  0  0
 11 16  1  0  0  0  0
 12 13  1  6  0  0  0
 12 17  1  0  0  0  0
 14 15  1  1  0  0  0
 14 18  1  0  0  0  0
 15 31  1  0  0  0  0
 16 20  1  0  0  0  0
 17  2  1  1  0  0  0
 17 22  1  0  0  0  0
 18 19  1  1  0  0  0
 18 24  1  0  0  0  0
 18 30  1  0  0  0  0
 20 21  1  0  0  0  0
 20 26  1  6  0  0  0
 22 23  1  6  0  0  0
 22 28  1  0  0  0  0
 24 25  1  0  0  0  0
 26 27  1  0  0  0  0
 28 29  1  1  0  0  0
M  END
>  <CHROM.1>
177.32392596,-172.72259440,-140.09622269,-170.38557029,-120.43537779,70.05030098
-18.60908761,-11.63076346,-14.38814186,0.70436268,0.15719301,-2.53682684

>  <Name>
ligand

>  <RI>
0

>  <Rbt.Current_Directory>
/home/itssahil/PROJECTS/Mol_Feturizer/New_Systems/rnas/4GPW

>  <Rbt.Executable>
rbdock ($Id: //depot/dev/client3/rdock/2013.1/src/exe/rbdock.cxx#4 $)

>  <Rbt.Library>
libRbt.so (2013.1, Build901 2013/11/27)

>  <Rbt.Parameter_File>
/export/apps/rDock/src/rDock_2013.1_src/data/scripts/dock_solv.prm

>  <Rbt.Receptor>
prm/pocket_docking_7.prm

>  <SCORE>
-10.6085

>  <SCORE.INTER>
-2.81619

>  <SCORE.INTER.CONST>
1

>  <SCORE.INTER.POLAR>
0

>  <SCORE.INTER.ROT>
6

>  <SCORE.INTER.SOLV>
10.1383

>  <SCORE.INTER.VDW>
-12.8569

>  <SCORE.INTER.norm>
-0.0908448

>  <SCORE.INTRA>
-7.79229

>  <SCORE.INTRA.DIHEDRAL>
-15.4343

>  <SCORE.INTRA.DIHEDRAL.0>
19.2558

>  <SCORE.INTRA.POLAR>
0

>  <SCORE.INTRA.POLAR.0>
0

>  <SCORE.INTRA.REPUL>
0

>  <SCORE.INTRA.REPUL.0>
0

>  <SCORE.INTRA.SOLV>
-2.32419

>  <SCORE.INTRA.SOLV.lig_0>
-64.5929

>  <SCORE.INTRA.VDW>
1.08697

>  <SCORE.INTRA.VDW.0>
-4.40538

>  <SCORE.INTRA.norm>
-0.251364

>  <SCORE.RESTR>
0

>  <SCORE.RESTR.CAVITY>
0

>  <SCORE.RESTR.norm>
0

>  <SCORE.SYSTEM>
0

>  <SCORE.SYSTEM.CONST>
0

>  <SCORE.SYSTEM.DIHEDRAL>
0

>  <SCORE.SYSTEM.SOLV>
0

>  <SCORE.SYSTEM.norm>
0

>  <SCORE.heavy>
31

>  <SCORE.norm>
-0.342209

>  <RMSD>
6.575

$$$$
ligand
 OpenBabel11021811493D
libRbt.so/2013.1/901 2013/11/27
 31 33  0  0  0  0  0  0  0  0999 V2000
  -17.0962  -12.1529  -14.6468 C   0  0  2  0  0  0  0  0  0  0  0  0
  -17.6840  -11.1082  -13.8855 O   0  0  0  0  0  0  0  0  0  0  0  0
  -21.0900   -8.5891  -14.3625 C   0  0  2  0  0  0  0  0  0  0  0  0
  -21.9573   -7.5985  -14.9138 N   0  0  0  0  0  0  0  0  0  0  0  0
  -23.1308   -9.8268  -16.6205 C   0  0  2  0  0  0  0  0  0  0  0  0
  -16.3192  -13.0868  -13.6287 C   0  0  2  0  0  0  0  0  0  0  0  0
  -17.2655  -13.6110  -12.6330 N   0  0  0  0  0  0  0  0  0  0  0  0
  -19.6980   -7.9017  -14.0166 C   0  0  0  0  0  0  0  0  0  0  0  0
  -24.3679  -10.7719  -16.4643 C   0  0  2  0  0  0  0  0  0  0  0  0
  -24.7315  -10.7931  -15.1042 O   0  0  0  0  0  0  0  0  0  0  0  0
  -15.1608  -12.2696  -12.9310 C   0  0  0  0  0  0  0  0  0  0  0  0
  -18.7299   -9.0061  -13.3941 C   0  0  2  0  0  0  0  0  0  0  0  0
  -17.4296   -8.3858  -13.0598 N   0  0  0  0  0  0  0  0  0  0  0  0
  -23.9894  -12.2213  -16.9832 C   0  0  1  0  0  0  0  0  0  0  0  0
  -25.1687  -13.1479  -16.8374 N   0  0  0  0  0  0  0  0  0  0  0  0
  -14.4168  -11.2958  -13.9364 C   0  0  0  0  0  0  0  0  0  0  0  0
  -18.5155  -10.1606  -14.4573 C   0  0  2  0  0  0  0  0  0  0  0  0
  -23.5779  -12.1335  -18.5550 C   0  0  1  0  0  0  0  0  0  0  0  0
  -24.6243  -11.6598  -19.3782 O   0  0  0  0  0  0  0  0  0  0  0  0
  -14.9232  -11.0401  -15.1639 C   0  0  2  0  0  0  0  0  0  0  0  0
  -16.1441  -11.6249  -15.6290 O   0  0  0  0  0  0  0  0  0  0  0  0
  -19.9126  -10.8204  -14.8047 C   0  0  2  0  0  0  0  0  0  0  0  0
  -19.7121  -11.8598  -15.7769 O   0  0  0  0  0  0  0  0  0  0  0  0
  -22.3581  -11.1635  -18.6976 C   0  0  0  0  0  0  0  0  0  0  0  0
  -22.6839   -9.8091  -18.0710 O   0  0  0  0  0  0  0  0  0  0  0  0
  -14.2331  -10.1092  -16.1599 C   0  0  0  0  0  0  0  0  0  0  0  0
  -13.9994  -10.8476  -17.3692 O   0  0  0  0  0  0  0  0  0  0  0  0
  -20.8757   -9.7298  -15.4213 C   0  0  1  0  0  0  0  0  0  0  0  0
  -22.1157  -10.3543  -15.7058 O   0  0  0  0  0  0  0  0  0  0  0  0
  -23.1668  -13.4795  -19.1892 C   0  0  0  0  0  0  0  0  0  0  0  0
  -25.4030  -13.7056  -15.4898 C   0  0  0  0  0  0  0  0  0  0  0  0
  1  2  1  1  0  0  0
  1  6  1  0  0  0  0
  1 21  1  0  0  0  0
  3  4  1  6  0  0  0
  3  8  1  0  0  0  0
  3 28  1  0  0  0  0
  5  9  1  0  0  0  0
  5 25  1  0  0  0  0
  5 29  1  1  0  0  0
  6  7  1  1  0  0  0
  6 11  1  0  0  0  0
  8 12  1  0  0  0  0
  9 10  1  1  0  0  0
  9 14  1  0  0  0  0
 11 16  1  0  0  0  0
 12 13  1  6  0  0  0
 12 17  1  0  0  0  0
 14 15  1  6  0  0  0
 14 18  1  0  0  0  0
 15 31  1  0  0  0  0
 16 20  1  0  0  0  0
 17  2  1  1  0  0  0
 17 22  1  0  0  0  0
 18 19  1  6  0  0  0
 18 24  1  0  0  0  0
 18 30  1  0  0  0  0
 20 21  1  0  0  0  0
 20 26  1  6  0  0  0
 22 23  1  6  0  0  0
 22 28  1  0  0  0  0
 24 25  1  0  0  0  0
 26 27  1  0  0  0  0
 28 29  1  1  0  0  0
M  END
>  <CHROM.1>
-175.51227331,-173.40694120,-80.13663430,-168.42254155,123.27867838,80.48439341
-20.02853599,-10.99176157,-15.62508415,-0.23687504,0.21908215,-2.48037187

>  <Name>
ligand

>  <RI>
0

>  <Rbt.Current_Directory>
/home/itssahil/PROJECTS/Mol_Feturizer/New_Systems/rnas/4GPW

>  <Rbt.Executable>
rbdock ($Id: //depot/dev/client3/rdock/2013.1/src/exe/rbdock.cxx#4 $)

>  <Rbt.Library>
libRbt.so (2013.1, Build901 2013/11/27)

>  <Rbt.Parameter_File>
/export/apps/rDock/src/rDock_2013.1_src/data/scripts/dock_solv.prm

>  <Rbt.Receptor>
prm/pocket_docking_8.prm

>  <SCORE>
-11.2475

>  <SCORE.INTER>
-4.0634

>  <SCORE.INTER.CONST>
1

>  <SCORE.INTER.POLAR>
0

>  <SCORE.INTER.ROT>
6

>  <SCORE.INTER.SOLV>
9.21443

>  <SCORE.INTER.VDW>
-13.3804

>  <SCORE.INTER.norm>
-0.131077

>  <SCORE.INTRA>
-7.18411

>  <SCORE.INTRA.DIHEDRAL>
-14.4131

>  <SCORE.INTRA.DIHEDRAL.0>
19.2558

>  <SCORE.INTRA.POLAR>
0

>  <SCORE.INTRA.POLAR.0>
0

>  <SCORE.INTRA.REPUL>
0

>  <SCORE.INTRA.REPUL.0>
0

>  <SCORE.INTRA.SOLV>
-2.45627

>  <SCORE.INTRA.SOLV.lig_0>
-64.5929

>  <SCORE.INTRA.VDW>
1.2506

>  <SCORE.INTRA.VDW.0>
-4.40538

>  <SCORE.INTRA.norm>
-0.231746

>  <SCORE.RESTR>
0

>  <SCORE.RESTR.CAVITY>
0

>  <SCORE.RESTR.norm>
0

>  <SCORE.SYSTEM>
0

>  <SCORE.SYSTEM.CONST>
0

>  <SCORE.SYSTEM.DIHEDRAL>
0

>  <SCORE.SYSTEM.SOLV>
0

>  <SCORE.SYSTEM.norm>
0

>  <SCORE.heavy>
31

>  <SCORE.norm>
-0.362823

>  <RMSD>
6.579

$$$$
ligand
 OpenBabel11021811493D
libRbt.so/2013.1/901 2013/11/27
 31 33  0  0  0  0  0  0  0  0999 V2000
  -19.5771  -19.0901  -13.4846 C   0  0  2  0  0  0  0  0  0  0  0  0
  -20.4996  -18.0745  -13.1185 O   0  0  0  0  0  0  0  0  0  0  0  0
  -23.7505  -16.0905  -15.0342 C   0  0  2  0  0  0  0  0  0  0  0  0
  -24.4641  -15.2910  -15.9770 N   0  0  0  0  0  0  0  0  0  0  0  0
  -24.9556  -17.7340  -17.4876 C   0  0  2  0  0  0  0  0  0  0  0  0
  -19.0957  -19.7835  -12.1430 C   0  0  2  0  0  0  0  0  0  0  0  0
  -20.2609  -20.3403  -11.4401 N   0  0  0  0  0  0  0  0  0  0  0  0
  -22.6175  -15.1931  -14.3703 C   0  0  0  0  0  0  0  0  0  0  0  0
  -25.9404  -18.9307  -17.7030 C   0  0  2  0  0  0  0  0  0  0  0  0
  -26.6247  -19.1555  -16.4932 O   0  0  0  0  0  0  0  0  0  0  0  0
  -18.3408  -18.7307  -11.2383 C   0  0  0  0  0  0  0  0  0  0  0  0
  -21.8234  -16.0833  -13.3115 C   0  0  2  0  0  0  0  0  0  0  0  0
  -20.7669  -15.2652  -12.6775 N   0  0  0  0  0  0  0  0  0  0  0  0
  -25.1194  -20.2116  -18.1485 C   0  0  1  0  0  0  0  0  0  0  0  0
  -26.0515  -21.3770  -18.3576 N   0  0  0  0  0  0  0  0  0  0  0  0
  -17.4105  -17.7640  -12.0823 C   0  0  0  0  0  0  0  0  0  0  0  0
  -21.1692  -17.3150  -14.0625 C   0  0  2  0  0  0  0  0  0  0  0  0
  -24.3513  -19.8921  -19.5467 C   0  0  1  0  0  0  0  0  0  0  0  0
  -25.2322  -19.5767  -20.6058 O   0  0  0  0  0  0  0  0  0  0  0  0
  -17.4937  -17.7174  -13.4313 C   0  0  2  0  0  0  0  0  0  0  0  0
  -18.4115  -18.5272  -14.1734 O   0  0  0  0  0  0  0  0  0  0  0  0
  -22.3088  -18.1862  -14.7336 C   0  0  2  0  0  0  0  0  0  0  0  0
  -21.7078  -19.2958  -15.4215 O   0  0  0  0  0  0  0  0  0  0  0  0
  -23.3920  -18.6762  -19.3221 C   0  0  0  0  0  0  0  0  0  0  0  0
  -24.1692  -17.4864  -18.7620 O   0  0  0  0  0  0  0  0  0  0  0  0
  -16.6122  -16.8001  -14.2777 C   0  0  0  0  0  0  0  0  0  0  0  0
  -17.4573  -15.8142  -14.8908 O   0  0  0  0  0  0  0  0  0  0  0  0
  -23.0990  -17.3082  -15.7833 C   0  0  1  0  0  0  0  0  0  0  0  0
  -24.1151  -18.1169  -16.3508 O   0  0  0  0  0  0  0  0  0  0  0  0
  -23.4940  -21.0548  -20.0909 C   0  0  0  0  0  0  0  0  0  0  0  0
  -25.7563  -22.6009  -17.5851 C   0  0  0  0  0  0  0  0  0  0  0  0
  1  2  1  1  0  0  0
  1  6  1  0  0  0  0
  1 21  1  0  0  0  0
  3  4  1  6  0  0  0
  3  8  1  0  0  0  0
  3 28  1  0  0  0  0
  5  9  1  0  0  0  0
  5 25  1  0  0  0  0
  5 29  1  1  0  0  0
  6  7  1  1  0  0  0
  6 11  1  0  0  0  0
  8 12  1  0  0  0  0
  9 10  1  1  0  0  0
  9 14  1  0  0  0  0
 11 16  1  0  0  0  0
 12 13  1  6  0  0  0
 12 17  1  0  0  0  0
 14 15  1  6  0  0  0
 14 18  1  0  0  0  0
 15 31  1  0  0  0  0
 16 20  1  0  0  0  0
 17  2  1  1  0  0  0
 17 22  1  0  0  0  0
 18 19  1  6  0  0  0
 18 24  1  0  0  0  0
 18 30  1  0  0  0  0
 20 21  1  0  0  0  0
 20 26  1  6  0  0  0
 22 23  1  6  0  0  0
 22 28  1  0  0  0  0
 24 25  1  0  0  0  0
 26 27  1  0  0  0  0
 28 29  1  1  0  0  0
M  END
>  <CHROM.1>
-176.57794507,-178.27125011,-124.23692742,-166.64364083,-113.48489848,70.08461364
-22.13555189,-18.31972041,-15.58611142,-0.40993501,0.63675557,-2.85445196

>  <Name>
ligand

>  <RI>
0

>  <Rbt.Current_Directory>
/home/itssahil/PROJECTS/Mol_Feturizer/New_Systems/rnas/4GPW

>  <Rbt.Executable>
rbdock ($Id: //depot/dev/client3/rdock/2013.1/src/exe/rbdock.cxx#4 $)

>  <Rbt.Library>
libRbt.so (2013.1, Build901 2013/11/27)

>  <Rbt.Parameter_File>
/export/apps/rDock/src/rDock_2013.1_src/data/scripts/dock_solv.prm

>  <Rbt.Receptor>
prm/pocket_docking_7.prm

>  <SCORE>
-14.5494

>  <SCORE.INTER>
-6.87101

>  <SCORE.INTER.CONST>
1

>  <SCORE.INTER.POLAR>
0

>  <SCORE.INTER.ROT>
6

>  <SCORE.INTER.SOLV>
15.1339

>  <SCORE.INTER.VDW>
-17.2253

>  <SCORE.INTER.norm>
-0.221645

>  <SCORE.INTRA>
-7.67836

>  <SCORE.INTRA.DIHEDRAL>
-14.9118

>  <SCORE.INTRA.DIHEDRAL.0>
19.2558

>  <SCORE.INTRA.POLAR>
0

>  <SCORE.INTRA.POLAR.0>
0

>  <SCORE.INTRA.REPUL>
0

>  <SCORE.INTRA.REPUL.0>
0

>  <SCORE.INTRA.SOLV>
-1.95845

>  <SCORE.INTRA.SOLV.lig_0>
-64.5929

>  <SCORE.INTRA.VDW>
0.756757

>  <SCORE.INTRA.VDW.0>
-4.40538

>  <SCORE.INTRA.norm>
-0.247689

>  <SCORE.RESTR>
0

>  <SCORE.RESTR.CAVITY>
0

>  <SCORE.RESTR.norm>
0

>  <SCORE.SYSTEM>
0

>  <SCORE.SYSTEM.CONST>
0

>  <SCORE.SYSTEM.DIHEDRAL>
0

>  <SCORE.SYSTEM.SOLV>
0

>  <SCORE.SYSTEM.norm>
0

>  <SCORE.heavy>
31

>  <SCORE.norm>
-0.469335

>  <RMSD>
6.633

$$$$
ligand
 OpenBabel11021811493D
libRbt.so/2013.1/901 2013/11/27
 31 33  0  0  0  0  0  0  0  0999 V2000
  -18.1014  -18.5394  -13.3173 C   0  0  2  0  0  0  0  0  0  0  0  0
  -17.8077  -17.2899  -12.7098 O   0  0  0  0  0  0  0  0  0  0  0  0
  -16.4714  -13.4443  -13.9748 C   0  0  2  0  0  0  0  0  0  0  0  0
  -16.3990  -12.2293  -14.7203 N   0  0  0  0  0  0  0  0  0  0  0  0
  -17.0452  -12.1098  -11.3140 C   0  0  2  0  0  0  0  0  0  0  0  0
  -19.5313  -18.9826  -12.7964 C   0  0  2  0  0  0  0  0  0  0  0  0
  -20.5198  -17.9580  -13.1637 N   0  0  0  0  0  0  0  0  0  0  0  0
  -16.2941  -14.6628  -14.9818 C   0  0  0  0  0  0  0  0  0  0  0  0
  -17.7849  -11.1016  -10.3734 C   0  0  2  0  0  0  0  0  0  0  0  0
  -18.9679  -11.7161   -9.9198 O   0  0  0  0  0  0  0  0  0  0  0  0
  -19.4890  -19.1904  -11.2307 C   0  0  0  0  0  0  0  0  0  0  0  0
  -16.3679  -16.0213  -14.1492 C   0  0  2  0  0  0  0  0  0  0  0  0
  -16.1997  -17.1686  -15.0672 N   0  0  0  0  0  0  0  0  0  0  0  0
  -18.0969   -9.7695  -11.1743 C   0  0  1  0  0  0  0  0  0  0  0  0
  -18.8133   -8.7864  -10.2850 N   0  0  0  0  0  0  0  0  0  0  0  0
  -18.1497  -19.8880  -10.7487 C   0  0  0  0  0  0  0  0  0  0  0  0
  -17.7781  -16.1100  -13.4332 C   0  0  2  0  0  0  0  0  0  0  0  0
  -16.6966   -9.1078  -11.6729 C   0  0  1  0  0  0  0  0  0  0  0  0
  -15.8364   -8.7579  -10.6076 O   0  0  0  0  0  0  0  0  0  0  0  0
  -17.0950  -20.0257  -11.5837 C   0  0  2  0  0  0  0  0  0  0  0  0
  -17.1196  -19.5599  -12.9369 O   0  0  0  0  0  0  0  0  0  0  0  0
  -17.9459  -14.8800  -12.4500 C   0  0  2  0  0  0  0  0  0  0  0  0
  -19.2311  -14.9612  -11.8116 O   0  0  0  0  0  0  0  0  0  0  0  0
  -15.9563  -10.1383  -12.5889 C   0  0  0  0  0  0  0  0  0  0  0  0
  -15.7815  -11.4669  -11.8557 O   0  0  0  0  0  0  0  0  0  0  0  0
  -15.7895  -20.6943  -11.1550 C   0  0  0  0  0  0  0  0  0  0  0  0
  -15.3940  -21.6030  -12.1942 O   0  0  0  0  0  0  0  0  0  0  0  0
  -17.8729  -13.5313  -13.2703 C   0  0  1  0  0  0  0  0  0  0  0  0
  -18.0137  -12.4573  -12.3564 O   0  0  0  0  0  0  0  0  0  0  0  0
  -16.8536   -7.8050  -12.4862 C   0  0  0  0  0  0  0  0  0  0  0  0
  -20.2775   -8.6926  -10.4554 C   0  0  0  0  0  0  0  0  0  0  0  0
  1  2  1  1  0  0  0
  1  6  1  0  0  0  0
  1 21  1  0  0  0  0
  3  4  1  6  0  0  0
  3  8  1  0  0  0  0
  3 28  1  0  0  0  0
  5  9  1  0  0  0  0
  5 25  1  0  0  0  0
  5 29  1  6  0  0  0
  6  7  1  1  0  0  0
  6 11  1  0  0  0  0
  8 12  1  0  0  0  0
  9 10  1  6  0  0  0
  9 14  1  0  0  0  0
 11 16  1  0  0  0  0
 12 13  1  6  0  0  0
 12 17  1  0  0  0  0
 14 15  1  1  0  0  0
 14 18  1  0  0  0  0
 15 31  1  0  0  0  0
 16 20  1  0  0  0  0
 17  2  1  1  0  0  0
 17 22  1  0  0  0  0
 18 19  1  1  0  0  0
 18 24  1  0  0  0  0
 18 30  1  0  0  0  0
 20 21  1  0  0  0  0
 20 26  1  6  0  0  0
 22 23  1  6  0  0  0
 22 28  1  0  0  0  0
 24 25  1  0  0  0  0
 26 27  1  0  0  0  0
 28 29  1  1  0  0  0
M  END
>  <CHROM.1>
-109.78591011,-166.98752495,-100.54457142,-81.39732877,134.28613005,-51.90349485
-17.53422935,-14.46562326,-12.25861791,1.56884128,-0.72871635,-3.04104409

>  <Name>
ligand

>  <RI>
0

>  <Rbt.Current_Directory>
/home/itssahil/PROJECTS/Mol_Feturizer/New_Systems/rnas/4GPW

>  <Rbt.Executable>
rbdock ($Id: //depot/dev/client3/rdock/2013.1/src/exe/rbdock.cxx#4 $)

>  <Rbt.Library>
libRbt.so (2013.1, Build901 2013/11/27)

>  <Rbt.Parameter_File>
/export/apps/rDock/src/rDock_2013.1_src/data/scripts/dock_solv.prm

>  <Rbt.Receptor>
prm/pocket_docking_8.prm

>  <SCORE>
-13.0347

>  <SCORE.INTER>
-11.1807

>  <SCORE.INTER.CONST>
1

>  <SCORE.INTER.POLAR>
0

>  <SCORE.INTER.ROT>
6

>  <SCORE.INTER.SOLV>
13.8142

>  <SCORE.INTER.VDW>
-19.6585

>  <SCORE.INTER.norm>
-0.360668

>  <SCORE.INTRA>
-1.85397

>  <SCORE.INTRA.DIHEDRAL>
-6.54603

>  <SCORE.INTRA.DIHEDRAL.0>
19.2558

>  <SCORE.INTRA.POLAR>
0

>  <SCORE.INTRA.POLAR.0>
0

>  <SCORE.INTRA.REPUL>
0

>  <SCORE.INTRA.REPUL.0>
0

>  <SCORE.INTRA.SOLV>
0.870449

>  <SCORE.INTRA.SOLV.lig_0>
-64.5929

>  <SCORE.INTRA.VDW>
0.983823

>  <SCORE.INTRA.VDW.0>
-4.40538

>  <SCORE.INTRA.norm>
-0.0598054

>  <SCORE.RESTR>
0

>  <SCORE.RESTR.CAVITY>
0

>  <SCORE.RESTR.norm>
0

>  <SCORE.SYSTEM>
0

>  <SCORE.SYSTEM.CONST>
0

>  <SCORE.SYSTEM.DIHEDRAL>
0

>  <SCORE.SYSTEM.SOLV>
0

>  <SCORE.SYSTEM.norm>
0

>  <SCORE.heavy>
31

>  <SCORE.norm>
-0.420473

>  <RMSD>
6.739

$$$$
ligand
 OpenBabel11021811493D
libRbt.so/2013.1/901 2013/11/27
 31 33  0  0  0  0  0  0  0  0999 V2000
  -19.4176  -23.0203  -12.3658 C   0  0  2  0  0  0  0  0  0  0  0  0
  -19.7106  -21.9806  -11.4440 O   0  0  0  0  0  0  0  0  0  0  0  0
  -19.9963  -17.7272  -11.4891 C   0  0  2  0  0  0  0  0  0  0  0  0
  -19.6329  -16.3620  -11.6922 N   0  0  0  0  0  0  0  0  0  0  0  0
  -21.2794  -18.3559  -15.0795 C   0  0  2  0  0  0  0  0  0  0  0  0
  -19.8604  -24.3812  -11.6845 C   0  0  2  0  0  0  0  0  0  0  0  0
  -21.2965  -24.3232  -11.3747 N   0  0  0  0  0  0  0  0  0  0  0  0
  -18.9288  -18.3916  -10.5150 C   0  0  0  0  0  0  0  0  0  0  0  0
  -20.8303  -17.2021  -16.0362 C   0  0  2  0  0  0  0  0  0  0  0  0
  -19.4698  -16.9358  -15.7895 O   0  0  0  0  0  0  0  0  0  0  0  0
  -19.0100  -24.6251  -10.3753 C   0  0  0  0  0  0  0  0  0  0  0  0
  -19.3374  -19.9157  -10.2815 C   0  0  2  0  0  0  0  0  0  0  0  0
  -18.3592  -20.5517   -9.3728 N   0  0  0  0  0  0  0  0  0  0  0  0
  -21.7265  -15.9217  -15.7705 C   0  0  1  0  0  0  0  0  0  0  0  0
  -21.3060  -14.7973  -16.6813 N   0  0  0  0  0  0  0  0  0  0  0  0
  -17.4897  -24.2147  -10.5560 C   0  0  0  0  0  0  0  0  0  0  0  0
  -19.3407  -20.6669  -11.6761 C   0  0  2  0  0  0  0  0  0  0  0  0
  -23.2829  -16.2898  -16.0696 C   0  0  1  0  0  0  0  0  0  0  0  0
  -23.5137  -16.6859  -17.4064 O   0  0  0  0  0  0  0  0  0  0  0  0
  -17.0820  -23.5025  -11.6308 C   0  0  2  0  0  0  0  0  0  0  0  0
  -17.9826  -23.0812  -12.6606 O   0  0  0  0  0  0  0  0  0  0  0  0
  -20.3939  -19.9810  -12.6394 C   0  0  2  0  0  0  0  0  0  0  0  0
  -20.3844  -20.6608  -13.9057 O   0  0  0  0  0  0  0  0  0  0  0  0
  -23.7081  -17.4630  -15.1252 C   0  0  0  0  0  0  0  0  0  0  0  0
  -22.7546  -18.6452  -15.2887 O   0  0  0  0  0  0  0  0  0  0  0  0
  -15.6253  -23.0911  -11.8395 C   0  0  0  0  0  0  0  0  0  0  0  0
  -15.2023  -23.5885  -13.1185 O   0  0  0  0  0  0  0  0  0  0  0  0
  -19.9937  -18.4703  -12.8733 C   0  0  1  0  0  0  0  0  0  0  0  0
  -20.9644  -17.8895  -13.7271 O   0  0  0  0  0  0  0  0  0  0  0  0
  -24.2755  -15.1315  -15.8333 C   0  0  0  0  0  0  0  0  0  0  0  0
  -20.4147  -13.7757  -16.0951 C   0  0  0  0  0  0  0  0  0  0  0  0
  1  2  1  1  0  0  0
  1  6  1  0  0  0  0
  1 21  1  0  0  0  0
  3  4  1  6  0  0  0
  3  8  1  0  0  0  0
  3 28  1  0  0  0  0
  5  9  1  0  0  0  0
  5 25  1  0  0  0  0
  5 29  1  1  0  0  0
  6  7  1  1  0  0  0
  6 11  1  0  0  0  0
  8 12  1  0  0  0  0
  9 10  1  1  0  0  0
  9 14  1  0  0  0  0
 11 16  1  0  0  0  0
 12 13  1  1  0  0  0
 12 17  1  0  0  0  0
 14 15  1  6  0  0  0
 14 18  1  0  0  0  0
 15 31  1  0  0  0  0
 16 20  1  0  0  0  0
 17  2  1  1  0  0  0
 17 22  1  0  0  0  0
 18 19  1  6  0  0  0
 18 24  1  0  0  0  0
 18 30  1  0  0  0  0
 20 21  1  0  0  0  0
 20 26  1  6  0  0  0
 22 23  1  6  0  0  0
 22 28  1  0  0  0  0
 24 25  1  0  0  0  0
 26 27  1  0  0  0  0
 28 29  1  6  0  0  0
M  END
>  <CHROM.1>
174.25562376,-113.93597850,-98.97313583,-159.69207209,123.96640861,-177.55441313
-20.07933014,-19.59645350,-13.28108157,1.01669017,0.60503697,2.92457541

>  <Name>
ligand

>  <RI>
0

>  <Rbt.Current_Directory>
/home/itssahil/PROJECTS/Mol_Feturizer/New_Systems/rnas/4GPW

>  <Rbt.Executable>
rbdock ($Id: //depot/dev/client3/rdock/2013.1/src/exe/rbdock.cxx#4 $)

>  <Rbt.Library>
libRbt.so (2013.1, Build901 2013/11/27)

>  <Rbt.Parameter_File>
/export/apps/rDock/src/rDock_2013.1_src/data/scripts/dock_solv.prm

>  <Rbt.Receptor>
prm/pocket_docking_8.prm

>  <SCORE>
-11.4588

>  <SCORE.INTER>
-7.53548

>  <SCORE.INTER.CONST>
1

>  <SCORE.INTER.POLAR>
0

>  <SCORE.INTER.ROT>
6

>  <SCORE.INTER.SOLV>
22.3612

>  <SCORE.INTER.VDW>
-20.0774

>  <SCORE.INTER.norm>
-0.24308

>  <SCORE.INTRA>
-3.92334

>  <SCORE.INTRA.DIHEDRAL>
-7.60612

>  <SCORE.INTRA.DIHEDRAL.0>
19.2558

>  <SCORE.INTRA.POLAR>
0

>  <SCORE.INTRA.POLAR.0>
0

>  <SCORE.INTRA.REPUL>
0

>  <SCORE.INTRA.REPUL.0>
0

>  <SCORE.INTRA.SOLV>
-2.65897

>  <SCORE.INTRA.SOLV.lig_0>
-64.5929

>  <SCORE.INTRA.VDW>
1.2092

>  <SCORE.INTRA.VDW.0>
-4.40538

>  <SCORE.INTRA.norm>
-0.126559

>  <SCORE.RESTR>
0

>  <SCORE.RESTR.CAVITY>
0

>  <SCORE.RESTR.norm>
0

>  <SCORE.SYSTEM>
0

>  <SCORE.SYSTEM.CONST>
0

>  <SCORE.SYSTEM.DIHEDRAL>
0

>  <SCORE.SYSTEM.SOLV>
0

>  <SCORE.SYSTEM.norm>
0

>  <SCORE.heavy>
31

>  <SCORE.norm>
-0.369639

>  <RMSD>
6.791

$$$$
ligand
 OpenBabel11021811493D
libRbt.so/2013.1/901 2013/11/27
 31 33  0  0  0  0  0  0  0  0999 V2000
  -20.1180  -13.3799  -20.6328 C   0  0  2  0  0  0  0  0  0  0  0  0
  -21.4837  -13.0070  -20.7438 O   0  0  0  0  0  0  0  0  0  0  0  0
  -24.0351  -10.5259  -18.3966 C   0  0  2  0  0  0  0  0  0  0  0  0
  -24.8252  -10.0776  -17.2956 N   0  0  0  0  0  0  0  0  0  0  0  0
  -20.7903   -9.2286  -16.7735 C   0  0  2  0  0  0  0  0  0  0  0  0
  -19.6065  -13.7044  -22.0976 C   0  0  2  0  0  0  0  0  0  0  0  0
  -19.7741  -12.5141  -22.9442 N   0  0  0  0  0  0  0  0  0  0  0  0
  -24.6041  -11.9288  -18.8847 C   0  0  0  0  0  0  0  0  0  0  0  0
  -21.0868   -9.7203  -15.3180 C   0  0  2  0  0  0  0  0  0  0  0  0
  -21.5407  -11.0512  -15.3912 O   0  0  0  0  0  0  0  0  0  0  0  0
  -20.4096  -14.9322  -22.6844 C   0  0  0  0  0  0  0  0  0  0  0  0
  -23.7264  -12.4280  -20.1195 C   0  0  2  0  0  0  0  0  0  0  0  0
  -24.2427  -13.7305  -20.5931 N   0  0  0  0  0  0  0  0  0  0  0  0
  -22.1742   -8.7752  -14.6565 C   0  0  1  0  0  0  0  0  0  0  0  0
  -22.4758   -9.2355  -13.2538 N   0  0  0  0  0  0  0  0  0  0  0  0
  -20.6695  -16.0591  -21.6005 C   0  0  0  0  0  0  0  0  0  0  0  0
  -22.2217  -12.5864  -19.6506 C   0  0  2  0  0  0  0  0  0  0  0  0
  -21.5957   -7.2555  -14.6008 C   0  0  1  0  0  0  0  0  0  0  0  0
  -20.4189   -7.1363  -13.8274 O   0  0  0  0  0  0  0  0  0  0  0  0
  -20.4429  -15.8299  -20.2872 C   0  0  2  0  0  0  0  0  0  0  0  0
  -19.9587  -14.5748  -19.7981 O   0  0  0  0  0  0  0  0  0  0  0  0
  -21.6777  -11.1859  -19.1499 C   0  0  2  0  0  0  0  0  0  0  0  0
  -20.3158  -11.3389  -18.7167 O   0  0  0  0  0  0  0  0  0  0  0  0
  -21.2781   -6.7890  -16.0605 C   0  0  0  0  0  0  0  0  0  0  0  0
  -20.3352   -7.7811  -16.7389 O   0  0  0  0  0  0  0  0  0  0  0  0
  -20.6798  -16.8923  -19.2148 C   0  0  0  0  0  0  0  0  0  0  0  0
  -21.6837  -16.3983  -18.3147 O   0  0  0  0  0  0  0  0  0  0  0  0
  -22.5446  -10.6867  -17.9267 C   0  0  1  0  0  0  0  0  0  0  0  0
  -22.0364   -9.4287  -17.5170 O   0  0  0  0  0  0  0  0  0  0  0  0
  -22.5646   -6.2195  -13.9917 C   0  0  0  0  0  0  0  0  0  0  0  0
  -23.5235  -10.2671  -13.1121 C   0  0  0  0  0  0  0  0  0  0  0  0
  1  2  1  6  0  0  0
  1  6  1  0  0  0  0
  1 21  1  0  0  0  0
  3  4  1  1  0  0  0
  3  8  1  0  0  0  0
  3 28  1  0  0  0  0
  5  9  1  0  0  0  0
  5 25  1  0  0  0  0
  5 29  1  6  0  0  0
  6  7  1  6  0  0  0
  6 11  1  0  0  0  0
  8 12  1  0  0  0  0
  9 10  1  6  0  0  0
  9 14  1  0  0  0  0
 11 16  1  0  0  0  0
 12 13  1  1  0  0  0
 12 17  1  0  0  0  0
 14 15  1  1  0  0  0
 14 18  1  0  0  0  0
 15 31  1  0  0  0  0
 16 20  1  0  0  0  0
 17  2  1  6  0  0  0
 17 22  1  0  0  0  0
 18 19  1  1  0  0  0
 18 24  1  0  0  0  0
 18 30  1  0  0  0  0
 20 21  1  0  0  0  0
 20 26  1  6  0  0  0
 22 23  1  1  0  0  0
 22 28  1  0  0  0  0
 24 25  1  0  0  0  0
 26 27  1  0  0  0  0
 28 29  1  6  0  0  0
M  END
>  <CHROM.1>
-176.37658969,-72.94698247,-87.09391837,-173.29069989,-118.58946154,167.10960557
-21.68538643,-11.43677756,-18.03895262,-1.41162122,0.81417734,0.63661754

>  <Name>
ligand

>  <RI>
0

>  <Rbt.Current_Directory>
/home/itssahil/PROJECTS/Mol_Feturizer/New_Systems/rnas/4GPW

>  <Rbt.Executable>
rbdock ($Id: //depot/dev/client3/rdock/2013.1/src/exe/rbdock.cxx#4 $)

>  <Rbt.Library>
libRbt.so (2013.1, Build901 2013/11/27)

>  <Rbt.Parameter_File>
/export/apps/rDock/src/rDock_2013.1_src/data/scripts/dock_solv.prm

>  <Rbt.Receptor>
prm/pocket_docking_8.prm

>  <SCORE>
-8.95554

>  <SCORE.INTER>
-1.82747

>  <SCORE.INTER.CONST>
1

>  <SCORE.INTER.POLAR>
0

>  <SCORE.INTER.ROT>
6

>  <SCORE.INTER.SOLV>
8.57707

>  <SCORE.INTER.VDW>
-11.6773

>  <SCORE.INTER.norm>
-0.0589507

>  <SCORE.INTRA>
-7.12807

>  <SCORE.INTRA.DIHEDRAL>
-15.1783

>  <SCORE.INTRA.DIHEDRAL.0>
19.2558

>  <SCORE.INTRA.POLAR>
0

>  <SCORE.INTRA.POLAR.0>
0

>  <SCORE.INTRA.REPUL>
0

>  <SCORE.INTRA.REPUL.0>
0

>  <SCORE.INTRA.SOLV>
-2.04652

>  <SCORE.INTRA.SOLV.lig_0>
-64.5929

>  <SCORE.INTRA.VDW>
1.48435

>  <SCORE.INTRA.VDW.0>
-4.40538

>  <SCORE.INTRA.norm>
-0.229938

>  <SCORE.RESTR>
0

>  <SCORE.RESTR.CAVITY>
0

>  <SCORE.RESTR.norm>
0

>  <SCORE.SYSTEM>
0

>  <SCORE.SYSTEM.CONST>
0

>  <SCORE.SYSTEM.DIHEDRAL>
0

>  <SCORE.SYSTEM.SOLV>
0

>  <SCORE.SYSTEM.norm>
0

>  <SCORE.heavy>
31

>  <SCORE.norm>
-0.288888

>  <RMSD>
6.924

$$$$
ligand
 OpenBabel11021811493D
libRbt.so/2013.1/901 2013/11/27
 31 33  0  0  0  0  0  0  0  0999 V2000
  -23.9895  -16.0443  -16.7655 C   0  0  2  0  0  0  0  0  0  0  0  0
  -24.3101  -16.1712  -15.3880 O   0  0  0  0  0  0  0  0  0  0  0  0
  -22.2069  -12.8369  -13.7651 C   0  0  2  0  0  0  0  0  0  0  0  0
  -21.7793  -11.8503  -12.8264 N   0  0  0  0  0  0  0  0  0  0  0  0
  -19.7569  -14.9235  -11.8983 C   0  0  2  0  0  0  0  0  0  0  0  0
  -24.7173  -17.2323  -17.5214 C   0  0  2  0  0  0  0  0  0  0  0  0
  -26.1666  -17.1361  -17.2932 N   0  0  0  0  0  0  0  0  0  0  0  0
  -23.7814  -12.7065  -13.9487 C   0  0  0  0  0  0  0  0  0  0  0  0
  -18.2340  -14.6617  -12.1437 C   0  0  2  0  0  0  0  0  0  0  0  0
  -18.0584  -13.2819  -12.3627 O   0  0  0  0  0  0  0  0  0  0  0  0
  -24.1557  -18.6167  -17.0071 C   0  0  0  0  0  0  0  0  0  0  0  0
  -24.2599  -13.8040  -15.0026 C   0  0  2  0  0  0  0  0  0  0  0  0
  -25.7227  -13.6964  -15.1924 N   0  0  0  0  0  0  0  0  0  0  0  0
  -17.7506  -15.5104  -13.3924 C   0  0  1  0  0  0  0  0  0  0  0  0
  -16.2852  -15.2685  -13.6470 N   0  0  0  0  0  0  0  0  0  0  0  0
  -22.5882  -18.5850  -16.7741 C   0  0  0  0  0  0  0  0  0  0  0  0
  -23.8957  -15.2426  -14.4486 C   0  0  2  0  0  0  0  0  0  0  0  0
  -17.9789  -17.0912  -13.0824 C   0  0  1  0  0  0  0  0  0  0  0  0
  -17.2481  -17.5496  -11.9630 O   0  0  0  0  0  0  0  0  0  0  0  0
  -21.9058  -17.4175  -16.7761 C   0  0  2  0  0  0  0  0  0  0  0  0
  -22.5444  -16.1540  -16.9879 O   0  0  0  0  0  0  0  0  0  0  0  0
  -22.3277  -15.3484  -14.2532 C   0  0  2  0  0  0  0  0  0  0  0  0
  -22.0054  -16.6521  -13.7410 O   0  0  0  0  0  0  0  0  0  0  0  0
  -19.5014  -17.3314  -12.8117 C   0  0  0  0  0  0  0  0  0  0  0  0
  -19.9918  -16.4094  -11.6969 O   0  0  0  0  0  0  0  0  0  0  0  0
  -20.3951  -17.3483  -16.5572 C   0  0  0  0  0  0  0  0  0  0  0  0
  -20.1289  -16.2827  -15.6321 O   0  0  0  0  0  0  0  0  0  0  0  0
  -21.8486  -14.2624  -13.2102 C   0  0  1  0  0  0  0  0  0  0  0  0
  -20.4430  -14.3802  -13.0729 O   0  0  0  0  0  0  0  0  0  0  0  0
  -17.5644  -18.0387  -14.2284 C   0  0  0  0  0  0  0  0  0  0  0  0
  -15.9108  -14.8973  -15.0268 C   0  0  0  0  0  0  0  0  0  0  0  0
  1  2  1  1  0  0  0
  1  6  1  0  0  0  0
  1 21  1  0  0  0  0
  3  4  1  1  0  0  0
  3  8  1  0  0  0  0
  3 28  1  0  0  0  0
  5  9  1  0  0  0  0
  5 25  1  0  0  0  0
  5 29  1  6  0  0  0
  6  7  1  1  0  0  0
  6 11  1  0  0  0  0
  8 12  1  0  0  0  0
  9 10  1  6  0  0  0
  9 14  1  0  0  0  0
 11 16  1  0  0  0  0
 12 13  1  1  0  0  0
 12 17  1  0  0  0  0
 14 15  1  1  0  0  0
 14 18  1  0  0  0  0
 15 31  1  0  0  0  0
 16 20  1  0  0  0  0
 17  2  1  6  0  0  0
 17 22  1  0  0  0  0
 18 19  1  1  0  0  0
 18 24  1  0  0  0  0
 18 30  1  0  0  0  0
 20 21  1  0  0  0  0
 20 26  1  6  0  0  0
 22 23  1  1  0  0  0
 22 28  1  0  0  0  0
 24 25  1  0  0  0  0
 26 27  1  0  0  0  0
 28 29  1  6  0  0  0
M  END
>  <CHROM.1>
-176.20801879,-172.44211679,-128.68479735,49.04854816,-135.00275528,133.78300103
-21.16262242,-15.71653612,-14.45007232,-2.83601322,-0.35020725,0.59497596

>  <Name>
ligand

>  <RI>
0

>  <Rbt.Current_Directory>
/home/itssahil/PROJECTS/Mol_Feturizer/New_Systems/rnas/4GPW

>  <Rbt.Executable>
rbdock ($Id: //depot/dev/client3/rdock/2013.1/src/exe/rbdock.cxx#4 $)

>  <Rbt.Library>
libRbt.so (2013.1, Build901 2013/11/27)

>  <Rbt.Parameter_File>
/export/apps/rDock/src/rDock_2013.1_src/data/scripts/dock_solv.prm

>  <Rbt.Receptor>
prm/pocket_docking_3.prm

>  <SCORE>
-7.22607

>  <SCORE.INTER>
-3.04823

>  <SCORE.INTER.CONST>
1

>  <SCORE.INTER.POLAR>
0

>  <SCORE.INTER.ROT>
6

>  <SCORE.INTER.SOLV>
15.1532

>  <SCORE.INTER.VDW>
-14.6832

>  <SCORE.INTER.norm>
-0.0983301

>  <SCORE.INTRA>
-4.17784

>  <SCORE.INTRA.DIHEDRAL>
-8.92681

>  <SCORE.INTRA.DIHEDRAL.0>
19.2558

>  <SCORE.INTRA.POLAR>
0

>  <SCORE.INTRA.POLAR.0>
0

>  <SCORE.INTRA.REPUL>
0

>  <SCORE.INTRA.REPUL.0>
0

>  <SCORE.INTRA.SOLV>
-0.0694734

>  <SCORE.INTRA.SOLV.lig_0>
-64.5929

>  <SCORE.INTRA.VDW>
0.320306

>  <SCORE.INTRA.VDW.0>
-4.40538

>  <SCORE.INTRA.norm>
-0.134769

>  <SCORE.RESTR>
0

>  <SCORE.RESTR.CAVITY>
0

>  <SCORE.RESTR.norm>
0

>  <SCORE.SYSTEM>
0

>  <SCORE.SYSTEM.CONST>
0

>  <SCORE.SYSTEM.DIHEDRAL>
0

>  <SCORE.SYSTEM.SOLV>
0

>  <SCORE.SYSTEM.norm>
0

>  <SCORE.heavy>
31

>  <SCORE.norm>
-0.233099

>  <RMSD>
7.103

$$$$
ligand
 OpenBabel11021811493D
libRbt.so/2013.1/901 2013/11/27
 31 33  0  0  0  0  0  0  0  0999 V2000
  -24.5791  -13.0169  -16.7595 C   0  0  2  0  0  0  0  0  0  0  0  0
  -23.2145  -13.1684  -17.1224 O   0  0  0  0  0  0  0  0  0  0  0  0
  -21.4748  -14.0915  -13.3414 C   0  0  2  0  0  0  0  0  0  0  0  0
  -20.5098  -14.5113  -12.3771 N   0  0  0  0  0  0  0  0  0  0  0  0
  -21.7901  -10.8946  -12.6964 C   0  0  2  0  0  0  0  0  0  0  0  0
  -25.3525  -12.5373  -18.0573 C   0  0  2  0  0  0  0  0  0  0  0  0
  -25.1844  -13.5397  -19.1197 N   0  0  0  0  0  0  0  0  0  0  0  0
  -21.7200  -15.2880  -14.3603 C   0  0  0  0  0  0  0  0  0  0  0  0
  -21.0572   -9.7418  -11.9334 C   0  0  2  0  0  0  0  0  0  0  0  0
  -20.1483   -9.1384  -12.8236 O   0  0  0  0  0  0  0  0  0  0  0  0
  -24.8025  -11.1293  -18.5176 C   0  0  0  0  0  0  0  0  0  0  0  0
  -22.8034  -14.8228  -15.4347 C   0  0  2  0  0  0  0  0  0  0  0  0
  -23.0505  -15.9243  -16.3902 N   0  0  0  0  0  0  0  0  0  0  0  0
  -20.3141  -10.3403  -10.6674 C   0  0  1  0  0  0  0  0  0  0  0  0
  -19.5987   -9.2443   -9.9208 N   0  0  0  0  0  0  0  0  0  0  0  0
  -24.5062  -10.1660  -17.2942 C   0  0  0  0  0  0  0  0  0  0  0  0
  -22.2499  -13.5562  -16.2083 C   0  0  2  0  0  0  0  0  0  0  0  0
  -21.4116  -11.0233   -9.6793 C   0  0  1  0  0  0  0  0  0  0  0  0
  -22.3739  -10.1066   -9.1987 O   0  0  0  0  0  0  0  0  0  0  0  0
  -24.4916  -10.6334  -16.0254 C   0  0  2  0  0  0  0  0  0  0  0  0
  -24.7414  -12.0069  -15.7091 O   0  0  0  0  0  0  0  0  0  0  0  0
  -21.9930  -12.3821  -15.1772 C   0  0  2  0  0  0  0  0  0  0  0  0
  -21.4815  -11.2400  -15.8841 O   0  0  0  0  0  0  0  0  0  0  0  0
  -22.1546  -12.1544  -10.4653 C   0  0  0  0  0  0  0  0  0  0  0  0
  -22.7523  -11.5963  -11.7555 O   0  0  0  0  0  0  0  0  0  0  0  0
  -24.2121   -9.7345  -14.8217 C   0  0  0  0  0  0  0  0  0  0  0  0
  -25.2260   -9.9845  -13.8360 O   0  0  0  0  0  0  0  0  0  0  0  0
  -20.9205  -12.8385  -14.1101 C   0  0  1  0  0  0  0  0  0  0  0  0
  -20.7283  -11.7687  -13.2005 O   0  0  0  0  0  0  0  0  0  0  0  0
  -20.8204  -11.6654   -8.4060 C   0  0  0  0  0  0  0  0  0  0  0  0
  -18.1894   -9.0070  -10.2941 C   0  0  0  0  0  0  0  0  0  0  0  0
  1  2  1  6  0  0  0
  1  6  1  0  0  0  0
  1 21  1  0  0  0  0
  3  4  1  1  0  0  0
  3  8  1  0  0  0  0
  3 28  1  0  0  0  0
  5  9  1  0  0  0  0
  5 25  1  0  0  0  0
  5 29  1  1  0  0  0
  6  7  1  6  0  0  0
  6 11  1  0  0  0  0
  8 12  1  0  0  0  0
  9 10  1  6  0  0  0
  9 14  1  0  0  0  0
 11 16  1  0  0  0  0
 12 13  1  6  0  0  0
 12 17  1  0  0  0  0
 14 15  1  1  0  0  0
 14 18  1  0  0  0  0
 15 31  1  0  0  0  0
 16 20  1  0  0  0  0
 17  2  1  6  0  0  0
 17 22  1  0  0  0  0
 18 19  1  1  0  0  0
 18 24  1  0  0  0  0
 18 30  1  0  0  0  0
 20 21  1  0  0  0  0
 20 26  1  1  0  0  0
 22 23  1  6  0  0  0
 22 28  1  0  0  0  0
 24 25  1  0  0  0  0
 26 27  1  0  0  0  0
 28 29  1  1  0  0  0
M  END
>  <CHROM.1>
178.79580409,-170.62632597,-92.18000610,48.41807994,131.41708330,-79.50765495
-22.37897788,-11.80714482,-13.89559801,2.45458152,0.95349712,-2.66873993

>  <Name>
ligand

>  <RI>
0

>  <Rbt.Current_Directory>
/home/itssahil/PROJECTS/Mol_Feturizer/New_Systems/rnas/4GPW

>  <Rbt.Executable>
rbdock ($Id: //depot/dev/client3/rdock/2013.1/src/exe/rbdock.cxx#4 $)

>  <Rbt.Library>
libRbt.so (2013.1, Build901 2013/11/27)

>  <Rbt.Parameter_File>
/export/apps/rDock/src/rDock_2013.1_src/data/scripts/dock_solv.prm

>  <Rbt.Receptor>
prm/pocket_docking_7.prm

>  <SCORE>
-8.27571

>  <SCORE.INTER>
-1.59887

>  <SCORE.INTER.CONST>
1

>  <SCORE.INTER.POLAR>
0

>  <SCORE.INTER.ROT>
6

>  <SCORE.INTER.SOLV>
7.34495

>  <SCORE.INTER.VDW>
-11.1142

>  <SCORE.INTER.norm>
-0.0515764

>  <SCORE.INTRA>
-6.67684

>  <SCORE.INTRA.DIHEDRAL>
-13.9343

>  <SCORE.INTRA.DIHEDRAL.0>
19.2558

>  <SCORE.INTRA.POLAR>
0

>  <SCORE.INTRA.POLAR.0>
0

>  <SCORE.INTRA.REPUL>
0

>  <SCORE.INTRA.REPUL.0>
0

>  <SCORE.INTRA.SOLV>
-0.705329

>  <SCORE.INTRA.SOLV.lig_0>
-64.5929

>  <SCORE.INTRA.VDW>
0.642971

>  <SCORE.INTRA.VDW.0>
-4.40538

>  <SCORE.INTRA.norm>
-0.215382

>  <SCORE.RESTR>
0

>  <SCORE.RESTR.CAVITY>
0

>  <SCORE.RESTR.norm>
0

>  <SCORE.SYSTEM>
0

>  <SCORE.SYSTEM.CONST>
0

>  <SCORE.SYSTEM.DIHEDRAL>
0

>  <SCORE.SYSTEM.SOLV>
0

>  <SCORE.SYSTEM.norm>
0

>  <SCORE.heavy>
31

>  <SCORE.norm>
-0.266958

>  <RMSD>
7.116

$$$$
ligand
 OpenBabel11021811493D
libRbt.so/2013.1/901 2013/11/27
 31 33  0  0  0  0  0  0  0  0999 V2000
  -22.9886  -16.3180  -14.3035 C   0  0  2  0  0  0  0  0  0  0  0  0
  -22.4577  -16.2273  -15.6174 O   0  0  0  0  0  0  0  0  0  0  0  0
  -22.9316  -18.7359  -19.0317 C   0  0  2  0  0  0  0  0  0  0  0  0
  -22.7799  -19.8568  -19.9022 N   0  0  0  0  0  0  0  0  0  0  0  0
  -25.6595  -20.5052  -16.9597 C   0  0  2  0  0  0  0  0  0  0  0  0
  -22.9463  -14.8590  -13.6855 C   0  0  2  0  0  0  0  0  0  0  0  0
  -23.7411  -13.9529  -14.5275 N   0  0  0  0  0  0  0  0  0  0  0  0
  -21.4934  -18.1139  -18.7584 C   0  0  0  0  0  0  0  0  0  0  0  0
  -26.6605  -21.3537  -17.8119 C   0  0  2  0  0  0  0  0  0  0  0  0
  -25.9128  -22.1295  -18.7184 O   0  0  0  0  0  0  0  0  0  0  0  0
  -21.4488  -14.3655  -13.5823 C   0  0  0  0  0  0  0  0  0  0  0  0
  -21.6620  -16.8569  -17.7911 C   0  0  2  0  0  0  0  0  0  0  0  0
  -20.3349  -16.2593  -17.5281 N   0  0  0  0  0  0  0  0  0  0  0  0
  -27.6584  -20.3824  -18.5696 C   0  0  1  0  0  0  0  0  0  0  0  0
  -28.6292  -21.1821  -19.3995 N   0  0  0  0  0  0  0  0  0  0  0  0
  -20.4622  -15.5175  -13.1221 C   0  0  0  0  0  0  0  0  0  0  0  0
  -22.3121  -17.3390  -16.4295 C   0  0  2  0  0  0  0  0  0  0  0  0
  -28.4906  -19.5137  -17.4741 C   0  0  1  0  0  0  0  0  0  0  0  0
  -29.2697  -20.3124  -16.6066 O   0  0  0  0  0  0  0  0  0  0  0  0
  -20.8629  -16.8087  -13.0918 C   0  0  2  0  0  0  0  0  0  0  0  0
  -22.1843  -17.2127  -13.4652 O   0  0  0  0  0  0  0  0  0  0  0  0
  -23.7336  -17.9728  -16.7219 C   0  0  2  0  0  0  0  0  0  0  0  0
  -24.3132  -18.4170  -15.4840 O   0  0  0  0  0  0  0  0  0  0  0  0
  -27.4743  -18.6931  -16.6122 C   0  0  0  0  0  0  0  0  0  0  0  0
  -26.4321  -19.6240  -15.9952 O   0  0  0  0  0  0  0  0  0  0  0  0
  -19.9408  -17.9451  -12.6520 C   0  0  0  0  0  0  0  0  0  0  0  0
  -20.5742  -18.6346  -11.5631 O   0  0  0  0  0  0  0  0  0  0  0  0
  -23.5719  -19.2185  -17.6806 C   0  0  1  0  0  0  0  0  0  0  0  0
  -24.8629  -19.7482  -17.9282 O   0  0  0  0  0  0  0  0  0  0  0  0
  -29.4937  -18.5074  -18.0775 C   0  0  0  0  0  0  0  0  0  0  0  0
  -28.4743  -21.0865  -20.8653 C   0  0  0  0  0  0  0  0  0  0  0  0
  1  2  1  6  0  0  0
  1  6  1  0  0  0  0
  1 21  1  0  0  0  0
  3  4  1  6  0  0  0
  3  8  1  0  0  0  0
  3 28  1  0  0  0  0
  5  9  1  0  0  0  0
  5 25  1  0  0  0  0
  5 29  1  6  0  0  0
  6  7  1  6  0  0  0
  6 11  1  0  0  0  0
  8 12  1  0  0  0  0
  9 10  1  6  0  0  0
  9 14  1  0  0  0  0
 11 16  1  0  0  0  0
 12 13  1  1  0  0  0
 12 17  1  0  0  0  0
 14 15  1  1  0  0  0
 14 18  1  0  0  0  0
 15 31  1  0  0  0  0
 16 20  1  0  0  0  0
 17  2  1  1  0  0  0
 17 22  1  0  0  0  0
 18 19  1  1  0  0  0
 18 24  1  0  0  0  0
 18 30  1  0  0  0  0
 20 21  1  0  0  0  0
 20 26  1  1  0  0  0
 22 23  1  1  0  0  0
 22 28  1  0  0  0  0
 24 25  1  0  0  0  0
 26 27  1  0  0  0  0
 28 29  1  6  0  0  0
M  END
>  <CHROM.1>
178.00122162,-157.04553540,-110.54249773,-178.62107881,123.27611749,168.54238160
-24.21095092,-18.34123982,-16.42858772,0.73931825,0.24531934,1.09279457

>  <Name>
ligand

>  <RI>
0

>  <Rbt.Current_Directory>
/home/itssahil/PROJECTS/Mol_Feturizer/New_Systems/rnas/4GPW

>  <Rbt.Executable>
rbdock ($Id: //depot/dev/client3/rdock/2013.1/src/exe/rbdock.cxx#4 $)

>  <Rbt.Library>
libRbt.so (2013.1, Build901 2013/11/27)

>  <Rbt.Parameter_File>
/export/apps/rDock/src/rDock_2013.1_src/data/scripts/dock_solv.prm

>  <Rbt.Receptor>
prm/pocket_docking_8.prm

>  <SCORE>
-8.2626

>  <SCORE.INTER>
-1.57839

>  <SCORE.INTER.CONST>
1

>  <SCORE.INTER.POLAR>
0

>  <SCORE.INTER.ROT>
6

>  <SCORE.INTER.SOLV>
8.46437

>  <SCORE.INTER.VDW>
-11.4737

>  <SCORE.INTER.norm>
-0.0509157

>  <SCORE.INTRA>
-6.68422

>  <SCORE.INTRA.DIHEDRAL>
-13.4576

>  <SCORE.INTRA.DIHEDRAL.0>
19.2558

>  <SCORE.INTRA.POLAR>
0

>  <SCORE.INTRA.POLAR.0>
0

>  <SCORE.INTRA.REPUL>
0

>  <SCORE.INTRA.REPUL.0>
0

>  <SCORE.INTRA.SOLV>
-3.44541

>  <SCORE.INTRA.SOLV.lig_0>
-64.5929

>  <SCORE.INTRA.VDW>
1.7673

>  <SCORE.INTRA.VDW.0>
-4.40538

>  <SCORE.INTRA.norm>
-0.21562

>  <SCORE.RESTR>
0

>  <SCORE.RESTR.CAVITY>
0

>  <SCORE.RESTR.norm>
0

>  <SCORE.SYSTEM>
0

>  <SCORE.SYSTEM.CONST>
0

>  <SCORE.SYSTEM.DIHEDRAL>
0

>  <SCORE.SYSTEM.SOLV>
0

>  <SCORE.SYSTEM.norm>
0

>  <SCORE.heavy>
31

>  <SCORE.norm>
-0.266536

>  <RMSD>
7.138

$$$$
ligand
 OpenBabel11021811493D
libRbt.so/2013.1/901 2013/11/27
 31 33  0  0  0  0  0  0  0  0999 V2000
  -24.5489  -12.9025  -16.8172 C   0  0  2  0  0  0  0  0  0  0  0  0
  -23.1309  -12.9105  -16.8944 O   0  0  0  0  0  0  0  0  0  0  0  0
  -22.1062  -15.0906  -13.3770 C   0  0  2  0  0  0  0  0  0  0  0  0
  -21.3353  -15.8600  -12.4544 N   0  0  0  0  0  0  0  0  0  0  0  0
  -20.5476  -11.7887  -12.1450 C   0  0  2  0  0  0  0  0  0  0  0  0
  -25.0854  -12.3777  -18.2133 C   0  0  2  0  0  0  0  0  0  0  0  0
  -24.6078  -13.2680  -19.2815 N   0  0  0  0  0  0  0  0  0  0  0  0
  -22.1897  -15.8891  -14.7501 C   0  0  0  0  0  0  0  0  0  0  0  0
  -20.3306  -11.7295  -10.5966 C   0  0  2  0  0  0  0  0  0  0  0  0
  -19.7418  -12.9428  -10.1920 O   0  0  0  0  0  0  0  0  0  0  0  0
  -24.5934  -10.8953  -18.4520 C   0  0  0  0  0  0  0  0  0  0  0  0
  -23.0566  -15.0336  -15.7802 C   0  0  2  0  0  0  0  0  0  0  0  0
  -23.1515  -15.7616  -17.0640 N   0  0  0  0  0  0  0  0  0  0  0  0
  -21.7256  -11.4977   -9.8800 C   0  0  1  0  0  0  0  0  0  0  0  0
  -21.5373  -11.4413   -8.3861 N   0  0  0  0  0  0  0  0  0  0  0  0
  -24.6474  -10.0197  -17.1317 C   0  0  0  0  0  0  0  0  0  0  0  0
  -22.3510  -13.6340  -16.0085 C   0  0  2  0  0  0  0  0  0  0  0  0
  -22.3564  -10.0861  -10.3866 C   0  0  1  0  0  0  0  0  0  0  0  0
  -21.5436   -8.9716  -10.0793 O   0  0  0  0  0  0  0  0  0  0  0  0
  -24.8456  -10.5918  -15.9226 C   0  0  2  0  0  0  0  0  0  0  0  0
  -25.0191  -12.0032  -15.7588 O   0  0  0  0  0  0  0  0  0  0  0  0
  -22.2585  -12.8614  -14.6293 C   0  0  2  0  0  0  0  0  0  0  0  0
  -21.6084  -11.5973  -14.8418 O   0  0  0  0  0  0  0  0  0  0  0  0
  -22.5410  -10.1510  -11.9393 C   0  0  0  0  0  0  0  0  0  0  0  0
  -21.2186  -10.5107  -12.6140 O   0  0  0  0  0  0  0  0  0  0  0  0
  -24.9056   -9.7800  -14.6294 C   0  0  0  0  0  0  0  0  0  0  0  0
  -26.2282   -9.2336  -14.5093 O   0  0  0  0  0  0  0  0  0  0  0  0
  -21.4009  -13.7054  -13.6049 C   0  0  1  0  0  0  0  0  0  0  0  0
  -21.3525  -12.9892  -12.3830 O   0  0  0  0  0  0  0  0  0  0  0  0
  -23.7322   -9.7401   -9.7778 C   0  0  0  0  0  0  0  0  0  0  0  0
  -21.5634  -12.7338   -7.6715 C   0  0  0  0  0  0  0  0  0  0  0  0
  1  2  1  6  0  0  0
  1  6  1  0  0  0  0
  1 21  1  0  0  0  0
  3  4  1  1  0  0  0
  3  8  1  0  0  0  0
  3 28  1  0  0  0  0
  5  9  1  0  0  0  0
  5 25  1  0  0  0  0
  5 29  1  1  0  0  0
  6  7  1  6  0  0  0
  6 11  1  0  0  0  0
  8 12  1  0  0  0  0
  9 10  1  1  0  0  0
  9 14  1  0  0  0  0
 11 16  1  0  0  0  0
 12 13  1  6  0  0  0
 12 17  1  0  0  0  0
 14 15  1  1  0  0  0
 14 18  1  0  0  0  0
 15 31  1  0  0  0  0
 16 20  1  0  0  0  0
 17  2  1  6  0  0  0
 17 22  1  0  0  0  0
 18 19  1  1  0  0  0
 18 24  1  0  0  0  0
 18 30  1  0  0  0  0
 20 21  1  0  0  0  0
 20 26  1  6  0  0  0
 22 23  1  6  0  0  0
 22 28  1  0  0  0  0
 24 25  1  0  0  0  0
 26 27  1  0  0  0  0
 28 29  1  1  0  0  0
M  END
>  <CHROM.1>
-162.33563903,-156.40343788,-86.83299024,41.11507630,81.57697749,167.37660485
-22.74659016,-12.15347873,-13.71439758,-2.26512653,-0.97402000,0.81936758

>  <Name>
ligand

>  <RI>
0

>  <Rbt.Current_Directory>
/home/itssahil/PROJECTS/Mol_Feturizer/New_Systems/rnas/4GPW

>  <Rbt.Executable>
rbdock ($Id: //depot/dev/client3/rdock/2013.1/src/exe/rbdock.cxx#4 $)

>  <Rbt.Library>
libRbt.so (2013.1, Build901 2013/11/27)

>  <Rbt.Parameter_File>
/export/apps/rDock/src/rDock_2013.1_src/data/scripts/dock_solv.prm

>  <Rbt.Receptor>
prm/pocket_docking_8.prm

>  <SCORE>
-9.14601

>  <SCORE.INTER>
-5.43621

>  <SCORE.INTER.CONST>
1

>  <SCORE.INTER.POLAR>
0

>  <SCORE.INTER.ROT>
6

>  <SCORE.INTER.SOLV>
12.0869

>  <SCORE.INTER.VDW>
-15.2531

>  <SCORE.INTER.norm>
-0.175362

>  <SCORE.INTRA>
-3.7098

>  <SCORE.INTRA.DIHEDRAL>
-9.46334

>  <SCORE.INTRA.DIHEDRAL.0>
19.2558

>  <SCORE.INTRA.POLAR>
0

>  <SCORE.INTRA.POLAR.0>
0

>  <SCORE.INTRA.REPUL>
0

>  <SCORE.INTRA.REPUL.0>
0

>  <SCORE.INTRA.SOLV>
-1.22843

>  <SCORE.INTRA.SOLV.lig_0>
-64.5929

>  <SCORE.INTRA.VDW>
1.63609

>  <SCORE.INTRA.VDW.0>
-4.40538

>  <SCORE.INTRA.norm>
-0.119671

>  <SCORE.RESTR>
0

>  <SCORE.RESTR.CAVITY>
0

>  <SCORE.RESTR.norm>
0

>  <SCORE.SYSTEM>
0

>  <SCORE.SYSTEM.CONST>
0

>  <SCORE.SYSTEM.DIHEDRAL>
0

>  <SCORE.SYSTEM.SOLV>
0

>  <SCORE.SYSTEM.norm>
0

>  <SCORE.heavy>
31

>  <SCORE.norm>
-0.295032

>  <RMSD>
7.227

$$$$
ligand
 OpenBabel11021811493D
libRbt.so/2013.1/901 2013/11/27
 31 33  0  0  0  0  0  0  0  0999 V2000
  -24.4380  -14.9944  -15.2450 C   0  0  2  0  0  0  0  0  0  0  0  0
  -23.6064  -15.4416  -16.3057 O   0  0  0  0  0  0  0  0  0  0  0  0
  -20.9315  -18.0041  -14.1955 C   0  0  2  0  0  0  0  0  0  0  0  0
  -19.9131  -18.9759  -13.9597 N   0  0  0  0  0  0  0  0  0  0  0  0
  -18.0083  -16.7741  -13.8667 C   0  0  2  0  0  0  0  0  0  0  0  0
  -25.5439  -14.0580  -15.8872 C   0  0  2  0  0  0  0  0  0  0  0  0
  -26.3062  -14.8225  -16.8853 N   0  0  0  0  0  0  0  0  0  0  0  0
  -22.0782  -18.6795  -15.0668 C   0  0  0  0  0  0  0  0  0  0  0  0
  -17.2279  -15.6788  -13.0670 C   0  0  2  0  0  0  0  0  0  0  0  0
  -18.0107  -15.3088  -11.9566 O   0  0  0  0  0  0  0  0  0  0  0  0
  -24.8587  -12.7957  -16.5459 C   0  0  0  0  0  0  0  0  0  0  0  0
  -23.2204  -17.5967  -15.3254 C   0  0  2  0  0  0  0  0  0  0  0  0
  -24.3007  -18.2066  -16.1306 N   0  0  0  0  0  0  0  0  0  0  0  0
  -16.9466  -14.4388  -14.0138 C   0  0  1  0  0  0  0  0  0  0  0  0
  -16.1979  -13.3706  -13.2594 N   0  0  0  0  0  0  0  0  0  0  0  0
  -23.6631  -12.2310  -15.6719 C   0  0  0  0  0  0  0  0  0  0  0  0
  -22.5973  -16.3682  -16.1076 C   0  0  2  0  0  0  0  0  0  0  0  0
  -16.0425  -14.9266  -15.2755 C   0  0  1  0  0  0  0  0  0  0  0  0
  -14.7859  -15.4467  -14.8912 O   0  0  0  0  0  0  0  0  0  0  0  0
  -23.1632  -12.9382  -14.6333 C   0  0  2  0  0  0  0  0  0  0  0  0
  -23.6747  -14.2218  -14.2599 O   0  0  0  0  0  0  0  0  0  0  0  0
  -21.4452  -15.7203  -15.2353 C   0  0  2  0  0  0  0  0  0  0  0  0
  -20.8776  -14.6132  -15.9549 O   0  0  0  0  0  0  0  0  0  0  0  0
  -16.8242  -16.0408  -16.0480 C   0  0  0  0  0  0  0  0  0  0  0  0
  -17.2117  -17.1709  -15.0961 O   0  0  0  0  0  0  0  0  0  0  0  0
  -22.0133  -12.4250  -13.7676 C   0  0  0  0  0  0  0  0  0  0  0  0
  -22.4809  -12.3413  -12.4124 O   0  0  0  0  0  0  0  0  0  0  0  0
  -20.3112  -16.7897  -14.9757 C   0  0  1  0  0  0  0  0  0  0  0  0
  -19.3081  -16.1775  -14.1835 O   0  0  0  0  0  0  0  0  0  0  0  0
  -15.7056  -13.8164  -16.2939 C   0  0  0  0  0  0  0  0  0  0  0  0
  -17.0161  -12.4310  -12.4660 C   0  0  0  0  0  0  0  0  0  0  0  0
  1  2  1  6  0  0  0
  1  6  1  0  0  0  0
  1 21  1  0  0  0  0
  3  4  1  6  0  0  0
  3  8  1  0  0  0  0
  3 28  1  0  0  0  0
  5  9  1  0  0  0  0
  5 25  1  0  0  0  0
  5 29  1  6  0  0  0
  6  7  1  6  0  0  0
  6 11  1  0  0  0  0
  8 12  1  0  0  0  0
  9 10  1  1  0  0  0
  9 14  1  0  0  0  0
 11 16  1  0  0  0  0
 12 13  1  6  0  0  0
 12 17  1  0  0  0  0
 14 15  1  1  0  0  0
 14 18  1  0  0  0  0
 15 31  1  0  0  0  0
 16 20  1  0  0  0  0
 17  2  1  1  0  0  0
 17 22  1  0  0  0  0
 18 19  1  1  0  0  0
 18 24  1  0  0  0  0
 18 30  1  0  0  0  0
 20 21  1  0  0  0  0
 20 26  1  1  0  0  0
 22 23  1  6  0  0  0
 22 28  1  0  0  0  0
 24 25  1  0  0  0  0
 26 27  1  0  0  0  0
 28 29  1  1  0  0  0
M  END
>  <CHROM.1>
-174.69722303,175.86354328,-84.93162124,50.30922277,120.55908541,69.98049121
-20.56641053,-15.22466834,-14.78727220,-3.13160710,0.18445593,-2.94607908

>  <Name>
ligand

>  <RI>
0

>  <Rbt.Current_Directory>
/home/itssahil/PROJECTS/Mol_Feturizer/New_Systems/rnas/4GPW

>  <Rbt.Executable>
rbdock ($Id: //depot/dev/client3/rdock/2013.1/src/exe/rbdock.cxx#4 $)

>  <Rbt.Library>
libRbt.so (2013.1, Build901 2013/11/27)

>  <Rbt.Parameter_File>
/export/apps/rDock/src/rDock_2013.1_src/data/scripts/dock_solv.prm

>  <Rbt.Receptor>
prm/pocket_docking_5.prm

>  <SCORE>
-10.5137

>  <SCORE.INTER>
-3.23596

>  <SCORE.INTER.CONST>
1

>  <SCORE.INTER.POLAR>
0

>  <SCORE.INTER.ROT>
6

>  <SCORE.INTER.SOLV>
15.2068

>  <SCORE.INTER.VDW>
-14.8262

>  <SCORE.INTER.norm>
-0.104386

>  <SCORE.INTRA>
-7.27773

>  <SCORE.INTRA.DIHEDRAL>
-15.9602

>  <SCORE.INTRA.DIHEDRAL.0>
19.2558

>  <SCORE.INTRA.POLAR>
0

>  <SCORE.INTRA.POLAR.0>
0

>  <SCORE.INTRA.REPUL>
0

>  <SCORE.INTRA.REPUL.0>
0

>  <SCORE.INTRA.SOLV>
-1.07801

>  <SCORE.INTRA.SOLV.lig_0>
-64.5929

>  <SCORE.INTRA.VDW>
1.24136

>  <SCORE.INTRA.VDW.0>
-4.40538

>  <SCORE.INTRA.norm>
-0.234765

>  <SCORE.RESTR>
0

>  <SCORE.RESTR.CAVITY>
0

>  <SCORE.RESTR.norm>
0

>  <SCORE.SYSTEM>
0

>  <SCORE.SYSTEM.CONST>
0

>  <SCORE.SYSTEM.DIHEDRAL>
0

>  <SCORE.SYSTEM.SOLV>
0

>  <SCORE.SYSTEM.norm>
0

>  <SCORE.heavy>
31

>  <SCORE.norm>
-0.339151

>  <RMSD>
7.315

$$$$
ligand
 OpenBabel11021811493D
libRbt.so/2013.1/901 2013/11/27
 31 33  0  0  0  0  0  0  0  0999 V2000
  -22.2921  -10.6093  -14.9250 C   0  0  2  0  0  0  0  0  0  0  0  0
  -23.0144  -11.0429  -13.7818 O   0  0  0  0  0  0  0  0  0  0  0  0
  -22.3137  -15.2449  -13.9478 C   0  0  2  0  0  0  0  0  0  0  0  0
  -22.2970  -16.6170  -13.5551 N   0  0  0  0  0  0  0  0  0  0  0  0
  -23.9045  -15.9810  -16.2683 C   0  0  2  0  0  0  0  0  0  0  0  0
  -22.3708   -9.0264  -14.9491 C   0  0  2  0  0  0  0  0  0  0  0  0
  -21.7890   -8.4933  -13.7084 N   0  0  0  0  0  0  0  0  0  0  0  0
  -21.5224  -14.4005  -12.8566 C   0  0  0  0  0  0  0  0  0  0  0  0
  -25.1144  -16.3604  -17.1851 C   0  0  2  0  0  0  0  0  0  0  0  0
  -25.9393  -15.2261  -17.3101 O   0  0  0  0  0  0  0  0  0  0  0  0
  -23.8745   -8.5684  -15.1096 C   0  0  0  0  0  0  0  0  0  0  0  0
  -21.5344  -12.8676  -13.2975 C   0  0  2  0  0  0  0  0  0  0  0  0
  -20.7980  -12.0642  -12.2977 N   0  0  0  0  0  0  0  0  0  0  0  0
  -25.8998  -17.5770  -16.5400 C   0  0  1  0  0  0  0  0  0  0  0  0
  -27.0722  -17.9550  -17.4080 N   0  0  0  0  0  0  0  0  0  0  0  0
  -24.6796   -9.4798  -16.1262 C   0  0  0  0  0  0  0  0  0  0  0  0
  -23.0354  -12.3692  -13.3854 C   0  0  2  0  0  0  0  0  0  0  0  0
  -24.8983  -18.8536  -16.4198 C   0  0  1  0  0  0  0  0  0  0  0  0
  -24.4069  -19.2946  -17.6693 O   0  0  0  0  0  0  0  0  0  0  0  0
  -24.1679  -10.6501  -16.5703 C   0  0  2  0  0  0  0  0  0  0  0  0
  -22.8848  -11.1335  -16.1594 O   0  0  0  0  0  0  0  0  0  0  0  0
  -23.8131  -13.2327  -14.4612 C   0  0  2  0  0  0  0  0  0  0  0  0
  -25.1762  -12.7820  -14.5285 O   0  0  0  0  0  0  0  0  0  0  0  0
  -23.6806  -18.4494  -15.5237 C   0  0  0  0  0  0  0  0  0  0  0  0
  -23.0111  -17.1930  -16.0773 O   0  0  0  0  0  0  0  0  0  0  0  0
  -24.9137  -11.5532  -17.5517 C   0  0  0  0  0  0  0  0  0  0  0  0
  -24.1946  -11.5474  -18.7947 O   0  0  0  0  0  0  0  0  0  0  0  0
  -23.8035  -14.7526  -14.0291 C   0  0  1  0  0  0  0  0  0  0  0  0
  -24.4956  -15.4919  -15.0205 O   0  0  0  0  0  0  0  0  0  0  0  0
  -25.5316  -20.1118  -15.7882 C   0  0  0  0  0  0  0  0  0  0  0  0
  -28.1795  -18.6698  -16.7411 C   0  0  0  0  0  0  0  0  0  0  0  0
  1  2  1  1  0  0  0
  1  6  1  0  0  0  0
  1 21  1  0  0  0  0
  3  4  1  1  0  0  0
  3  8  1  0  0  0  0
  3 28  1  0  0  0  0
  5  9  1  0  0  0  0
  5 25  1  0  0  0  0
  5 29  1  1  0  0  0
  6  7  1  1  0  0  0
  6 11  1  0  0  0  0
  8 12  1  0  0  0  0
  9 10  1  1  0  0  0
  9 14  1  0  0  0  0
 11 16  1  0  0  0  0
 12 13  1  1  0  0  0
 12 17  1  0  0  0  0
 14 15  1  6  0  0  0
 14 18  1  0  0  0  0
 15 31  1  0  0  0  0
 16 20  1  0  0  0  0
 17  2  1  6  0  0  0
 17 22  1  0  0  0  0
 18 19  1  6  0  0  0
 18 24  1  0  0  0  0
 18 30  1  0  0  0  0
 20 21  1  0  0  0  0
 20 26  1  6  0  0  0
 22 23  1  1  0  0  0
 22 28  1  0  0  0  0
 24 25  1  0  0  0  0
 26 27  1  0  0  0  0
 28 29  1  6  0  0  0
M  END
>  <CHROM.1>
-173.48449247,-164.38310460,-156.89530330,51.56739685,112.28285062,-34.57055069
-23.91915236,-14.13727346,-15.45460943,-1.12529103,0.83401959,3.01241918

>  <Name>
ligand

>  <RI>
0

>  <Rbt.Current_Directory>
/home/itssahil/PROJECTS/Mol_Feturizer/New_Systems/rnas/4GPW

>  <Rbt.Executable>
rbdock ($Id: //depot/dev/client3/rdock/2013.1/src/exe/rbdock.cxx#4 $)

>  <Rbt.Library>
libRbt.so (2013.1, Build901 2013/11/27)

>  <Rbt.Parameter_File>
/export/apps/rDock/src/rDock_2013.1_src/data/scripts/dock_solv.prm

>  <Rbt.Receptor>
prm/pocket_docking_7.prm

>  <SCORE>
-10.4965

>  <SCORE.INTER>
-6.73621

>  <SCORE.INTER.CONST>
1

>  <SCORE.INTER.POLAR>
0

>  <SCORE.INTER.ROT>
6

>  <SCORE.INTER.SOLV>
11.8439

>  <SCORE.INTER.VDW>
-16.0388

>  <SCORE.INTER.norm>
-0.217297

>  <SCORE.INTRA>
-3.76025

>  <SCORE.INTRA.DIHEDRAL>
-12.6621

>  <SCORE.INTRA.DIHEDRAL.0>
19.2558

>  <SCORE.INTRA.POLAR>
0

>  <SCORE.INTRA.POLAR.0>
0

>  <SCORE.INTRA.REPUL>
0

>  <SCORE.INTRA.REPUL.0>
0

>  <SCORE.INTRA.SOLV>
0.404796

>  <SCORE.INTRA.SOLV.lig_0>
-64.5929

>  <SCORE.INTRA.VDW>
2.36842

>  <SCORE.INTRA.VDW.0>
-4.40538

>  <SCORE.INTRA.norm>
-0.121299

>  <SCORE.RESTR>
0

>  <SCORE.RESTR.CAVITY>
0

>  <SCORE.RESTR.norm>
0

>  <SCORE.SYSTEM>
0

>  <SCORE.SYSTEM.CONST>
0

>  <SCORE.SYSTEM.DIHEDRAL>
0

>  <SCORE.SYSTEM.SOLV>
0

>  <SCORE.SYSTEM.norm>
0

>  <SCORE.heavy>
31

>  <SCORE.norm>
-0.338596

>  <RMSD>
7.387

$$$$
ligand
 OpenBabel11021811493D
libRbt.so/2013.1/901 2013/11/27
 31 33  0  0  0  0  0  0  0  0999 V2000
  -23.9658  -14.2665  -16.9434 C   0  0  2  0  0  0  0  0  0  0  0  0
  -24.6079  -13.6041  -15.8638 O   0  0  0  0  0  0  0  0  0  0  0  0
  -21.3573  -13.0852  -13.1547 C   0  0  2  0  0  0  0  0  0  0  0  0
  -20.6506  -12.7829  -11.9520 N   0  0  0  0  0  0  0  0  0  0  0  0
  -20.1606  -15.5738  -12.6304 C   0  0  2  0  0  0  0  0  0  0  0  0
  -24.8432  -14.0014  -18.2366 C   0  0  2  0  0  0  0  0  0  0  0  0
  -24.9362  -12.5528  -18.4704 N   0  0  0  0  0  0  0  0  0  0  0  0
  -22.1715  -11.7924  -13.5973 C   0  0  0  0  0  0  0  0  0  0  0  0
  -19.8997  -16.0065  -14.1112 C   0  0  2  0  0  0  0  0  0  0  0  0
  -20.4819  -15.0423  -14.9563 O   0  0  0  0  0  0  0  0  0  0  0  0
  -26.2780  -14.6360  -18.0483 C   0  0  0  0  0  0  0  0  0  0  0  0
  -22.9564  -12.1265  -14.9451 C   0  0  2  0  0  0  0  0  0  0  0  0
  -23.7171  -10.9342  -15.3778 N   0  0  0  0  0  0  0  0  0  0  0  0
  -20.5259  -17.4422  -14.3561 C   0  0  1  0  0  0  0  0  0  0  0  0
  -20.2876  -17.8751  -15.7796 N   0  0  0  0  0  0  0  0  0  0  0  0
  -26.2262  -16.0453  -17.3247 C   0  0  0  0  0  0  0  0  0  0  0  0
  -23.9520  -13.3289  -14.6761 C   0  0  2  0  0  0  0  0  0  0  0  0
  -19.8175  -18.5101  -13.3536 C   0  0  1  0  0  0  0  0  0  0  0  0
  -18.4242  -18.6262  -13.5593 O   0  0  0  0  0  0  0  0  0  0  0  0
  -25.0946  -16.4815  -16.7265 C   0  0  2  0  0  0  0  0  0  0  0  0
  -23.8877  -15.7120  -16.7101 O   0  0  0  0  0  0  0  0  0  0  0  0
  -23.1274  -14.6008  -14.2179 C   0  0  2  0  0  0  0  0  0  0  0  0
  -24.0373  -15.6845  -13.9659 O   0  0  0  0  0  0  0  0  0  0  0  0
  -20.0634  -18.0483  -11.8787 C   0  0  0  0  0  0  0  0  0  0  0  0
  -19.5804  -16.6118  -11.6872 O   0  0  0  0  0  0  0  0  0  0  0  0
  -25.0068  -17.8344  -16.0217 C   0  0  0  0  0  0  0  0  0  0  0  0
  -24.1893  -18.7008  -16.8238 O   0  0  0  0  0  0  0  0  0  0  0  0
  -22.3472  -14.2745  -12.8830 C   0  0  1  0  0  0  0  0  0  0  0  0
  -21.6135  -15.4295  -12.5137 O   0  0  0  0  0  0  0  0  0  0  0  0
  -20.3472  -19.9551  -13.4734 C   0  0  0  0  0  0  0  0  0  0  0  0
  -21.3190  -17.4904  -16.7644 C   0  0  0  0  0  0  0  0  0  0  0  0
  1  2  1  1  0  0  0
  1  6  1  0  0  0  0
  1 21  1  0  0  0  0
  3  4  1  1  0  0  0
  3  8  1  0  0  0  0
  3 28  1  0  0  0  0
  5  9  1  0  0  0  0
  5 25  1  0  0  0  0
  5 29  1  6  0  0  0
  6  7  1  1  0  0  0
  6 11  1  0  0  0  0
  8 12  1  0  0  0  0
  9 10  1  6  0  0  0
  9 14  1  0  0  0  0
 11 16  1  0  0  0  0
 12 13  1  1  0  0  0
 12 17  1  0  0  0  0
 14 15  1  6  0  0  0
 14 18  1  0  0  0  0
 15 31  1  0  0  0  0
 16 20  1  0  0  0  0
 17  2  1  6  0  0  0
 17 22  1  0  0  0  0
 18 19  1  6  0  0  0
 18 24  1  0  0  0  0
 18 30  1  0  0  0  0
 20 21  1  0  0  0  0
 20 26  1  6  0  0  0
 22 23  1  1  0  0  0
 22 28  1  0  0  0  0
 24 25  1  0  0  0  0
 26 27  1  0  0  0  0
 28 29  1  6  0  0  0
M  END
>  <CHROM.1>
-162.71279438,-83.56098511,-89.33087751,74.19057652,108.74144977,-11.43400551
-22.43681465,-15.50089747,-14.86770536,2.83610259,-0.74540512,0.29775358

>  <Name>
ligand

>  <RI>
0

>  <Rbt.Current_Directory>
/home/itssahil/PROJECTS/Mol_Feturizer/New_Systems/rnas/4GPW

>  <Rbt.Executable>
rbdock ($Id: //depot/dev/client3/rdock/2013.1/src/exe/rbdock.cxx#4 $)

>  <Rbt.Library>
libRbt.so (2013.1, Build901 2013/11/27)

>  <Rbt.Parameter_File>
/export/apps/rDock/src/rDock_2013.1_src/data/scripts/dock_solv.prm

>  <Rbt.Receptor>
prm/pocket_docking_3.prm

>  <SCORE>
-1.88306

>  <SCORE.INTER>
-1.74176

>  <SCORE.INTER.CONST>
1

>  <SCORE.INTER.POLAR>
0

>  <SCORE.INTER.ROT>
6

>  <SCORE.INTER.SOLV>
12.2944

>  <SCORE.INTER.VDW>
-12.8593

>  <SCORE.INTER.norm>
-0.0561859

>  <SCORE.INTRA>
-0.141297

>  <SCORE.INTRA.DIHEDRAL>
-5.5276

>  <SCORE.INTRA.DIHEDRAL.0>
19.2558

>  <SCORE.INTRA.POLAR>
0

>  <SCORE.INTRA.POLAR.0>
0

>  <SCORE.INTRA.REPUL>
0.0128951

>  <SCORE.INTRA.REPUL.0>
0

>  <SCORE.INTRA.SOLV>
1.16208

>  <SCORE.INTRA.SOLV.lig_0>
-64.5929

>  <SCORE.INTRA.VDW>
1.97699

>  <SCORE.INTRA.VDW.0>
-4.40538

>  <SCORE.INTRA.norm>
-0.00455796

>  <SCORE.RESTR>
0

>  <SCORE.RESTR.CAVITY>
0

>  <SCORE.RESTR.norm>
0

>  <SCORE.SYSTEM>
0

>  <SCORE.SYSTEM.CONST>
0

>  <SCORE.SYSTEM.DIHEDRAL>
0

>  <SCORE.SYSTEM.SOLV>
0

>  <SCORE.SYSTEM.norm>
0

>  <SCORE.heavy>
31

>  <SCORE.norm>
-0.0607438

>  <RMSD>
7.414

$$$$
ligand
 OpenBabel11021811493D
libRbt.so/2013.1/901 2013/11/27
 31 33  0  0  0  0  0  0  0  0999 V2000
  -23.3129  -14.3695  -20.8749 C   0  0  2  0  0  0  0  0  0  0  0  0
  -24.3441  -13.8182  -20.0691 O   0  0  0  0  0  0  0  0  0  0  0  0
  -24.4225  -10.5160  -17.3740 C   0  0  2  0  0  0  0  0  0  0  0  0
  -24.1801   -9.7356  -16.2037 N   0  0  0  0  0  0  0  0  0  0  0  0
  -21.0435   -9.6196  -19.0174 C   0  0  2  0  0  0  0  0  0  0  0  0
  -24.0120  -15.0205  -22.1398 C   0  0  2  0  0  0  0  0  0  0  0  0
  -24.7670  -13.9861  -22.8621 N   0  0  0  0  0  0  0  0  0  0  0  0
  -25.1772  -11.8478  -16.9421 C   0  0  0  0  0  0  0  0  0  0  0  0
  -20.0768   -9.9740  -17.8392 C   0  0  2  0  0  0  0  0  0  0  0  0
  -20.4581  -11.2279  -17.3243 O   0  0  0  0  0  0  0  0  0  0  0  0
  -24.9630  -16.1953  -21.6793 C   0  0  0  0  0  0  0  0  0  0  0  0
  -25.4548  -12.7181  -18.2497 C   0  0  2  0  0  0  0  0  0  0  0  0
  -26.1619  -13.9605  -17.8706 N   0  0  0  0  0  0  0  0  0  0  0  0
  -20.1646   -8.8440  -16.7308 C   0  0  1  0  0  0  0  0  0  0  0  0
  -19.2421   -9.1699  -15.5849 N   0  0  0  0  0  0  0  0  0  0  0  0
  -24.3330  -17.0613  -20.5107 C   0  0  0  0  0  0  0  0  0  0  0  0
  -24.0713  -13.0759  -18.9330 C   0  0  2  0  0  0  0  0  0  0  0  0
  -19.7154   -7.4226  -17.3829 C   0  0  1  0  0  0  0  0  0  0  0  0
  -18.3868   -7.4268  -17.8646 O   0  0  0  0  0  0  0  0  0  0  0  0
  -23.2318  -16.6421  -19.8471 C   0  0  2  0  0  0  0  0  0  0  0  0
  -22.5722  -15.4092  -20.1536 O   0  0  0  0  0  0  0  0  0  0  0  0
  -23.3249  -11.7394  -19.3385 C   0  0  2  0  0  0  0  0  0  0  0  0
  -22.0664  -12.0710  -19.9484 O   0  0  0  0  0  0  0  0  0  0  0  0
  -20.6737   -7.0964  -18.5764 C   0  0  0  0  0  0  0  0  0  0  0  0
  -20.6878   -8.2531  -19.5740 O   0  0  0  0  0  0  0  0  0  0  0  0
  -22.5956  -17.4508  -18.7174 C   0  0  0  0  0  0  0  0  0  0  0  0
  -22.6491  -16.6595  -17.5203 O   0  0  0  0  0  0  0  0  0  0  0  0
  -23.0481  -10.8732  -18.0461 C   0  0  1  0  0  0  0  0  0  0  0  0
  -22.3928   -9.6836  -18.4509 O   0  0  0  0  0  0  0  0  0  0  0  0
  -19.7705   -6.2230  -16.4128 C   0  0  0  0  0  0  0  0  0  0  0  0
  -19.8853   -9.5795  -14.3199 C   0  0  0  0  0  0  0  0  0  0  0  0
  1  2  1  1  0  0  0
  1  6  1  0  0  0  0
  1 21  1  0  0  0  0
  3  4  1  1  0  0  0
  3  8  1  0  0  0  0
  3 28  1  0  0  0  0
  5  9  1  0  0  0  0
  5 25  1  0  0  0  0
  5 29  1  1  0  0  0
  6  7  1  1  0  0  0
  6 11  1  0  0  0  0
  8 12  1  0  0  0  0
  9 10  1  1  0  0  0
  9 14  1  0  0  0  0
 11 16  1  0  0  0  0
 12 13  1  1  0  0  0
 12 17  1  0  0  0  0
 14 15  1  1  0  0  0
 14 18  1  0  0  0  0
 15 31  1  0  0  0  0
 16 20  1  0  0  0  0
 17  2  1  6  0  0  0
 17 22  1  0  0  0  0
 18 19  1  6  0  0  0
 18 24  1  0  0  0  0
 18 30  1  0  0  0  0
 20 21  1  0  0  0  0
 20 26  1  6  0  0  0
 22 23  1  1  0  0  0
 22 28  1  0  0  0  0
 24 25  1  0  0  0  0
 26 27  1  0  0  0  0
 28 29  1  6  0  0  0
M  END
>  <CHROM.1>
-174.70901521,-69.76226605,-108.89662430,-176.19624982,-118.56030191,174.92707026
-22.45066015,-11.85434694,-18.58388121,-2.91805780,1.09836591,1.71648228

>  <Name>
ligand

>  <RI>
0

>  <Rbt.Current_Directory>
/home/itssahil/PROJECTS/Mol_Feturizer/New_Systems/rnas/4GPW

>  <Rbt.Executable>
rbdock ($Id: //depot/dev/client3/rdock/2013.1/src/exe/rbdock.cxx#4 $)

>  <Rbt.Library>
libRbt.so (2013.1, Build901 2013/11/27)

>  <Rbt.Parameter_File>
/export/apps/rDock/src/rDock_2013.1_src/data/scripts/dock_solv.prm

>  <Rbt.Receptor>
prm/pocket_docking_7.prm

>  <SCORE>
-7.5399

>  <SCORE.INTER>
-0.0905339

>  <SCORE.INTER.CONST>
1

>  <SCORE.INTER.POLAR>
0

>  <SCORE.INTER.ROT>
6

>  <SCORE.INTER.SOLV>
13.803

>  <SCORE.INTER.VDW>
-12.2613

>  <SCORE.INTER.norm>
-0.00292045

>  <SCORE.INTRA>
-7.44937

>  <SCORE.INTRA.DIHEDRAL>
-15.659

>  <SCORE.INTRA.DIHEDRAL.0>
19.2558

>  <SCORE.INTRA.POLAR>
0

>  <SCORE.INTRA.POLAR.0>
0

>  <SCORE.INTRA.REPUL>
0

>  <SCORE.INTRA.REPUL.0>
0

>  <SCORE.INTRA.SOLV>
-2.67479

>  <SCORE.INTRA.SOLV.lig_0>
-64.5929

>  <SCORE.INTRA.VDW>
1.71751

>  <SCORE.INTRA.VDW.0>
-4.40538

>  <SCORE.INTRA.norm>
-0.240302

>  <SCORE.RESTR>
0

>  <SCORE.RESTR.CAVITY>
0

>  <SCORE.RESTR.norm>
0

>  <SCORE.SYSTEM>
0

>  <SCORE.SYSTEM.CONST>
0

>  <SCORE.SYSTEM.DIHEDRAL>
0

>  <SCORE.SYSTEM.SOLV>
0

>  <SCORE.SYSTEM.norm>
0

>  <SCORE.heavy>
31

>  <SCORE.norm>
-0.243223

>  <RMSD>
7.475

$$$$
ligand
 OpenBabel11021811493D
libRbt.so/2013.1/901 2013/11/27
 31 33  0  0  0  0  0  0  0  0999 V2000
  -25.1230  -12.8555  -16.5554 C   0  0  2  0  0  0  0  0  0  0  0  0
  -24.1453  -13.5723  -17.2949 O   0  0  0  0  0  0  0  0  0  0  0  0
  -23.8121  -17.2234  -15.1194 C   0  0  2  0  0  0  0  0  0  0  0  0
  -23.5680  -18.6029  -14.8463 N   0  0  0  0  0  0  0  0  0  0  0  0
  -21.6474  -17.3336  -13.3446 C   0  0  2  0  0  0  0  0  0  0  0  0
  -25.1968  -11.3989  -17.1763 C   0  0  2  0  0  0  0  0  0  0  0  0
  -25.5591  -11.4960  -18.5979 N   0  0  0  0  0  0  0  0  0  0  0  0
  -24.9360  -17.1245  -16.2406 C   0  0  0  0  0  0  0  0  0  0  0  0
  -20.8268  -16.5014  -12.3043 C   0  0  2  0  0  0  0  0  0  0  0  0
  -21.3095  -15.1788  -12.3255 O   0  0  0  0  0  0  0  0  0  0  0  0
  -23.8064  -10.6702  -16.9965 C   0  0  0  0  0  0  0  0  0  0  0  0
  -25.2148  -15.5832  -16.5420 C   0  0  2  0  0  0  0  0  0  0  0  0
  -26.2623  -15.4684  -17.5797 N   0  0  0  0  0  0  0  0  0  0  0  0
  -19.2883  -16.5604  -12.6820 C   0  0  1  0  0  0  0  0  0  0  0  0
  -18.4810  -15.7608  -11.6923 N   0  0  0  0  0  0  0  0  0  0  0  0
  -23.1460  -10.9657  -15.5862 C   0  0  0  0  0  0  0  0  0  0  0  0
  -23.8763  -14.9088  -17.0547 C   0  0  2  0  0  0  0  0  0  0  0  0
  -18.7893  -18.1086  -12.6424 C   0  0  1  0  0  0  0  0  0  0  0  0
  -18.9253  -18.7043  -11.3681 O   0  0  0  0  0  0  0  0  0  0  0  0
  -23.6279  -11.9387  -14.7801 C   0  0  2  0  0  0  0  0  0  0  0  0
  -24.7497  -12.7510  -15.1413 O   0  0  0  0  0  0  0  0  0  0  0  0
  -22.7634  -15.0335  -15.9350 C   0  0  2  0  0  0  0  0  0  0  0  0
  -21.5493  -14.4289  -16.4104 O   0  0  0  0  0  0  0  0  0  0  0  0
  -19.6381  -18.9324  -13.6671 C   0  0  0  0  0  0  0  0  0  0  0  0
  -21.1282  -18.7593  -13.3790 O   0  0  0  0  0  0  0  0  0  0  0  0
  -23.0188  -12.2503  -13.4138 C   0  0  0  0  0  0  0  0  0  0  0  0
  -23.9024  -11.7350  -12.4059 O   0  0  0  0  0  0  0  0  0  0  0  0
  -22.4840  -16.5591  -15.6322 C   0  0  1  0  0  0  0  0  0  0  0  0
  -21.4952  -16.6283  -14.6193 O   0  0  0  0  0  0  0  0  0  0  0  0
  -17.3042  -18.3162  -13.0091 C   0  0  0  0  0  0  0  0  0  0  0  0
  -18.4959  -14.2940  -11.8653 C   0  0  0  0  0  0  0  0  0  0  0  0
  1  2  1  6  0  0  0
  1  6  1  0  0  0  0
  1 21  1  0  0  0  0
  3  4  1  6  0  0  0
  3  8  1  0  0  0  0
  3 28  1  0  0  0  0
  5  9  1  0  0  0  0
  5 25  1  0  0  0  0
  5 29  1  6  0  0  0
  6  7  1  6  0  0  0
  6 11  1  0  0  0  0
  8 12  1  0  0  0  0
  9 10  1  6  0  0  0
  9 14  1  0  0  0  0
 11 16  1  0  0  0  0
 12 13  1  6  0  0  0
 12 17  1  0  0  0  0
 14 15  1  1  0  0  0
 14 18  1  0  0  0  0
 15 31  1  0  0  0  0
 16 20  1  0  0  0  0
 17  2  1  1  0  0  0
 17 22  1  0  0  0  0
 18 19  1  1  0  0  0
 18 24  1  0  0  0  0
 18 30  1  0  0  0  0
 20 21  1  0  0  0  0
 20 26  1  1  0  0  0
 22 23  1  6  0  0  0
 22 28  1  0  0  0  0
 24 25  1  0  0  0  0
 26 27  1  0  0  0  0
 28 29  1  1  0  0  0
M  END
>  <CHROM.1>
-176.70190343,-146.91537127,-78.22750775,30.46056830,105.42328197,5.80520416
-22.35915696,-15.14575092,-14.68173353,2.58447453,-0.71989954,0.13488138

>  <Name>
ligand

>  <RI>
0

>  <Rbt.Current_Directory>
/home/itssahil/PROJECTS/Mol_Feturizer/New_Systems/rnas/4GPW

>  <Rbt.Executable>
rbdock ($Id: //depot/dev/client3/rdock/2013.1/src/exe/rbdock.cxx#4 $)

>  <Rbt.Library>
libRbt.so (2013.1, Build901 2013/11/27)

>  <Rbt.Parameter_File>
/export/apps/rDock/src/rDock_2013.1_src/data/scripts/dock_solv.prm

>  <Rbt.Receptor>
prm/pocket_docking_2.prm

>  <SCORE>
3.12255

>  <SCORE.INTER>
-0.725303

>  <SCORE.INTER.CONST>
1

>  <SCORE.INTER.POLAR>
0

>  <SCORE.INTER.ROT>
6

>  <SCORE.INTER.SOLV>
20.8936

>  <SCORE.INTER.VDW>
-15.0481

>  <SCORE.INTER.norm>
-0.0233969

>  <SCORE.INTRA>
2.33637

>  <SCORE.INTRA.DIHEDRAL>
-2.27982

>  <SCORE.INTRA.DIHEDRAL.0>
19.2558

>  <SCORE.INTRA.POLAR>
0

>  <SCORE.INTRA.POLAR.0>
0

>  <SCORE.INTRA.REPUL>
0

>  <SCORE.INTRA.REPUL.0>
0

>  <SCORE.INTRA.SOLV>
-0.0570636

>  <SCORE.INTRA.SOLV.lig_0>
-64.5929

>  <SCORE.INTRA.VDW>
3.50481

>  <SCORE.INTRA.VDW.0>
-4.40538

>  <SCORE.INTRA.norm>
0.0753668

>  <SCORE.RESTR>
1.51148

>  <SCORE.RESTR.CAVITY>
1.51148

>  <SCORE.RESTR.norm>
0.0487576

>  <SCORE.SYSTEM>
0

>  <SCORE.SYSTEM.CONST>
0

>  <SCORE.SYSTEM.DIHEDRAL>
0

>  <SCORE.SYSTEM.SOLV>
0

>  <SCORE.SYSTEM.norm>
0

>  <SCORE.heavy>
31

>  <SCORE.norm>
0.100727

>  <RMSD>
7.485

$$$$
ligand
 OpenBabel11021811493D
libRbt.so/2013.1/901 2013/11/27
 31 33  0  0  0  0  0  0  0  0999 V2000
  -24.2256  -11.9479  -15.7929 C   0  0  2  0  0  0  0  0  0  0  0  0
  -22.8190  -12.1405  -15.7615 O   0  0  0  0  0  0  0  0  0  0  0  0
  -20.3042  -15.5761  -15.5449 C   0  0  2  0  0  0  0  0  0  0  0  0
  -19.6767  -16.7465  -15.0216 N   0  0  0  0  0  0  0  0  0  0  0  0
  -22.2120  -18.2948  -16.1191 C   0  0  2  0  0  0  0  0  0  0  0  0
  -24.4957  -10.6500  -16.6617 C   0  0  2  0  0  0  0  0  0  0  0  0
  -23.9476  -10.8478  -18.0116 N   0  0  0  0  0  0  0  0  0  0  0  0
  -19.9868  -14.3584  -14.5721 C   0  0  0  0  0  0  0  0  0  0  0  0
  -22.6978  -19.0521  -17.3993 C   0  0  2  0  0  0  0  0  0  0  0  0
  -21.8016  -18.7599  -18.4453 O   0  0  0  0  0  0  0  0  0  0  0  0
  -23.8387   -9.3936  -15.9642 C   0  0  0  0  0  0  0  0  0  0  0  0
  -20.6818  -13.0482  -15.1592 C   0  0  2  0  0  0  0  0  0  0  0  0
  -20.3943  -11.9010  -14.2712 N   0  0  0  0  0  0  0  0  0  0  0  0
  -24.1714  -18.5883  -17.7553 C   0  0  1  0  0  0  0  0  0  0  0  0
  -24.6559  -19.3050  -18.9891 N   0  0  0  0  0  0  0  0  0  0  0  0
  -24.0090   -9.4181  -14.3885 C   0  0  0  0  0  0  0  0  0  0  0  0
  -22.2459  -13.2865  -15.2376 C   0  0  2  0  0  0  0  0  0  0  0  0
  -25.1580  -18.9494  -16.5129 C   0  0  1  0  0  0  0  0  0  0  0  0
  -25.2164  -20.3335  -16.2332 O   0  0  0  0  0  0  0  0  0  0  0  0
  -24.4384  -10.5303  -13.7502 C   0  0  2  0  0  0  0  0  0  0  0  0
  -24.7642  -11.7384  -14.4453 O   0  0  0  0  0  0  0  0  0  0  0  0
  -22.5426  -14.5135  -16.1937 C   0  0  2  0  0  0  0  0  0  0  0  0
  -23.9623  -14.7305  -16.2522 O   0  0  0  0  0  0  0  0  0  0  0  0
  -24.6428  -18.2074  -15.2350 C   0  0  0  0  0  0  0  0  0  0  0  0
  -23.1776  -18.5543  -14.9773 O   0  0  0  0  0  0  0  0  0  0  0  0
  -24.6166  -10.5902  -12.2338 C   0  0  0  0  0  0  0  0  0  0  0  0
  -23.5812  -11.4286  -11.6979 O   0  0  0  0  0  0  0  0  0  0  0  0
  -21.8555  -15.8142  -15.6165 C   0  0  1  0  0  0  0  0  0  0  0  0
  -22.1324  -16.8838  -16.5041 O   0  0  0  0  0  0  0  0  0  0  0  0
  -26.6307  -18.5347  -16.7185 C   0  0  0  0  0  0  0  0  0  0  0  0
  -25.4373  -18.5015  -19.9511 C   0  0  0  0  0  0  0  0  0  0  0  0
  1  2  1  1  0  0  0
  1  6  1  0  0  0  0
  1 21  1  0  0  0  0
  3  4  1  1  0  0  0
  3  8  1  0  0  0  0
  3 28  1  0  0  0  0
  5  9  1  0  0  0  0
  5 25  1  0  0  0  0
  5 29  1  6  0  0  0
  6  7  1  6  0  0  0
  6 11  1  0  0  0  0
  8 12  1  0  0  0  0
  9 10  1  6  0  0  0
  9 14  1  0  0  0  0
 11 16  1  0  0  0  0
 12 13  1  1  0  0  0
 12 17  1  0  0  0  0
 14 15  1  6  0  0  0
 14 18  1  0  0  0  0
 15 31  1  0  0  0  0
 16 20  1  0  0  0  0
 17  2  1  6  0  0  0
 17 22  1  0  0  0  0
 18 19  1  1  0  0  0
 18 24  1  0  0  0  0
 18 30  1  0  0  0  0
 20 21  1  0  0  0  0
 20 26  1  6  0  0  0
 22 23  1  1  0  0  0
 22 28  1  0  0  0  0
 24 25  1  0  0  0  0
 26 27  1  0  0  0  0
 28 29  1  6  0  0  0
M  END
>  <CHROM.1>
-171.14373713,173.66235085,-139.99517612,-171.06573021,-109.00520124,89.64453715
-23.26051430,-14.95126432,-15.84719225,1.50999468,-0.36145091,0.30582078

>  <Name>
ligand

>  <RI>
0

>  <Rbt.Current_Directory>
/home/itssahil/PROJECTS/Mol_Feturizer/New_Systems/rnas/4GPW

>  <Rbt.Executable>
rbdock ($Id: //depot/dev/client3/rdock/2013.1/src/exe/rbdock.cxx#4 $)

>  <Rbt.Library>
libRbt.so (2013.1, Build901 2013/11/27)

>  <Rbt.Parameter_File>
/export/apps/rDock/src/rDock_2013.1_src/data/scripts/dock_solv.prm

>  <Rbt.Receptor>
prm/pocket_docking_5.prm

>  <SCORE>
-8.72712

>  <SCORE.INTER>
-2.14865

>  <SCORE.INTER.CONST>
1

>  <SCORE.INTER.POLAR>
0

>  <SCORE.INTER.ROT>
6

>  <SCORE.INTER.SOLV>
7.5566

>  <SCORE.INTER.VDW>
-11.5513

>  <SCORE.INTER.norm>
-0.0693113

>  <SCORE.INTRA>
-6.57847

>  <SCORE.INTRA.DIHEDRAL>
-12.0173

>  <SCORE.INTRA.DIHEDRAL.0>
19.2558

>  <SCORE.INTRA.POLAR>
0

>  <SCORE.INTRA.POLAR.0>
0

>  <SCORE.INTRA.REPUL>
0

>  <SCORE.INTRA.REPUL.0>
0

>  <SCORE.INTRA.SOLV>
-2.59794

>  <SCORE.INTRA.SOLV.lig_0>
-64.5929

>  <SCORE.INTRA.VDW>
0.729129

>  <SCORE.INTRA.VDW.0>
-4.40538

>  <SCORE.INTRA.norm>
-0.212209

>  <SCORE.RESTR>
0

>  <SCORE.RESTR.CAVITY>
0

>  <SCORE.RESTR.norm>
0

>  <SCORE.SYSTEM>
0

>  <SCORE.SYSTEM.CONST>
0

>  <SCORE.SYSTEM.DIHEDRAL>
0

>  <SCORE.SYSTEM.SOLV>
0

>  <SCORE.SYSTEM.norm>
0

>  <SCORE.heavy>
31

>  <SCORE.norm>
-0.28152

>  <RMSD>
7.502

$$$$
ligand
 OpenBabel11021811493D
libRbt.so/2013.1/901 2013/11/27
 31 33  0  0  0  0  0  0  0  0999 V2000
  -24.3462  -11.9310  -14.6053 C   0  0  2  0  0  0  0  0  0  0  0  0
  -23.0476  -12.5048  -14.6373 O   0  0  0  0  0  0  0  0  0  0  0  0
  -21.3435  -16.4122  -14.6944 C   0  0  2  0  0  0  0  0  0  0  0  0
  -21.0611  -17.7566  -14.3070 N   0  0  0  0  0  0  0  0  0  0  0  0
  -22.9544  -18.5651  -16.1655 C   0  0  2  0  0  0  0  0  0  0  0  0
  -24.3204  -10.6735  -15.5698 C   0  0  2  0  0  0  0  0  0  0  0  0
  -23.9564  -11.1101  -16.9257 N   0  0  0  0  0  0  0  0  0  0  0  0
  -20.9612  -15.4506  -13.4864 C   0  0  0  0  0  0  0  0  0  0  0  0
  -23.3940  -19.0130  -17.5988 C   0  0  2  0  0  0  0  0  0  0  0  0
  -22.6809  -18.2400  -18.5351 O   0  0  0  0  0  0  0  0  0  0  0  0
  -23.2923   -9.6039  -15.0261 C   0  0  0  0  0  0  0  0  0  0  0  0
  -21.2699  -13.9470  -13.9203 C   0  0  2  0  0  0  0  0  0  0  0  0
  -20.9159  -13.0344  -12.8116 N   0  0  0  0  0  0  0  0  0  0  0  0
  -24.9585  -18.8101  -17.7548 C   0  0  1  0  0  0  0  0  0  0  0  0
  -25.4007  -19.2332  -19.1317 N   0  0  0  0  0  0  0  0  0  0  0  0
  -23.3367   -9.4695  -13.4474 C   0  0  0  0  0  0  0  0  0  0  0  0
  -22.8129  -13.8137  -14.2524 C   0  0  2  0  0  0  0  0  0  0  0  0
  -25.7267  -19.7238  -16.6493 C   0  0  1  0  0  0  0  0  0  0  0  0
  -25.4724  -21.1062  -16.7965 O   0  0  0  0  0  0  0  0  0  0  0  0
  -24.0009  -10.3706  -12.6887 C   0  0  2  0  0  0  0  0  0  0  0  0
  -24.6981  -11.4860  -13.2533 O   0  0  0  0  0  0  0  0  0  0  0  0
  -23.1800  -14.7912  -15.4429 C   0  0  2  0  0  0  0  0  0  0  0  0
  -24.5829  -14.6727  -15.7322 O   0  0  0  0  0  0  0  0  0  0  0  0
  -25.2556  -19.2829  -15.2235 C   0  0  0  0  0  0  0  0  0  0  0  0
  -23.7327  -19.3507  -15.1259 O   0  0  0  0  0  0  0  0  0  0  0  0
  -24.0673  -10.2721  -11.1653 C   0  0  0  0  0  0  0  0  0  0  0  0
  -25.3601   -9.7580  -10.8096 O   0  0  0  0  0  0  0  0  0  0  0  0
  -22.8754  -16.2825  -15.0181 C   0  0  1  0  0  0  0  0  0  0  0  0
  -23.2037  -17.1227  -16.1111 O   0  0  0  0  0  0  0  0  0  0  0  0
  -27.2660  -19.6095  -16.6765 C   0  0  0  0  0  0  0  0  0  0  0  0
  -25.5988  -18.1525  -20.1189 C   0  0  0  0  0  0  0  0  0  0  0  0
  1  2  1  1  0  0  0
  1  6  1  0  0  0  0
  1 21  1  0  0  0  0
  3  4  1  1  0  0  0
  3  8  1  0  0  0  0
  3 28  1  0  0  0  0
  5  9  1  0  0  0  0
  5 25  1  0  0  0  0
  5 29  1  6  0  0  0
  6  7  1  6  0  0  0
  6 11  1  0  0  0  0
  8 12  1  0  0  0  0
  9 10  1  6  0  0  0
  9 14  1  0  0  0  0
 11 16  1  0  0  0  0
 12 13  1  1  0  0  0
 12 17  1  0  0  0  0
 14 15  1  6  0  0  0
 14 18  1  0  0  0  0
 15 31  1  0  0  0  0
 16 20  1  0  0  0  0
 17  2  1  6  0  0  0
 17 22  1  0  0  0  0
 18 19  1  6  0  0  0
 18 24  1  0  0  0  0
 18 30  1  0  0  0  0
 20 21  1  0  0  0  0
 20 26  1  6  0  0  0
 22 23  1  1  0  0  0
 22 28  1  0  0  0  0
 24 25  1  0  0  0  0
 26 27  1  0  0  0  0
 28 29  1  6  0  0  0
M  END
>  <CHROM.1>
-159.98455733,-176.06762400,-99.50794850,-160.06338296,102.70475959,55.97025048
-23.74160552,-15.22508875,-15.28325504,1.43314817,-0.71079000,0.34667782

>  <Name>
ligand

>  <RI>
0

>  <Rbt.Current_Directory>
/home/itssahil/PROJECTS/Mol_Feturizer/New_Systems/rnas/4GPW

>  <Rbt.Executable>
rbdock ($Id: //depot/dev/client3/rdock/2013.1/src/exe/rbdock.cxx#4 $)

>  <Rbt.Library>
libRbt.so (2013.1, Build901 2013/11/27)

>  <Rbt.Parameter_File>
/export/apps/rDock/src/rDock_2013.1_src/data/scripts/dock_solv.prm

>  <Rbt.Receptor>
prm/pocket_docking_7.prm

>  <SCORE>
-9.26653

>  <SCORE.INTER>
-3.58421

>  <SCORE.INTER.CONST>
1

>  <SCORE.INTER.POLAR>
0

>  <SCORE.INTER.ROT>
6

>  <SCORE.INTER.SOLV>
9.82465

>  <SCORE.INTER.VDW>
-13.2644

>  <SCORE.INTER.norm>
-0.11562

>  <SCORE.INTRA>
-5.68232

>  <SCORE.INTRA.DIHEDRAL>
-12.5588

>  <SCORE.INTRA.DIHEDRAL.0>
19.2558

>  <SCORE.INTRA.POLAR>
0

>  <SCORE.INTRA.POLAR.0>
0

>  <SCORE.INTRA.REPUL>
0

>  <SCORE.INTRA.REPUL.0>
0

>  <SCORE.INTRA.SOLV>
-1.17367

>  <SCORE.INTRA.SOLV.lig_0>
-64.5929

>  <SCORE.INTRA.VDW>
1.18393

>  <SCORE.INTRA.VDW.0>
-4.40538

>  <SCORE.INTRA.norm>
-0.183301

>  <SCORE.RESTR>
0

>  <SCORE.RESTR.CAVITY>
0

>  <SCORE.RESTR.norm>
0

>  <SCORE.SYSTEM>
0

>  <SCORE.SYSTEM.CONST>
0

>  <SCORE.SYSTEM.DIHEDRAL>
0

>  <SCORE.SYSTEM.SOLV>
0

>  <SCORE.SYSTEM.norm>
0

>  <SCORE.heavy>
31

>  <SCORE.norm>
-0.29892

>  <RMSD>
7.503

$$$$
ligand
 OpenBabel11021811493D
libRbt.so/2013.1/901 2013/11/27
 31 33  0  0  0  0  0  0  0  0999 V2000
  -15.3728  -15.8293  -17.8780 C   0  0  2  0  0  0  0  0  0  0  0  0
  -14.6893  -16.0601  -16.6549 O   0  0  0  0  0  0  0  0  0  0  0  0
  -17.9515  -16.0588  -13.9102 C   0  0  2  0  0  0  0  0  0  0  0  0
  -18.6769  -16.2165  -12.6911 N   0  0  0  0  0  0  0  0  0  0  0  0
  -17.1010  -12.9314  -12.2021 C   0  0  2  0  0  0  0  0  0  0  0  0
  -14.3145  -16.0199  -19.0426 C   0  0  2  0  0  0  0  0  0  0  0  0
  -13.7651  -17.3823  -18.9798 N   0  0  0  0  0  0  0  0  0  0  0  0
  -17.2995  -17.4587  -14.2913 C   0  0  0  0  0  0  0  0  0  0  0  0
  -18.1142  -11.7391  -12.2215 C   0  0  2  0  0  0  0  0  0  0  0  0
  -19.4161  -12.2739  -12.2631 O   0  0  0  0  0  0  0  0  0  0  0  0
  -13.1677  -14.9419  -18.9044 C   0  0  0  0  0  0  0  0  0  0  0  0
  -16.4940  -17.2858  -15.6572 C   0  0  2  0  0  0  0  0  0  0  0  0
  -15.8832  -18.5792  -16.0332 N   0  0  0  0  0  0  0  0  0  0  0  0
  -17.8248  -10.8256  -13.4844 C   0  0  1  0  0  0  0  0  0  0  0  0
  -18.7940   -9.6724  -13.5223 N   0  0  0  0  0  0  0  0  0  0  0  0
  -13.7222  -13.5196  -18.4778 C   0  0  0  0  0  0  0  0  0  0  0  0
  -15.3612  -16.1976  -15.4524 C   0  0  2  0  0  0  0  0  0  0  0  0
  -16.3104  -10.2396  -13.3819 C   0  0  1  0  0  0  0  0  0  0  0  0
  -16.1000   -9.4396  -12.2360 O   0  0  0  0  0  0  0  0  0  0  0  0
  -14.9932  -13.3683  -18.0414 C   0  0  2  0  0  0  0  0  0  0  0  0
  -15.9071  -14.4653  -17.9400 O   0  0  0  0  0  0  0  0  0  0  0  0
  -16.0259  -14.8164  -15.0545 C   0  0  2  0  0  0  0  0  0  0  0  0
  -14.9924  -13.8367  -14.8604 O   0  0  0  0  0  0  0  0  0  0  0  0
  -15.3119  -11.4437  -13.3352 C   0  0  0  0  0  0  0  0  0  0  0  0
  -15.6819  -12.3931  -12.1971 O   0  0  0  0  0  0  0  0  0  0  0  0
  -15.5627  -12.0132  -17.6240 C   0  0  0  0  0  0  0  0  0  0  0  0
  -16.3315  -12.2046  -16.4262 O   0  0  0  0  0  0  0  0  0  0  0  0
  -16.8259  -14.9827  -13.7019 C   0  0  1  0  0  0  0  0  0  0  0  0
  -17.4149  -13.7326  -13.3875 O   0  0  0  0  0  0  0  0  0  0  0  0
  -15.8862   -9.3409  -14.5632 C   0  0  0  0  0  0  0  0  0  0  0  0
  -20.0088   -9.8622  -14.3409 C   0  0  0  0  0  0  0  0  0  0  0  0
  1  2  1  1  0  0  0
  1  6  1  0  0  0  0
  1 21  1  0  0  0  0
  3  4  1  1  0  0  0
  3  8  1  0  0  0  0
  3 28  1  0  0  0  0
  5  9  1  0  0  0  0
  5 25  1  0  0  0  0
  5 29  1  6  0  0  0
  6  7  1  1  0  0  0
  6 11  1  0  0  0  0
  8 12  1  0  0  0  0
  9 10  1  6  0  0  0
  9 14  1  0  0  0  0
 11 16  1  0  0  0  0
 12 13  1  1  0  0  0
 12 17  1  0  0  0  0
 14 15  1  1  0  0  0
 14 18  1  0  0  0  0
 15 31  1  0  0  0  0
 16 20  1  0  0  0  0
 17  2  1  6  0  0  0
 17 22  1  0  0  0  0
 18 19  1  1  0  0  0
 18 24  1  0  0  0  0
 18 30  1  0  0  0  0
 20 21  1  0  0  0  0
 20 26  1  6  0  0  0
 22 23  1  1  0  0  0
 22 28  1  0  0  0  0
 24 25  1  0  0  0  0
 26 27  1  0  0  0  0
 28 29  1  6  0  0  0
M  END
>  <CHROM.1>
-168.86618081,-173.75044855,-94.40055196,51.32265598,-137.49815072,125.02298425
-16.30557101,-13.66573019,-15.10286780,-0.85415265,0.96865891,0.09026676

>  <Name>
ligand

>  <RI>
0

>  <Rbt.Current_Directory>
/home/itssahil/PROJECTS/Mol_Feturizer/New_Systems/rnas/4GPW

>  <Rbt.Executable>
rbdock ($Id: //depot/dev/client3/rdock/2013.1/src/exe/rbdock.cxx#4 $)

>  <Rbt.Library>
libRbt.so (2013.1, Build901 2013/11/27)

>  <Rbt.Parameter_File>
/export/apps/rDock/src/rDock_2013.1_src/data/scripts/dock_solv.prm

>  <Rbt.Receptor>
prm/pocket_docking_8.prm

>  <SCORE>
-9.13684

>  <SCORE.INTER>
-5.08415

>  <SCORE.INTER.CONST>
1

>  <SCORE.INTER.POLAR>
0

>  <SCORE.INTER.ROT>
6

>  <SCORE.INTER.SOLV>
12.7552

>  <SCORE.INTER.VDW>
-15.2412

>  <SCORE.INTER.norm>
-0.164005

>  <SCORE.INTRA>
-4.0527

>  <SCORE.INTRA.DIHEDRAL>
-8.23712

>  <SCORE.INTRA.DIHEDRAL.0>
19.2558

>  <SCORE.INTRA.POLAR>
0

>  <SCORE.INTRA.POLAR.0>
0

>  <SCORE.INTRA.REPUL>
0

>  <SCORE.INTRA.REPUL.0>
0

>  <SCORE.INTRA.SOLV>
0.07454

>  <SCORE.INTRA.SOLV.lig_0>
-64.5929

>  <SCORE.INTRA.VDW>
0.0285916

>  <SCORE.INTRA.VDW.0>
-4.40538

>  <SCORE.INTRA.norm>
-0.130732

>  <SCORE.RESTR>
0

>  <SCORE.RESTR.CAVITY>
0

>  <SCORE.RESTR.norm>
0

>  <SCORE.SYSTEM>
0

>  <SCORE.SYSTEM.CONST>
0

>  <SCORE.SYSTEM.DIHEDRAL>
0

>  <SCORE.SYSTEM.SOLV>
0

>  <SCORE.SYSTEM.norm>
0

>  <SCORE.heavy>
31

>  <SCORE.norm>
-0.294737

>  <RMSD>
7.517

$$$$
ligand
 OpenBabel11021811493D
libRbt.so/2013.1/901 2013/11/27
 31 33  0  0  0  0  0  0  0  0999 V2000
  -24.0108  -15.5088  -16.2787 C   0  0  2  0  0  0  0  0  0  0  0  0
  -24.3202  -15.3990  -14.8971 O   0  0  0  0  0  0  0  0  0  0  0  0
  -21.0570  -13.0141  -13.5412 C   0  0  2  0  0  0  0  0  0  0  0  0
  -20.1982  -12.2988  -12.6535 N   0  0  0  0  0  0  0  0  0  0  0  0
  -18.8365  -15.3168  -12.1637 C   0  0  2  0  0  0  0  0  0  0  0  0
  -25.2994  -16.0886  -16.9968 C   0  0  2  0  0  0  0  0  0  0  0  0
  -26.4321  -15.1797  -16.7677 N   0  0  0  0  0  0  0  0  0  0  0  0
  -22.5231  -12.4098  -13.4171 C   0  0  0  0  0  0  0  0  0  0  0  0
  -17.6066  -16.0449  -12.8006 C   0  0  2  0  0  0  0  0  0  0  0  0
  -17.1078  -15.2327  -13.8371 O   0  0  0  0  0  0  0  0  0  0  0  0
  -25.6149  -17.5344  -16.4430 C   0  0  0  0  0  0  0  0  0  0  0  0
  -23.4829  -13.2037  -14.4136 C   0  0  2  0  0  0  0  0  0  0  0  0
  -24.8522  -12.6532  -14.3179 N   0  0  0  0  0  0  0  0  0  0  0  0
  -18.0610  -17.4624  -13.3459 C   0  0  1  0  0  0  0  0  0  0  0  0
  -16.8895  -18.1781  -13.9670 N   0  0  0  0  0  0  0  0  0  0  0  0
  -24.3033  -18.3948  -16.2152 C   0  0  0  0  0  0  0  0  0  0  0  0
  -23.4913  -14.7351  -14.0090 C   0  0  2  0  0  0  0  0  0  0  0  0
  -18.6278  -18.3526  -12.1075 C   0  0  1  0  0  0  0  0  0  0  0  0
  -17.6618  -18.5864  -11.1028 O   0  0  0  0  0  0  0  0  0  0  0  0
  -23.0783  -17.8234  -16.2539 C   0  0  2  0  0  0  0  0  0  0  0  0
  -22.8891  -16.4263  -16.5016 O   0  0  0  0  0  0  0  0  0  0  0  0
  -22.0219  -15.3153  -14.1191 C   0  0  2  0  0  0  0  0  0  0  0  0
  -22.0351  -16.7019  -13.7411 O   0  0  0  0  0  0  0  0  0  0  0  0
  -19.8386  -17.5981  -11.4641 C   0  0  0  0  0  0  0  0  0  0  0  0
  -19.4273  -16.1820  -11.0655 O   0  0  0  0  0  0  0  0  0  0  0  0
  -21.7925  -18.6210  -16.0413 C   0  0  0  0  0  0  0  0  0  0  0  0
  -21.0470  -18.5969  -17.2684 O   0  0  0  0  0  0  0  0  0  0  0  0
  -21.0669  -14.5314  -13.1340 C   0  0  1  0  0  0  0  0  0  0  0  0
  -19.7629  -15.0694  -13.2709 O   0  0  0  0  0  0  0  0  0  0  0  0
  -19.1244  -19.7604  -12.5006 C   0  0  0  0  0  0  0  0  0  0  0  0
  -16.6227  -17.8888  -15.3906 C   0  0  0  0  0  0  0  0  0  0  0  0
  1  2  1  1  0  0  0
  1  6  1  0  0  0  0
  1 21  1  0  0  0  0
  3  4  1  1  0  0  0
  3  8  1  0  0  0  0
  3 28  1  0  0  0  0
  5  9  1  0  0  0  0
  5 25  1  0  0  0  0
  5 29  1  6  0  0  0
  6  7  1  1  0  0  0
  6 11  1  0  0  0  0
  8 12  1  0  0  0  0
  9 10  1  6  0  0  0
  9 14  1  0  0  0  0
 11 16  1  0  0  0  0
 12 13  1  1  0  0  0
 12 17  1  0  0  0  0
 14 15  1  1  0  0  0
 14 18  1  0  0  0  0
 15 31  1  0  0  0  0
 16 20  1  0  0  0  0
 17  2  1  6  0  0  0
 17 22  1  0  0  0  0
 18 19  1  1  0  0  0
 18 24  1  0  0  0  0
 18 30  1  0  0  0  0
 20 21  1  0  0  0  0
 20 26  1  6  0  0  0
 22 23  1  1  0  0  0
 22 28  1  0  0  0  0
 24 25  1  0  0  0  0
 26 27  1  0  0  0  0
 28 29  1  6  0  0  0
M  END
>  <CHROM.1>
-169.83421030,174.24303382,-86.71835066,65.43638808,114.74383118,102.16373172
-21.22143322,-16.16836106,-14.19229588,3.11470358,-0.49451756,0.45219345

>  <Name>
ligand

>  <RI>
0

>  <Rbt.Current_Directory>
/home/itssahil/PROJECTS/Mol_Feturizer/New_Systems/rnas/4GPW

>  <Rbt.Executable>
rbdock ($Id: //depot/dev/client3/rdock/2013.1/src/exe/rbdock.cxx#4 $)

>  <Rbt.Library>
libRbt.so (2013.1, Build901 2013/11/27)

>  <Rbt.Parameter_File>
/export/apps/rDock/src/rDock_2013.1_src/data/scripts/dock_solv.prm

>  <Rbt.Receptor>
prm/pocket_docking_4.prm

>  <SCORE>
-11.5737

>  <SCORE.INTER>
-6.47018

>  <SCORE.INTER.CONST>
1

>  <SCORE.INTER.POLAR>
0

>  <SCORE.INTER.ROT>
6

>  <SCORE.INTER.SOLV>
17.6205

>  <SCORE.INTER.VDW>
-17.787

>  <SCORE.INTER.norm>
-0.208715

>  <SCORE.INTRA>
-5.10354

>  <SCORE.INTRA.DIHEDRAL>
-10.4936

>  <SCORE.INTRA.DIHEDRAL.0>
19.2558

>  <SCORE.INTRA.POLAR>
0

>  <SCORE.INTRA.POLAR.0>
0

>  <SCORE.INTRA.REPUL>
0

>  <SCORE.INTRA.REPUL.0>
0

>  <SCORE.INTRA.SOLV>
-1.49051

>  <SCORE.INTRA.SOLV.lig_0>
-64.5929

>  <SCORE.INTRA.VDW>
0.888498

>  <SCORE.INTRA.VDW.0>
-4.40538

>  <SCORE.INTRA.norm>
-0.16463

>  <SCORE.RESTR>
0

>  <SCORE.RESTR.CAVITY>
0

>  <SCORE.RESTR.norm>
0

>  <SCORE.SYSTEM>
0

>  <SCORE.SYSTEM.CONST>
0

>  <SCORE.SYSTEM.DIHEDRAL>
0

>  <SCORE.SYSTEM.SOLV>
0

>  <SCORE.SYSTEM.norm>
0

>  <SCORE.heavy>
31

>  <SCORE.norm>
-0.373346

>  <RMSD>
7.612

$$$$
ligand
 OpenBabel11021811493D
libRbt.so/2013.1/901 2013/11/27
 31 33  0  0  0  0  0  0  0  0999 V2000
  -23.1189  -13.2330  -20.5884 C   0  0  2  0  0  0  0  0  0  0  0  0
  -24.1407  -12.6620  -19.7842 O   0  0  0  0  0  0  0  0  0  0  0  0
  -24.2551  -10.3481  -16.2055 C   0  0  2  0  0  0  0  0  0  0  0  0
  -24.0777   -9.9898  -14.8352 N   0  0  0  0  0  0  0  0  0  0  0  0
  -20.6251   -9.3725  -17.0360 C   0  0  2  0  0  0  0  0  0  0  0  0
  -23.7738  -13.5835  -21.9886 C   0  0  2  0  0  0  0  0  0  0  0  0
  -24.3134  -12.3561  -22.5921 N   0  0  0  0  0  0  0  0  0  0  0  0
  -25.1441  -11.6655  -16.2692 C   0  0  0  0  0  0  0  0  0  0  0  0
  -20.1482   -8.0603  -16.3295 C   0  0  2  0  0  0  0  0  0  0  0  0
  -20.5511   -8.1196  -14.9816 O   0  0  0  0  0  0  0  0  0  0  0  0
  -24.9109  -14.6627  -21.7917 C   0  0  0  0  0  0  0  0  0  0  0  0
  -25.3489  -12.0633  -17.8002 C   0  0  2  0  0  0  0  0  0  0  0  0
  -26.1787  -13.2848  -17.8825 N   0  0  0  0  0  0  0  0  0  0  0  0
  -20.7814   -6.8079  -17.0668 C   0  0  1  0  0  0  0  0  0  0  0  0
  -20.3359   -5.5334  -16.3977 N   0  0  0  0  0  0  0  0  0  0  0  0
  -24.5151  -15.7725  -20.7314 C   0  0  0  0  0  0  0  0  0  0  0  0
  -23.9323  -12.3326  -18.4559 C   0  0  2  0  0  0  0  0  0  0  0  0
  -20.2829   -6.7936  -18.6155 C   0  0  1  0  0  0  0  0  0  0  0  0
  -18.8800   -6.6851  -18.7472 O   0  0  0  0  0  0  0  0  0  0  0  0
  -23.4367  -15.6190  -19.9301 C   0  0  2  0  0  0  0  0  0  0  0  0
  -22.5941  -14.4633  -19.9878 O   0  0  0  0  0  0  0  0  0  0  0  0
  -23.0540  -11.0179  -18.3663 C   0  0  2  0  0  0  0  0  0  0  0  0
  -21.7671  -11.2721  -18.9536 O   0  0  0  0  0  0  0  0  0  0  0  0
  -20.7430   -8.1237  -19.2998 C   0  0  0  0  0  0  0  0  0  0  0  0
  -20.2425   -9.3278  -18.5041 O   0  0  0  0  0  0  0  0  0  0  0  0
  -23.0235  -16.6679  -18.8986 C   0  0  0  0  0  0  0  0  0  0  0  0
  -21.7313  -17.1717  -19.2708 O   0  0  0  0  0  0  0  0  0  0  0  0
  -22.8487  -10.6192  -16.8511 C   0  0  1  0  0  0  0  0  0  0  0  0
  -22.0715   -9.4347  -16.8136 O   0  0  0  0  0  0  0  0  0  0  0  0
  -20.8412   -5.6289  -19.4611 C   0  0  0  0  0  0  0  0  0  0  0  0
  -21.1610   -5.0622  -15.2667 C   0  0  0  0  0  0  0  0  0  0  0  0
  1  2  1  1  0  0  0
  1  6  1  0  0  0  0
  1 21  1  0  0  0  0
  3  4  1  1  0  0  0
  3  8  1  0  0  0  0
  3 28  1  0  0  0  0
  5  9  1  0  0  0  0
  5 25  1  0  0  0  0
  5 29  1  6  0  0  0
  6  7  1  1  0  0  0
  6 11  1  0  0  0  0
  8 12  1  0  0  0  0
  9 10  1  1  0  0  0
  9 14  1  0  0  0  0
 11 16  1  0  0  0  0
 12 13  1  1  0  0  0
 12 17  1  0  0  0  0
 14 15  1  1  0  0  0
 14 18  1  0  0  0  0
 15 31  1  0  0  0  0
 16 20  1  0  0  0  0
 17  2  1  6  0  0  0
 17 22  1  0  0  0  0
 18 19  1  6  0  0  0
 18 24  1  0  0  0  0
 18 30  1  0  0  0  0
 20 21  1  0  0  0  0
 20 26  1  6  0  0  0
 22 23  1  1  0  0  0
 22 28  1  0  0  0  0
 24 25  1  0  0  0  0
 26 27  1  0  0  0  0
 28 29  1  6  0  0  0
M  END
>  <CHROM.1>
175.00789423,-156.92606956,-87.70247289,-166.49778053,116.51180263,165.28174030
-22.50070018,-10.88964863,-18.37546326,-2.19006632,0.90521610,0.88179079

>  <Name>
ligand

>  <RI>
0

>  <Rbt.Current_Directory>
/home/itssahil/PROJECTS/Mol_Feturizer/New_Systems/rnas/4GPW

>  <Rbt.Executable>
rbdock ($Id: //depot/dev/client3/rdock/2013.1/src/exe/rbdock.cxx#4 $)

>  <Rbt.Library>
libRbt.so (2013.1, Build901 2013/11/27)

>  <Rbt.Parameter_File>
/export/apps/rDock/src/rDock_2013.1_src/data/scripts/dock_solv.prm

>  <Rbt.Receptor>
prm/pocket_docking_8.prm

>  <SCORE>
-10.27

>  <SCORE.INTER>
-3.85089

>  <SCORE.INTER.CONST>
1

>  <SCORE.INTER.POLAR>
0

>  <SCORE.INTER.ROT>
6

>  <SCORE.INTER.SOLV>
18.0623

>  <SCORE.INTER.VDW>
-16.188

>  <SCORE.INTER.norm>
-0.124222

>  <SCORE.INTRA>
-6.4191

>  <SCORE.INTRA.DIHEDRAL>
-12.6918

>  <SCORE.INTRA.DIHEDRAL.0>
19.2558

>  <SCORE.INTRA.POLAR>
0

>  <SCORE.INTRA.POLAR.0>
0

>  <SCORE.INTRA.REPUL>
0

>  <SCORE.INTRA.REPUL.0>
0

>  <SCORE.INTRA.SOLV>
-2.81892

>  <SCORE.INTRA.SOLV.lig_0>
-64.5929

>  <SCORE.INTRA.VDW>
1.33629

>  <SCORE.INTRA.VDW.0>
-4.40538

>  <SCORE.INTRA.norm>
-0.207068

>  <SCORE.RESTR>
0

>  <SCORE.RESTR.CAVITY>
0

>  <SCORE.RESTR.norm>
0

>  <SCORE.SYSTEM>
0

>  <SCORE.SYSTEM.CONST>
0

>  <SCORE.SYSTEM.DIHEDRAL>
0

>  <SCORE.SYSTEM.SOLV>
0

>  <SCORE.SYSTEM.norm>
0

>  <SCORE.heavy>
31

>  <SCORE.norm>
-0.33129

>  <RMSD>
7.657

$$$$
ligand
 OpenBabel11021811493D
libRbt.so/2013.1/901 2013/11/27
 31 33  0  0  0  0  0  0  0  0999 V2000
  -21.8850   -9.3596  -15.1380 C   0  0  2  0  0  0  0  0  0  0  0  0
  -22.2135  -10.1082  -13.9769 O   0  0  0  0  0  0  0  0  0  0  0  0
  -19.1619  -13.0837  -14.0697 C   0  0  2  0  0  0  0  0  0  0  0  0
  -18.3502  -14.1838  -13.6595 N   0  0  0  0  0  0  0  0  0  0  0  0
  -20.1180  -15.8872  -15.1278 C   0  0  2  0  0  0  0  0  0  0  0  0
  -22.7941   -8.0613  -15.1241 C   0  0  2  0  0  0  0  0  0  0  0  0
  -22.5291   -7.2973  -13.8962 N   0  0  0  0  0  0  0  0  0  0  0  0
  -19.0561  -11.9426  -12.9667 C   0  0  0  0  0  0  0  0  0  0  0  0
  -20.5194  -16.6155  -16.4532 C   0  0  2  0  0  0  0  0  0  0  0  0
  -20.1080  -15.8121  -17.5340 O   0  0  0  0  0  0  0  0  0  0  0  0
  -24.3167   -8.4739  -15.2146 C   0  0  0  0  0  0  0  0  0  0  0  0
  -19.9574  -10.7097  -13.4270 C   0  0  2  0  0  0  0  0  0  0  0  0
  -19.8689   -9.6336  -12.4164 N   0  0  0  0  0  0  0  0  0  0  0  0
  -22.0876  -16.8470  -16.4702 C   0  0  1  0  0  0  0  0  0  0  0  0
  -22.4942  -17.5449  -17.7422 N   0  0  0  0  0  0  0  0  0  0  0  0
  -24.5593   -9.6764  -16.2183 C   0  0  0  0  0  0  0  0  0  0  0  0
  -21.4594  -11.1935  -13.5647 C   0  0  2  0  0  0  0  0  0  0  0  0
  -22.5022  -17.7774  -15.2014 C   0  0  1  0  0  0  0  0  0  0  0  0
  -21.8956  -19.0536  -15.2258 O   0  0  0  0  0  0  0  0  0  0  0  0
  -23.5245  -10.3962  -16.7080 C   0  0  2  0  0  0  0  0  0  0  0  0
  -22.1637  -10.1219  -16.3592 O   0  0  0  0  0  0  0  0  0  0  0  0
  -21.5434  -12.3421  -14.6517 C   0  0  2  0  0  0  0  0  0  0  0  0
  -22.9067  -12.7832  -14.7642 O   0  0  0  0  0  0  0  0  0  0  0  0
  -22.0692  -17.0486  -13.8860 C   0  0  0  0  0  0  0  0  0  0  0  0
  -20.5814  -16.7061  -13.9369 O   0  0  0  0  0  0  0  0  0  0  0  0
  -23.7198  -11.5601  -17.6787 C   0  0  0  0  0  0  0  0  0  0  0  0
  -25.1072  -11.9298  -17.6551 O   0  0  0  0  0  0  0  0  0  0  0  0
  -20.6514  -13.5659  -14.2004 C   0  0  1  0  0  0  0  0  0  0  0  0
  -20.7424  -14.5643  -15.2021 O   0  0  0  0  0  0  0  0  0  0  0  0
  -24.0133  -18.0704  -15.0842 C   0  0  0  0  0  0  0  0  0  0  0  0
  -23.2152  -16.7269  -18.7386 C   0  0  0  0  0  0  0  0  0  0  0  0
  1  2  1  1  0  0  0
  1  6  1  0  0  0  0
  1 21  1  0  0  0  0
  3  4  1  1  0  0  0
  3  8  1  0  0  0  0
  3 28  1  0  0  0  0
  5  9  1  0  0  0  0
  5 25  1  0  0  0  0
  5 29  1  6  0  0  0
  6  7  1  1  0  0  0
  6 11  1  0  0  0  0
  8 12  1  0  0  0  0
  9 10  1  6  0  0  0
  9 14  1  0  0  0  0
 11 16  1  0  0  0  0
 12 13  1  1  0  0  0
 12 17  1  0  0  0  0
 14 15  1  6  0  0  0
 14 18  1  0  0  0  0
 15 31  1  0  0  0  0
 16 20  1  0  0  0  0
 17  2  1  6  0  0  0
 17 22  1  0  0  0  0
 18 19  1  6  0  0  0
 18 24  1  0  0  0  0
 18 30  1  0  0  0  0
 20 21  1  0  0  0  0
 20 26  1  6  0  0  0
 22 23  1  1  0  0  0
 22 28  1  0  0  0  0
 24 25  1  0  0  0  0
 26 27  1  0  0  0  0
 28 29  1  6  0  0  0
M  END
>  <CHROM.1>
-169.49702766,179.40612932,-107.74866836,54.40372886,-15.02510913,65.21545927
-21.83523357,-13.23548336,-15.26174154,1.68312306,-0.69879096,0.20337278

>  <Name>
ligand

>  <RI>
0

>  <Rbt.Current_Directory>
/home/itssahil/PROJECTS/Mol_Feturizer/New_Systems/rnas/4GPW

>  <Rbt.Executable>
rbdock ($Id: //depot/dev/client3/rdock/2013.1/src/exe/rbdock.cxx#4 $)

>  <Rbt.Library>
libRbt.so (2013.1, Build901 2013/11/27)

>  <Rbt.Parameter_File>
/export/apps/rDock/src/rDock_2013.1_src/data/scripts/dock_solv.prm

>  <Rbt.Receptor>
prm/pocket_docking_6.prm

>  <SCORE>
-7.88247

>  <SCORE.INTER>
-1.82894

>  <SCORE.INTER.CONST>
1

>  <SCORE.INTER.POLAR>
0

>  <SCORE.INTER.ROT>
6

>  <SCORE.INTER.SOLV>
6.37574

>  <SCORE.INTER.VDW>
-10.9445

>  <SCORE.INTER.norm>
-0.058998

>  <SCORE.INTRA>
-6.05353

>  <SCORE.INTRA.DIHEDRAL>
-15.3754

>  <SCORE.INTRA.DIHEDRAL.0>
19.2558

>  <SCORE.INTRA.POLAR>
0

>  <SCORE.INTRA.POLAR.0>
0

>  <SCORE.INTRA.REPUL>
0

>  <SCORE.INTRA.REPUL.0>
0

>  <SCORE.INTRA.SOLV>
-0.683522

>  <SCORE.INTRA.SOLV.lig_0>
-64.5929

>  <SCORE.INTRA.VDW>
1.97594

>  <SCORE.INTRA.VDW.0>
-4.40538

>  <SCORE.INTRA.norm>
-0.195275

>  <SCORE.RESTR>
0

>  <SCORE.RESTR.CAVITY>
0

>  <SCORE.RESTR.norm>
0

>  <SCORE.SYSTEM>
0

>  <SCORE.SYSTEM.CONST>
0

>  <SCORE.SYSTEM.DIHEDRAL>
0

>  <SCORE.SYSTEM.SOLV>
0

>  <SCORE.SYSTEM.norm>
0

>  <SCORE.heavy>
31

>  <SCORE.norm>
-0.254273

>  <RMSD>
7.703

$$$$
ligand
 OpenBabel11021811493D
libRbt.so/2013.1/901 2013/11/27
 31 33  0  0  0  0  0  0  0  0999 V2000
  -23.0724  -11.4838  -14.6082 C   0  0  2  0  0  0  0  0  0  0  0  0
  -23.9425  -12.5910  -14.7913 O   0  0  0  0  0  0  0  0  0  0  0  0
  -23.4239  -16.8223  -14.8317 C   0  0  2  0  0  0  0  0  0  0  0  0
  -22.9845  -18.1145  -15.2496 N   0  0  0  0  0  0  0  0  0  0  0  0
  -20.4164  -15.8469  -12.6331 C   0  0  2  0  0  0  0  0  0  0  0  0
  -23.9334  -10.3204  -13.9622 C   0  0  2  0  0  0  0  0  0  0  0  0
  -24.4933  -10.7842  -12.6842 N   0  0  0  0  0  0  0  0  0  0  0  0
  -24.2443  -16.1612  -16.0233 C   0  0  0  0  0  0  0  0  0  0  0  0
  -19.1436  -15.8508  -13.5432 C   0  0  2  0  0  0  0  0  0  0  0  0
  -19.4792  -15.2361  -14.7648 O   0  0  0  0  0  0  0  0  0  0  0  0
  -25.0817   -9.8890  -14.9581 C   0  0  0  0  0  0  0  0  0  0  0  0
  -24.7419  -14.7197  -15.5554 C   0  0  2  0  0  0  0  0  0  0  0  0
  -25.5129  -14.0887  -16.6484 N   0  0  0  0  0  0  0  0  0  0  0  0
  -18.6602  -17.3446  -13.7624 C   0  0  1  0  0  0  0  0  0  0  0  0
  -17.4359  -17.3690  -14.6405 N   0  0  0  0  0  0  0  0  0  0  0  0
  -24.5941   -9.8554  -16.4659 C   0  0  0  0  0  0  0  0  0  0  0  0
  -23.4801  -13.8283  -15.2055 C   0  0  2  0  0  0  0  0  0  0  0  0
  -18.2893  -18.0011  -12.3206 C   0  0  1  0  0  0  0  0  0  0  0  0
  -17.2452  -17.3225  -11.6525 O   0  0  0  0  0  0  0  0  0  0  0  0
  -23.4077  -10.3940  -16.8279 C   0  0  2  0  0  0  0  0  0  0  0  0
  -22.5276  -11.0179  -15.8872 O   0  0  0  0  0  0  0  0  0  0  0  0
  -22.6647  -14.5105  -14.0318 C   0  0  2  0  0  0  0  0  0  0  0  0
  -21.5162  -13.7021  -13.7264 O   0  0  0  0  0  0  0  0  0  0  0  0
  -19.5639  -17.9642  -11.4132 C   0  0  0  0  0  0  0  0  0  0  0  0
  -20.1041  -16.5385  -11.3186 O   0  0  0  0  0  0  0  0  0  0  0  0
  -22.9042  -10.3782  -18.2705 C   0  0  0  0  0  0  0  0  0  0  0  0
  -22.8928  -11.7312  -18.7516 O   0  0  0  0  0  0  0  0  0  0  0  0
  -22.1699  -15.9395  -14.4904 C   0  0  1  0  0  0  0  0  0  0  0  0
  -21.4579  -16.5210  -13.4118 O   0  0  0  0  0  0  0  0  0  0  0  0
  -17.8169  -19.4694  -12.3839 C   0  0  0  0  0  0  0  0  0  0  0  0
  -17.6710  -17.3024  -16.0972 C   0  0  0  0  0  0  0  0  0  0  0  0
  1  2  1  6  0  0  0
  1  6  1  0  0  0  0
  1 21  1  0  0  0  0
  3  4  1  6  0  0  0
  3  8  1  0  0  0  0
  3 28  1  0  0  0  0
  5  9  1  0  0  0  0
  5 25  1  0  0  0  0
  5 29  1  6  0  0  0
  6  7  1  1  0  0  0
  6 11  1  0  0  0  0
  8 12  1  0  0  0  0
  9 10  1  6  0  0  0
  9 14  1  0  0  0  0
 11 16  1  0  0  0  0
 12 13  1  6  0  0  0
 12 17  1  0  0  0  0
 14 15  1  6  0  0  0
 14 18  1  0  0  0  0
 15 31  1  0  0  0  0
 16 20  1  0  0  0  0
 17  2  1  1  0  0  0
 17 22  1  0  0  0  0
 18 19  1  1  0  0  0
 18 24  1  0  0  0  0
 18 30  1  0  0  0  0
 20 21  1  0  0  0  0
 20 26  1  1  0  0  0
 22 23  1  6  0  0  0
 22 28  1  0  0  0  0
 24 25  1  0  0  0  0
 26 27  1  0  0  0  0
 28 29  1  1  0  0  0
M  END
>  <CHROM.1>
-172.98267070,-76.33122975,-82.65433442,-169.64902252,-112.41035158,-166.05467408
-21.73203703,-14.55227387,-14.54630102,-2.55031949,0.76311444,-2.77591677

>  <Name>
ligand

>  <RI>
0

>  <Rbt.Current_Directory>
/home/itssahil/PROJECTS/Mol_Feturizer/New_Systems/rnas/4GPW

>  <Rbt.Executable>
rbdock ($Id: //depot/dev/client3/rdock/2013.1/src/exe/rbdock.cxx#4 $)

>  <Rbt.Library>
libRbt.so (2013.1, Build901 2013/11/27)

>  <Rbt.Parameter_File>
/export/apps/rDock/src/rDock_2013.1_src/data/scripts/dock_solv.prm

>  <Rbt.Receptor>
prm/pocket_docking_8.prm

>  <SCORE>
-10.7872

>  <SCORE.INTER>
-4.94562

>  <SCORE.INTER.CONST>
1

>  <SCORE.INTER.POLAR>
0

>  <SCORE.INTER.ROT>
6

>  <SCORE.INTER.SOLV>
15.2883

>  <SCORE.INTER.VDW>
-15.9932

>  <SCORE.INTER.norm>
-0.159536

>  <SCORE.INTRA>
-5.84153

>  <SCORE.INTRA.DIHEDRAL>
-14.1995

>  <SCORE.INTRA.DIHEDRAL.0>
19.2558

>  <SCORE.INTRA.POLAR>
0

>  <SCORE.INTRA.POLAR.0>
0

>  <SCORE.INTRA.REPUL>
0

>  <SCORE.INTRA.REPUL.0>
0

>  <SCORE.INTRA.SOLV>
-2.69102

>  <SCORE.INTRA.SOLV.lig_0>
-64.5929

>  <SCORE.INTRA.VDW>
2.60372

>  <SCORE.INTRA.VDW.0>
-4.40538

>  <SCORE.INTRA.norm>
-0.188437

>  <SCORE.RESTR>
0

>  <SCORE.RESTR.CAVITY>
0

>  <SCORE.RESTR.norm>
0

>  <SCORE.SYSTEM>
0

>  <SCORE.SYSTEM.CONST>
0

>  <SCORE.SYSTEM.DIHEDRAL>
0

>  <SCORE.SYSTEM.SOLV>
0

>  <SCORE.SYSTEM.norm>
0

>  <SCORE.heavy>
31

>  <SCORE.norm>
-0.347973

>  <RMSD>
7.788

$$$$
ligand
 OpenBabel11021811493D
libRbt.so/2013.1/901 2013/11/27
 31 33  0  0  0  0  0  0  0  0999 V2000
  -16.3869  -11.4676  -12.3020 C   0  0  2  0  0  0  0  0  0  0  0  0
  -17.1710  -10.7932  -13.2751 O   0  0  0  0  0  0  0  0  0  0  0  0
  -19.2838   -8.0176  -10.8243 C   0  0  2  0  0  0  0  0  0  0  0  0
  -20.2143   -7.0046  -10.4429 N   0  0  0  0  0  0  0  0  0  0  0  0
  -21.5391  -11.1040  -10.3489 C   0  0  2  0  0  0  0  0  0  0  0  0
  -15.1976  -12.1749  -13.0751 C   0  0  2  0  0  0  0  0  0  0  0  0
  -14.4127  -11.1585  -13.7910 N   0  0  0  0  0  0  0  0  0  0  0  0
  -18.3521   -7.4362  -11.9749 C   0  0  0  0  0  0  0  0  0  0  0  0
  -22.6765  -11.0286   -9.2771 C   0  0  2  0  0  0  0  0  0  0  0  0
  -23.5008   -9.9314   -9.5923 O   0  0  0  0  0  0  0  0  0  0  0  0
  -15.7765  -13.2504  -14.0775 C   0  0  0  0  0  0  0  0  0  0  0  0
  -17.3071   -8.5648  -12.3976 C   0  0  2  0  0  0  0  0  0  0  0  0
  -16.4261   -8.0423  -13.4644 N   0  0  0  0  0  0  0  0  0  0  0  0
  -22.0310  -10.8709   -7.8377 C   0  0  1  0  0  0  0  0  0  0  0  0
  -23.1122  -10.7929   -6.7911 N   0  0  0  0  0  0  0  0  0  0  0  0
  -16.9955  -14.0561  -13.4632 C   0  0  0  0  0  0  0  0  0  0  0  0
  -18.1012   -9.8282  -12.9291 C   0  0  2  0  0  0  0  0  0  0  0  0
  -21.0912  -12.1632   -7.5311 C   0  0  1  0  0  0  0  0  0  0  0  0
  -21.8050  -13.3829   -7.5327 O   0  0  0  0  0  0  0  0  0  0  0  0
  -17.5944  -13.6514  -12.3203 C   0  0  2  0  0  0  0  0  0  0  0  0
  -17.1717  -12.4885  -11.6007 O   0  0  0  0  0  0  0  0  0  0  0  0
  -19.0377  -10.3819  -11.7783 C   0  0  2  0  0  0  0  0  0  0  0  0
  -19.7624  -11.5214  -12.2703 O   0  0  0  0  0  0  0  0  0  0  0  0
  -19.9767  -12.2405   -8.6270 C   0  0  0  0  0  0  0  0  0  0  0  0
  -20.6047  -12.2538  -10.0194 O   0  0  0  0  0  0  0  0  0  0  0  0
  -18.7699  -14.4036  -11.6978 C   0  0  0  0  0  0  0  0  0  0  0  0
  -19.9232  -14.1887  -12.5260 O   0  0  0  0  0  0  0  0  0  0  0  0
  -20.0746   -9.2669  -11.3555 C   0  0  1  0  0  0  0  0  0  0  0  0
  -20.8832   -9.7946  -10.3182 O   0  0  0  0  0  0  0  0  0  0  0  0
  -20.3817  -12.1329   -6.1604 C   0  0  0  0  0  0  0  0  0  0  0  0
  -23.5057   -9.4383   -6.3529 C   0  0  0  0  0  0  0  0  0  0  0  0
  1  2  1  6  0  0  0
  1  6  1  0  0  0  0
  1 21  1  0  0  0  0
  3  4  1  6  0  0  0
  3  8  1  0  0  0  0
  3 28  1  0  0  0  0
  5  9  1  0  0  0  0
  5 25  1  0  0  0  0
  5 29  1  1  0  0  0
  6  7  1  6  0  0  0
  6 11  1  0  0  0  0
  8 12  1  0  0  0  0
  9 10  1  6  0  0  0
  9 14  1  0  0  0  0
 11 16  1  0  0  0  0
 12 13  1  6  0  0  0
 12 17  1  0  0  0  0
 14 15  1  1  0  0  0
 14 18  1  0  0  0  0
 15 31  1  0  0  0  0
 16 20  1  0  0  0  0
 17  2  1  1  0  0  0
 17 22  1  0  0  0  0
 18 19  1  6  0  0  0
 18 24  1  0  0  0  0
 18 30  1  0  0  0  0
 20 21  1  0  0  0  0
 20 26  1  1  0  0  0
 22 23  1  6  0  0  0
 22 28  1  0  0  0  0
 24 25  1  0  0  0  0
 26 27  1  0  0  0  0
 28 29  1  1  0  0  0
M  END
>  <CHROM.1>
-164.80301077,-160.58534802,-96.78185836,69.05229271,-71.59595756,-166.57532348
-19.36438688,-11.09160932,-10.82130721,-0.00718783,-0.75097171,3.01276830

>  <Name>
ligand

>  <RI>
0

>  <Rbt.Current_Directory>
/home/itssahil/PROJECTS/Mol_Feturizer/New_Systems/rnas/4GPW

>  <Rbt.Executable>
rbdock ($Id: //depot/dev/client3/rdock/2013.1/src/exe/rbdock.cxx#4 $)

>  <Rbt.Library>
libRbt.so (2013.1, Build901 2013/11/27)

>  <Rbt.Parameter_File>
/export/apps/rDock/src/rDock_2013.1_src/data/scripts/dock_solv.prm

>  <Rbt.Receptor>
prm/pocket_docking_8.prm

>  <SCORE>
-7.86297

>  <SCORE.INTER>
-4.14108

>  <SCORE.INTER.CONST>
1

>  <SCORE.INTER.POLAR>
0

>  <SCORE.INTER.ROT>
6

>  <SCORE.INTER.SOLV>
11.7052

>  <SCORE.INTER.VDW>
-14.2624

>  <SCORE.INTER.norm>
-0.133583

>  <SCORE.INTRA>
-3.72189

>  <SCORE.INTRA.DIHEDRAL>
-10.9688

>  <SCORE.INTRA.DIHEDRAL.0>
19.2558

>  <SCORE.INTRA.POLAR>
0

>  <SCORE.INTRA.POLAR.0>
0

>  <SCORE.INTRA.REPUL>
0

>  <SCORE.INTRA.REPUL.0>
0

>  <SCORE.INTRA.SOLV>
-0.872177

>  <SCORE.INTRA.SOLV.lig_0>
-64.5929

>  <SCORE.INTRA.VDW>
2.19862

>  <SCORE.INTRA.VDW.0>
-4.40538

>  <SCORE.INTRA.norm>
-0.120061

>  <SCORE.RESTR>
0

>  <SCORE.RESTR.CAVITY>
0

>  <SCORE.RESTR.norm>
0

>  <SCORE.SYSTEM>
0

>  <SCORE.SYSTEM.CONST>
0

>  <SCORE.SYSTEM.DIHEDRAL>
0

>  <SCORE.SYSTEM.SOLV>
0

>  <SCORE.SYSTEM.norm>
0

>  <SCORE.heavy>
31

>  <SCORE.norm>
-0.253644

>  <RMSD>
7.837

$$$$
ligand
 OpenBabel11021811493D
libRbt.so/2013.1/901 2013/11/27
 31 33  0  0  0  0  0  0  0  0999 V2000
  -18.7337  -22.4789   -8.8249 C   0  0  2  0  0  0  0  0  0  0  0  0
  -17.7633  -21.5167   -9.2111 O   0  0  0  0  0  0  0  0  0  0  0  0
  -16.9755  -18.4688  -12.0860 C   0  0  2  0  0  0  0  0  0  0  0  0
  -17.0411  -17.7252  -13.3025 N   0  0  0  0  0  0  0  0  0  0  0  0
  -20.1052  -16.5875  -11.3813 C   0  0  2  0  0  0  0  0  0  0  0  0
  -17.9433  -23.7681   -8.3499 C   0  0  2  0  0  0  0  0  0  0  0  0
  -17.0617  -23.4103   -7.2289 N   0  0  0  0  0  0  0  0  0  0  0  0
  -16.5154  -19.9524  -12.4284 C   0  0  0  0  0  0  0  0  0  0  0  0
  -20.8856  -17.6883  -12.1733 C   0  0  2  0  0  0  0  0  0  0  0  0
  -20.8983  -18.8605  -11.3932 O   0  0  0  0  0  0  0  0  0  0  0  0
  -17.1112  -24.3596   -9.5558 C   0  0  0  0  0  0  0  0  0  0  0  0
  -16.4350  -20.7830  -11.0690 C   0  0  2  0  0  0  0  0  0  0  0  0
  -16.0030  -22.1662  -11.3646 N   0  0  0  0  0  0  0  0  0  0  0  0
  -20.1759  -17.9321  -13.5698 C   0  0  1  0  0  0  0  0  0  0  0  0
  -20.9119  -18.9930  -14.3465 N   0  0  0  0  0  0  0  0  0  0  0  0
  -17.9059  -24.3008  -10.9260 C   0  0  0  0  0  0  0  0  0  0  0  0
  -17.8670  -20.8018  -10.3921 C   0  0  2  0  0  0  0  0  0  0  0  0
  -20.1902  -16.5470  -14.4233 C   0  0  1  0  0  0  0  0  0  0  0  0
  -21.4942  -16.0769  -14.6988 O   0  0  0  0  0  0  0  0  0  0  0  0
  -19.0456  -23.5822  -11.0415 C   0  0  2  0  0  0  0  0  0  0  0  0
  -19.6012  -22.8410   -9.9501 O   0  0  0  0  0  0  0  0  0  0  0  0
  -18.3178  -19.3169  -10.0761 C   0  0  2  0  0  0  0  0  0  0  0  0
  -19.6216  -19.3407   -9.4716 O   0  0  0  0  0  0  0  0  0  0  0  0
  -19.4308  -15.4496  -13.6058 C   0  0  0  0  0  0  0  0  0  0  0  0
  -20.0360  -15.3175  -12.2095 O   0  0  0  0  0  0  0  0  0  0  0  0
  -19.8393  -23.5041  -12.3449 C   0  0  0  0  0  0  0  0  0  0  0  0
  -20.9605  -24.3947  -12.2360 O   0  0  0  0  0  0  0  0  0  0  0  0
  -18.3983  -18.4896  -11.4200 C   0  0  1  0  0  0  0  0  0  0  0  0
  -18.7910  -17.1672  -11.0948 O   0  0  0  0  0  0  0  0  0  0  0  0
  -19.5116  -16.6361  -15.8070 C   0  0  0  0  0  0  0  0  0  0  0  0
  -20.6195  -20.3946  -13.9834 C   0  0  0  0  0  0  0  0  0  0  0  0
  1  2  1  6  0  0  0
  1  6  1  0  0  0  0
  1 21  1  0  0  0  0
  3  4  1  6  0  0  0
  3  8  1  0  0  0  0
  3 28  1  0  0  0  0
  5  9  1  0  0  0  0
  5 25  1  0  0  0  0
  5 29  1  6  0  0  0
  6  7  1  1  0  0  0
  6 11  1  0  0  0  0
  8 12  1  0  0  0  0
  9 10  1  1  0  0  0
  9 14  1  0  0  0  0
 11 16  1  0  0  0  0
 12 13  1  6  0  0  0
 12 17  1  0  0  0  0
 14 15  1  6  0  0  0
 14 18  1  0  0  0  0
 15 31  1  0  0  0  0
 16 20  1  0  0  0  0
 17  2  1  1  0  0  0
 17 22  1  0  0  0  0
 18 19  1  6  0  0  0
 18 24  1  0  0  0  0
 18 30  1  0  0  0  0
 20 21  1  0  0  0  0
 20 26  1  1  0  0  0
 22 23  1  6  0  0  0
 22 28  1  0  0  0  0
 24 25  1  0  0  0  0
 26 27  1  0  0  0  0
 28 29  1  1  0  0  0
M  END
>  <CHROM.1>
133.50860620,-3.55812277,-80.77942290,-136.01479409,101.20170933,133.56529274
-18.95159955,-19.95235939,-11.61902516,-1.19604331,-0.84783282,-0.23150709

>  <Name>
ligand

>  <RI>
0

>  <Rbt.Current_Directory>
/home/itssahil/PROJECTS/Mol_Feturizer/New_Systems/rnas/4GPW

>  <Rbt.Executable>
rbdock ($Id: //depot/dev/client3/rdock/2013.1/src/exe/rbdock.cxx#4 $)

>  <Rbt.Library>
libRbt.so (2013.1, Build901 2013/11/27)

>  <Rbt.Parameter_File>
/export/apps/rDock/src/rDock_2013.1_src/data/scripts/dock_solv.prm

>  <Rbt.Receptor>
prm/blind_docking_100.prm

>  <SCORE>
38.5944

>  <SCORE.INTER>
6.97512

>  <SCORE.INTER.CONST>
1

>  <SCORE.INTER.POLAR>
0

>  <SCORE.INTER.ROT>
6

>  <SCORE.INTER.SOLV>
20.286

>  <SCORE.INTER.VDW>
-9.71193

>  <SCORE.INTER.norm>
0.225004

>  <SCORE.INTRA>
12.1533

>  <SCORE.INTRA.DIHEDRAL>
8.97207

>  <SCORE.INTRA.DIHEDRAL.0>
19.2558

>  <SCORE.INTRA.POLAR>
0

>  <SCORE.INTRA.POLAR.0>
0

>  <SCORE.INTRA.REPUL>
0

>  <SCORE.INTRA.REPUL.0>
0

>  <SCORE.INTRA.SOLV>
4.85857

>  <SCORE.INTRA.SOLV.lig_0>
-64.5929

>  <SCORE.INTRA.VDW>
5.23802

>  <SCORE.INTRA.VDW.0>
-4.40538

>  <SCORE.INTRA.norm>
0.392043

>  <SCORE.RESTR>
19.4659

>  <SCORE.RESTR.CAVITY>
19.4659

>  <SCORE.RESTR.norm>
0.627934

>  <SCORE.SYSTEM>
0

>  <SCORE.SYSTEM.CONST>
0

>  <SCORE.SYSTEM.DIHEDRAL>
0

>  <SCORE.SYSTEM.SOLV>
0

>  <SCORE.SYSTEM.norm>
0

>  <SCORE.heavy>
31

>  <SCORE.norm>
1.24498

>  <RMSD>
7.927

$$$$
ligand
 OpenBabel11021811493D
libRbt.so/2013.1/901 2013/11/27
 31 33  0  0  0  0  0  0  0  0999 V2000
  -21.5423   -8.8754  -13.2966 C   0  0  2  0  0  0  0  0  0  0  0  0
  -22.9001   -9.2562  -13.4640 O   0  0  0  0  0  0  0  0  0  0  0  0
  -24.6120  -13.0347  -14.4474 C   0  0  2  0  0  0  0  0  0  0  0  0
  -25.0278  -14.1549  -15.2282 N   0  0  0  0  0  0  0  0  0  0  0  0
  -22.6047  -15.4166  -14.5032 C   0  0  2  0  0  0  0  0  0  0  0  0
  -21.5355   -7.5676  -12.4011 C   0  0  2  0  0  0  0  0  0  0  0  0
  -22.1771   -7.8605  -11.1110 N   0  0  0  0  0  0  0  0  0  0  0  0
  -25.3030  -11.7283  -15.0356 C   0  0  0  0  0  0  0  0  0  0  0  0
  -21.5005  -16.2702  -13.7958 C   0  0  2  0  0  0  0  0  0  0  0  0
  -21.6634  -16.1272  -12.4045 O   0  0  0  0  0  0  0  0  0  0  0  0
  -22.2886   -6.4003  -13.1539 C   0  0  0  0  0  0  0  0  0  0  0  0
  -24.8447  -10.4764  -14.1599 C   0  0  2  0  0  0  0  0  0  0  0  0
  -25.4811   -9.2499  -14.6874 N   0  0  0  0  0  0  0  0  0  0  0  0
  -20.0709  -15.7700  -14.2640 C   0  0  1  0  0  0  0  0  0  0  0  0
  -18.9930  -16.5788  -13.5898 N   0  0  0  0  0  0  0  0  0  0  0  0
  -21.9677   -6.3750  -14.7060 C   0  0  0  0  0  0  0  0  0  0  0  0
  -23.2686  -10.3402  -14.2421 C   0  0  2  0  0  0  0  0  0  0  0  0
  -19.9424  -15.9577  -15.8751 C   0  0  1  0  0  0  0  0  0  0  0  0
  -20.0661  -17.3030  -16.2899 O   0  0  0  0  0  0  0  0  0  0  0  0
  -21.3321   -7.4079  -15.3041 C   0  0  2  0  0  0  0  0  0  0  0  0
  -20.9119   -8.5723  -14.5853 O   0  0  0  0  0  0  0  0  0  0  0  0
  -22.5976  -11.6562  -13.6712 C   0  0  2  0  0  0  0  0  0  0  0  0
  -21.1685  -11.5301  -13.7581 O   0  0  0  0  0  0  0  0  0  0  0  0
  -21.0700  -15.1209  -16.5661 C   0  0  0  0  0  0  0  0  0  0  0  0
  -22.4368  -15.5141  -16.0085 O   0  0  0  0  0  0  0  0  0  0  0  0
  -21.0043   -7.4177  -16.7965 C   0  0  0  0  0  0  0  0  0  0  0  0
  -19.5757   -7.3784  -16.9376 O   0  0  0  0  0  0  0  0  0  0  0  0
  -23.0492  -12.8997  -14.5353 C   0  0  1  0  0  0  0  0  0  0  0  0
  -22.4401  -14.0558  -13.9867 O   0  0  0  0  0  0  0  0  0  0  0  0
  -18.5975  -15.4915  -16.4725 C   0  0  0  0  0  0  0  0  0  0  0  0
  -18.4982  -16.0648  -12.2965 C   0  0  0  0  0  0  0  0  0  0  0  0
  1  2  1  6  0  0  0
  1  6  1  0  0  0  0
  1 21  1  0  0  0  0
  3  4  1  6  0  0  0
  3  8  1  0  0  0  0
  3 28  1  0  0  0  0
  5  9  1  0  0  0  0
  5 25  1  0  0  0  0
  5 29  1  1  0  0  0
  6  7  1  1  0  0  0
  6 11  1  0  0  0  0
  8 12  1  0  0  0  0
  9 10  1  1  0  0  0
  9 14  1  0  0  0  0
 11 16  1  0  0  0  0
 12 13  1  6  0  0  0
 12 17  1  0  0  0  0
 14 15  1  1  0  0  0
 14 18  1  0  0  0  0
 15 31  1  0  0  0  0
 16 20  1  0  0  0  0
 17  2  1  1  0  0  0
 17 22  1  0  0  0  0
 18 19  1  6  0  0  0
 18 24  1  0  0  0  0
 18 30  1  0  0  0  0
 20 21  1  0  0  0  0
 20 26  1  1  0  0  0
 22 23  1  6  0  0  0
 22 28  1  0  0  0  0
 24 25  1  0  0  0  0
 26 27  1  0  0  0  0
 28 29  1  1  0  0  0
M  END
>  <CHROM.1>
177.55790171,167.13081793,-90.03728114,178.54393924,113.83098731,61.84121054
-21.84771749,-12.01649163,-14.44946808,-1.74659109,-0.16863873,-3.11481879

>  <Name>
ligand

>  <RI>
0

>  <Rbt.Current_Directory>
/home/itssahil/PROJECTS/Mol_Feturizer/New_Systems/rnas/4GPW

>  <Rbt.Executable>
rbdock ($Id: //depot/dev/client3/rdock/2013.1/src/exe/rbdock.cxx#4 $)

>  <Rbt.Library>
libRbt.so (2013.1, Build901 2013/11/27)

>  <Rbt.Parameter_File>
/export/apps/rDock/src/rDock_2013.1_src/data/scripts/dock_solv.prm

>  <Rbt.Receptor>
prm/pocket_docking_6.prm

>  <SCORE>
-8.33166

>  <SCORE.INTER>
-1.05494

>  <SCORE.INTER.CONST>
1

>  <SCORE.INTER.POLAR>
0

>  <SCORE.INTER.ROT>
6

>  <SCORE.INTER.SOLV>
14.2437

>  <SCORE.INTER.VDW>
-13.0512

>  <SCORE.INTER.norm>
-0.0340303

>  <SCORE.INTRA>
-7.27672

>  <SCORE.INTRA.DIHEDRAL>
-16.0627

>  <SCORE.INTRA.DIHEDRAL.0>
19.2558

>  <SCORE.INTRA.POLAR>
0

>  <SCORE.INTRA.POLAR.0>
0

>  <SCORE.INTRA.REPUL>
0

>  <SCORE.INTRA.REPUL.0>
0

>  <SCORE.INTRA.SOLV>
-2.23773

>  <SCORE.INTRA.SOLV.lig_0>
-64.5929

>  <SCORE.INTRA.VDW>
1.87348

>  <SCORE.INTRA.VDW.0>
-4.40538

>  <SCORE.INTRA.norm>
-0.234733

>  <SCORE.RESTR>
0

>  <SCORE.RESTR.CAVITY>
0

>  <SCORE.RESTR.norm>
0

>  <SCORE.SYSTEM>
0

>  <SCORE.SYSTEM.CONST>
0

>  <SCORE.SYSTEM.DIHEDRAL>
0

>  <SCORE.SYSTEM.SOLV>
0

>  <SCORE.SYSTEM.norm>
0

>  <SCORE.heavy>
31

>  <SCORE.norm>
-0.268763

>  <RMSD>
7.946

$$$$
ligand
 OpenBabel11021811493D
libRbt.so/2013.1/901 2013/11/27
 31 33  0  0  0  0  0  0  0  0999 V2000
  -22.9041  -12.1082  -15.3272 C   0  0  2  0  0  0  0  0  0  0  0  0
  -23.9637  -13.0536  -15.3308 O   0  0  0  0  0  0  0  0  0  0  0  0
  -24.3069  -17.2721  -15.8422 C   0  0  2  0  0  0  0  0  0  0  0  0
  -24.2182  -18.5594  -16.4522 N   0  0  0  0  0  0  0  0  0  0  0  0
  -20.7007  -17.8981  -15.0963 C   0  0  2  0  0  0  0  0  0  0  0  0
  -23.3279  -10.9419  -14.3409 C   0  0  2  0  0  0  0  0  0  0  0  0
  -23.5578  -11.5005  -13.0004 N   0  0  0  0  0  0  0  0  0  0  0  0
  -25.1914  -16.3345  -16.7743 C   0  0  0  0  0  0  0  0  0  0  0  0
  -20.4109  -19.0636  -14.0933 C   0  0  2  0  0  0  0  0  0  0  0  0
  -21.3762  -20.0675  -14.3006 O   0  0  0  0  0  0  0  0  0  0  0  0
  -24.6279  -10.2276  -14.8852 C   0  0  0  0  0  0  0  0  0  0  0  0
  -25.2971  -14.8973  -16.0906 C   0  0  2  0  0  0  0  0  0  0  0  0
  -26.1212  -14.0100  -16.9397 N   0  0  0  0  0  0  0  0  0  0  0  0
  -20.4677  -18.5056  -12.6105 C   0  0  1  0  0  0  0  0  0  0  0  0
  -20.1942  -19.6156  -11.6288 N   0  0  0  0  0  0  0  0  0  0  0  0
  -24.6064  -10.0496  -16.4601 C   0  0  0  0  0  0  0  0  0  0  0  0
  -23.8413  -14.2920  -15.9374 C   0  0  2  0  0  0  0  0  0  0  0  0
  -19.3346  -17.3516  -12.4321 C   0  0  1  0  0  0  0  0  0  0  0  0
  -18.0203  -17.8249  -12.6457 O   0  0  0  0  0  0  0  0  0  0  0  0
  -23.6875  -10.6853  -17.2218 C   0  0  2  0  0  0  0  0  0  0  0  0
  -22.6885  -11.5454  -16.6638 O   0  0  0  0  0  0  0  0  0  0  0  0
  -22.9692  -15.2470  -15.0235 C   0  0  2  0  0  0  0  0  0  0  0  0
  -21.6473  -14.6973  -14.8970 O   0  0  0  0  0  0  0  0  0  0  0  0
  -19.6220  -16.2075  -13.4604 C   0  0  0  0  0  0  0  0  0  0  0  0
  -19.7019  -16.7768  -14.8757 O   0  0  0  0  0  0  0  0  0  0  0  0
  -23.6347  -10.5360  -18.7416 C   0  0  0  0  0  0  0  0  0  0  0  0
  -22.3886   -9.9094  -19.0831 O   0  0  0  0  0  0  0  0  0  0  0  0
  -22.8620  -16.6727  -15.6964 C   0  0  1  0  0  0  0  0  0  0  0  0
  -22.0875  -17.4994  -14.8448 O   0  0  0  0  0  0  0  0  0  0  0  0
  -19.2892  -16.7048  -11.0311 C   0  0  0  0  0  0  0  0  0  0  0  0
  -18.9519  -20.3866  -11.8385 C   0  0  0  0  0  0  0  0  0  0  0  0
  1  2  1  6  0  0  0
  1  6  1  0  0  0  0
  1 21  1  0  0  0  0
  3  4  1  6  0  0  0
  3  8  1  0  0  0  0
  3 28  1  0  0  0  0
  5  9  1  0  0  0  0
  5 25  1  0  0  0  0
  5 29  1  1  0  0  0
  6  7  1  1  0  0  0
  6 11  1  0  0  0  0
  8 12  1  0  0  0  0
  9 10  1  1  0  0  0
  9 14  1  0  0  0  0
 11 16  1  0  0  0  0
 12 13  1  6  0  0  0
 12 17  1  0  0  0  0
 14 15  1  1  0  0  0
 14 18  1  0  0  0  0
 15 31  1  0  0  0  0
 16 20  1  0  0  0  0
 17  2  1  1  0  0  0
 17 22  1  0  0  0  0
 18 19  1  6  0  0  0
 18 24  1  0  0  0  0
 18 30  1  0  0  0  0
 20 21  1  0  0  0  0
 20 26  1  1  0  0  0
 22 23  1  6  0  0  0
 22 28  1  0  0  0  0
 24 25  1  0  0  0  0
 26 27  1  0  0  0  0
 28 29  1  1  0  0  0
M  END
>  <CHROM.1>
-170.49692662,-166.36424667,53.57766886,-164.84089647,116.05650156,136.35234953
-22.27923970,-15.17925524,-14.95636568,-2.16259668,0.68459649,3.08731001

>  <Name>
ligand

>  <RI>
0

>  <Rbt.Current_Directory>
/home/itssahil/PROJECTS/Mol_Feturizer/New_Systems/rnas/4GPW

>  <Rbt.Executable>
rbdock ($Id: //depot/dev/client3/rdock/2013.1/src/exe/rbdock.cxx#4 $)

>  <Rbt.Library>
libRbt.so (2013.1, Build901 2013/11/27)

>  <Rbt.Parameter_File>
/export/apps/rDock/src/rDock_2013.1_src/data/scripts/dock_solv.prm

>  <Rbt.Receptor>
prm/pocket_docking_6.prm

>  <SCORE>
-10.9825

>  <SCORE.INTER>
-7.91156

>  <SCORE.INTER.CONST>
1

>  <SCORE.INTER.POLAR>
0

>  <SCORE.INTER.ROT>
6

>  <SCORE.INTER.SOLV>
15.3339

>  <SCORE.INTER.VDW>
-17.9857

>  <SCORE.INTER.norm>
-0.255212

>  <SCORE.INTRA>
-3.07092

>  <SCORE.INTRA.DIHEDRAL>
-9.17037

>  <SCORE.INTRA.DIHEDRAL.0>
19.2558

>  <SCORE.INTRA.POLAR>
0

>  <SCORE.INTRA.POLAR.0>
0

>  <SCORE.INTRA.REPUL>
0

>  <SCORE.INTRA.REPUL.0>
0

>  <SCORE.INTRA.SOLV>
-2.20489

>  <SCORE.INTRA.SOLV.lig_0>
-64.5929

>  <SCORE.INTRA.VDW>
2.61671

>  <SCORE.INTRA.VDW.0>
-4.40538

>  <SCORE.INTRA.norm>
-0.0990619

>  <SCORE.RESTR>
0

>  <SCORE.RESTR.CAVITY>
0

>  <SCORE.RESTR.norm>
0

>  <SCORE.SYSTEM>
0

>  <SCORE.SYSTEM.CONST>
0

>  <SCORE.SYSTEM.DIHEDRAL>
0

>  <SCORE.SYSTEM.SOLV>
0

>  <SCORE.SYSTEM.norm>
0

>  <SCORE.heavy>
31

>  <SCORE.norm>
-0.354273

>  <RMSD>
7.983

$$$$
ligand
 OpenBabel11021811493D
libRbt.so/2013.1/901 2013/11/27
 31 33  0  0  0  0  0  0  0  0999 V2000
  -22.8652  -11.5351  -14.8940 C   0  0  2  0  0  0  0  0  0  0  0  0
  -23.8035  -12.6010  -14.9050 O   0  0  0  0  0  0  0  0  0  0  0  0
  -23.5986  -16.8090  -15.5571 C   0  0  2  0  0  0  0  0  0  0  0  0
  -23.3771  -18.0527  -16.2215 N   0  0  0  0  0  0  0  0  0  0  0  0
  -20.5297  -17.8948  -15.2106 C   0  0  2  0  0  0  0  0  0  0  0  0
  -23.5461  -10.3271  -14.1262 C   0  0  2  0  0  0  0  0  0  0  0  0
  -23.8943  -10.7540  -12.7630 N   0  0  0  0  0  0  0  0  0  0  0  0
  -24.6675  -15.9774  -16.3913 C   0  0  0  0  0  0  0  0  0  0  0  0
  -19.8305  -18.5024  -13.9496 C   0  0  2  0  0  0  0  0  0  0  0  0
  -20.8274  -18.8098  -13.0039 O   0  0  0  0  0  0  0  0  0  0  0  0
  -24.8301   -9.8492  -14.9133 C   0  0  0  0  0  0  0  0  0  0  0  0
  -24.9212  -14.5899  -15.6464 C   0  0  2  0  0  0  0  0  0  0  0  0
  -25.9176  -13.8020  -16.4038 N   0  0  0  0  0  0  0  0  0  0  0  0
  -18.7897  -17.4556  -13.3716 C   0  0  1  0  0  0  0  0  0  0  0  0
  -18.1079  -18.0221  -12.1532 N   0  0  0  0  0  0  0  0  0  0  0  0
  -24.6128   -9.8503  -16.4834 C   0  0  0  0  0  0  0  0  0  0  0  0
  -23.5553  -13.7916  -15.5663 C   0  0  2  0  0  0  0  0  0  0  0  0
  -17.6670  -17.1392  -14.5060 C   0  0  1  0  0  0  0  0  0  0  0  0
  -16.9317  -18.2818  -14.8946 O   0  0  0  0  0  0  0  0  0  0  0  0
  -23.5338  -10.4476  -17.0382 C   0  0  2  0  0  0  0  0  0  0  0  0
  -22.5320  -11.1055  -16.2557 O   0  0  0  0  0  0  0  0  0  0  0  0
  -22.4975  -14.6418  -14.7501 C   0  0  2  0  0  0  0  0  0  0  0  0
  -21.2581  -13.9164  -14.6900 O   0  0  0  0  0  0  0  0  0  0  0  0
  -18.3848  -16.5590  -15.7698 C   0  0  0  0  0  0  0  0  0  0  0  0
  -19.4812  -17.5133  -16.2395 O   0  0  0  0  0  0  0  0  0  0  0  0
  -23.2903  -10.4667  -18.5466 C   0  0  0  0  0  0  0  0  0  0  0  0
  -23.1748  -11.8370  -18.9603 O   0  0  0  0  0  0  0  0  0  0  0  0
  -22.2432  -16.0180  -15.4839 C   0  0  1  0  0  0  0  0  0  0  0  0
  -21.3039  -16.7529  -14.7183 O   0  0  0  0  0  0  0  0  0  0  0  0
  -16.5929  -16.1151  -14.0811 C   0  0  0  0  0  0  0  0  0  0  0  0
  -18.8931  -18.0231  -10.9021 C   0  0  0  0  0  0  0  0  0  0  0  0
  1  2  1  6  0  0  0
  1  6  1  0  0  0  0
  1 21  1  0  0  0  0
  3  4  1  6  0  0  0
  3  8  1  0  0  0  0
  3 28  1  0  0  0  0
  5  9  1  0  0  0  0
  5 25  1  0  0  0  0
  5 29  1  1  0  0  0
  6  7  1  1  0  0  0
  6 11  1  0  0  0  0
  8 12  1  0  0  0  0
  9 10  1  1  0  0  0
  9 14  1  0  0  0  0
 11 16  1  0  0  0  0
 12 13  1  6  0  0  0
 12 17  1  0  0  0  0
 14 15  1  1  0  0  0
 14 18  1  0  0  0  0
 15 31  1  0  0  0  0
 16 20  1  0  0  0  0
 17  2  1  1  0  0  0
 17 22  1  0  0  0  0
 18 19  1  6  0  0  0
 18 24  1  0  0  0  0
 18 30  1  0  0  0  0
 20 21  1  0  0  0  0
 20 26  1  1  0  0  0
 22 23  1  6  0  0  0
 22 28  1  0  0  0  0
 24 25  1  0  0  0  0
 26 27  1  0  0  0  0
 28 29  1  1  0  0  0
M  END
>  <CHROM.1>
176.30084002,-170.75947129,-76.70460572,-167.18135472,-123.07242275,79.20079220
-21.75241551,-14.76890287,-15.11438253,-2.29271405,0.42660020,-3.11802915

>  <Name>
ligand

>  <RI>
0

>  <Rbt.Current_Directory>
/home/itssahil/PROJECTS/Mol_Feturizer/New_Systems/rnas/4GPW

>  <Rbt.Executable>
rbdock ($Id: //depot/dev/client3/rdock/2013.1/src/exe/rbdock.cxx#4 $)

>  <Rbt.Library>
libRbt.so (2013.1, Build901 2013/11/27)

>  <Rbt.Parameter_File>
/export/apps/rDock/src/rDock_2013.1_src/data/scripts/dock_solv.prm

>  <Rbt.Receptor>
prm/pocket_docking_7.prm

>  <SCORE>
-14.6239

>  <SCORE.INTER>
-7.5733

>  <SCORE.INTER.CONST>
1

>  <SCORE.INTER.POLAR>
0

>  <SCORE.INTER.ROT>
6

>  <SCORE.INTER.SOLV>
13.4317

>  <SCORE.INTER.VDW>
-17.1261

>  <SCORE.INTER.norm>
-0.2443

>  <SCORE.INTRA>
-7.05065

>  <SCORE.INTRA.DIHEDRAL>
-14.4023

>  <SCORE.INTRA.DIHEDRAL.0>
19.2558

>  <SCORE.INTRA.POLAR>
0

>  <SCORE.INTRA.POLAR.0>
0

>  <SCORE.INTRA.REPUL>
0

>  <SCORE.INTRA.REPUL.0>
0

>  <SCORE.INTRA.SOLV>
-2.09801

>  <SCORE.INTRA.SOLV.lig_0>
-64.5929

>  <SCORE.INTRA.VDW>
1.19952

>  <SCORE.INTRA.VDW.0>
-4.40538

>  <SCORE.INTRA.norm>
-0.22744

>  <SCORE.RESTR>
0

>  <SCORE.RESTR.CAVITY>
0

>  <SCORE.RESTR.norm>
0

>  <SCORE.SYSTEM>
0

>  <SCORE.SYSTEM.CONST>
0

>  <SCORE.SYSTEM.DIHEDRAL>
0

>  <SCORE.SYSTEM.SOLV>
0

>  <SCORE.SYSTEM.norm>
0

>  <SCORE.heavy>
31

>  <SCORE.norm>
-0.47174

>  <RMSD>
7.989

$$$$
ligand
 OpenBabel11021811493D
libRbt.so/2013.1/901 2013/11/27
 31 33  0  0  0  0  0  0  0  0999 V2000
  -22.8533  -11.5354  -14.9288 C   0  0  2  0  0  0  0  0  0  0  0  0
  -23.7993  -12.5944  -14.9400 O   0  0  0  0  0  0  0  0  0  0  0  0
  -23.5976  -16.8082  -15.5543 C   0  0  2  0  0  0  0  0  0  0  0  0
  -23.3800  -18.0580  -16.2085 N   0  0  0  0  0  0  0  0  0  0  0  0
  -20.5083  -17.8747  -15.2242 C   0  0  2  0  0  0  0  0  0  0  0  0
  -23.5193  -10.3282  -14.1469 C   0  0  2  0  0  0  0  0  0  0  0  0
  -23.8597  -10.7625  -12.7841 N   0  0  0  0  0  0  0  0  0  0  0  0
  -24.6717  -15.9845  -16.3896 C   0  0  0  0  0  0  0  0  0  0  0  0
  -19.8251  -18.4933  -13.9598 C   0  0  2  0  0  0  0  0  0  0  0  0
  -20.8348  -18.8190  -13.0340 O   0  0  0  0  0  0  0  0  0  0  0  0
  -24.8060   -9.8353  -14.9202 C   0  0  0  0  0  0  0  0  0  0  0  0
  -24.9211  -14.5902  -15.6561 C   0  0  2  0  0  0  0  0  0  0  0  0
  -25.9223  -13.8094  -16.4146 N   0  0  0  0  0  0  0  0  0  0  0  0
  -18.8007  -17.4470  -13.3524 C   0  0  1  0  0  0  0  0  0  0  0  0
  -18.1345  -18.0242  -12.1303 N   0  0  0  0  0  0  0  0  0  0  0  0
  -24.6012   -9.8265  -16.4920 C   0  0  0  0  0  0  0  0  0  0  0  0
  -23.5550  -13.7910  -15.5917 C   0  0  2  0  0  0  0  0  0  0  0  0
  -17.6622  -17.1092  -14.4647 C   0  0  1  0  0  0  0  0  0  0  0  0
  -16.9132  -18.2421  -14.8557 O   0  0  0  0  0  0  0  0  0  0  0  0
  -23.5310  -10.4274  -17.0597 C   0  0  2  0  0  0  0  0  0  0  0  0
  -22.5277  -11.0982  -16.2900 O   0  0  0  0  0  0  0  0  0  0  0  0
  -22.4920  -14.6335  -14.7742 C   0  0  2  0  0  0  0  0  0  0  0  0
  -21.2524  -13.9075  -14.7285 O   0  0  0  0  0  0  0  0  0  0  0  0
  -18.3638  -16.5180  -15.7326 C   0  0  0  0  0  0  0  0  0  0  0  0
  -19.4461  -17.4735  -16.2315 O   0  0  0  0  0  0  0  0  0  0  0  0
  -23.2995  -10.4373  -18.5701 C   0  0  0  0  0  0  0  0  0  0  0  0
  -23.3711  -11.7988  -19.0212 O   0  0  0  0  0  0  0  0  0  0  0  0
  -22.2419  -16.0164  -15.4968 C   0  0  1  0  0  0  0  0  0  0  0  0
  -21.2978  -16.7441  -14.7303 O   0  0  0  0  0  0  0  0  0  0  0  0
  -16.6020  -16.0834  -14.0101 C   0  0  0  0  0  0  0  0  0  0  0  0
  -18.9197  -17.9969  -10.8796 C   0  0  0  0  0  0  0  0  0  0  0  0
  1  2  1  6  0  0  0
  1  6  1  0  0  0  0
  1 21  1  0  0  0  0
  3  4  1  6  0  0  0
  3  8  1  0  0  0  0
  3 28  1  0  0  0  0
  5  9  1  0  0  0  0
  5 25  1  0  0  0  0
  5 29  1  1  0  0  0
  6  7  1  1  0  0  0
  6 11  1  0  0  0  0
  8 12  1  0  0  0  0
  9 10  1  1  0  0  0
  9 14  1  0  0  0  0
 11 16  1  0  0  0  0
 12 13  1  6  0  0  0
 12 17  1  0  0  0  0
 14 15  1  1  0  0  0
 14 18  1  0  0  0  0
 15 31  1  0  0  0  0
 16 20  1  0  0  0  0
 17  2  1  1  0  0  0
 17 22  1  0  0  0  0
 18 19  1  6  0  0  0
 18 24  1  0  0  0  0
 18 30  1  0  0  0  0
 20 21  1  0  0  0  0
 20 26  1  1  0  0  0
 22 23  1  6  0  0  0
 22 28  1  0  0  0  0
 24 25  1  0  0  0  0
 26 27  1  0  0  0  0
 28 29  1  1  0  0  0
M  END
>  <CHROM.1>
177.48487331,-169.93083543,-79.05669494,-168.08862881,-115.68129518,80.40423781
-21.75489525,-14.75652328,-15.12037303,-2.29671560,0.43753765,-3.11701090

>  <Name>
ligand

>  <RI>
0

>  <Rbt.Current_Directory>
/home/itssahil/PROJECTS/Mol_Feturizer/New_Systems/rnas/4GPW

>  <Rbt.Executable>
rbdock ($Id: //depot/dev/client3/rdock/2013.1/src/exe/rbdock.cxx#4 $)

>  <Rbt.Library>
libRbt.so (2013.1, Build901 2013/11/27)

>  <Rbt.Parameter_File>
/export/apps/rDock/src/rDock_2013.1_src/data/scripts/dock_solv.prm

>  <Rbt.Receptor>
prm/pocket_docking_4.prm

>  <SCORE>
-14.5888

>  <SCORE.INTER>
-7.51295

>  <SCORE.INTER.CONST>
1

>  <SCORE.INTER.POLAR>
0

>  <SCORE.INTER.ROT>
6

>  <SCORE.INTER.SOLV>
13.3496

>  <SCORE.INTER.VDW>
-17.0585

>  <SCORE.INTER.norm>
-0.242353

>  <SCORE.INTRA>
-7.07582

>  <SCORE.INTRA.DIHEDRAL>
-14.2001

>  <SCORE.INTRA.DIHEDRAL.0>
19.2558

>  <SCORE.INTRA.POLAR>
0

>  <SCORE.INTRA.POLAR.0>
0

>  <SCORE.INTRA.REPUL>
0

>  <SCORE.INTRA.REPUL.0>
0

>  <SCORE.INTRA.SOLV>
-2.12386

>  <SCORE.INTRA.SOLV.lig_0>
-64.5929

>  <SCORE.INTRA.VDW>
1.08614

>  <SCORE.INTRA.VDW.0>
-4.40538

>  <SCORE.INTRA.norm>
-0.228252

>  <SCORE.RESTR>
0

>  <SCORE.RESTR.CAVITY>
0

>  <SCORE.RESTR.norm>
0

>  <SCORE.SYSTEM>
0

>  <SCORE.SYSTEM.CONST>
0

>  <SCORE.SYSTEM.DIHEDRAL>
0

>  <SCORE.SYSTEM.SOLV>
0

>  <SCORE.SYSTEM.norm>
0

>  <SCORE.heavy>
31

>  <SCORE.norm>
-0.470606

>  <RMSD>
7.993

$$$$
ligand
 OpenBabel11021811493D
libRbt.so/2013.1/901 2013/11/27
 31 33  0  0  0  0  0  0  0  0999 V2000
  -22.7802  -11.8779  -14.8478 C   0  0  2  0  0  0  0  0  0  0  0  0
  -23.6589  -12.9798  -14.6740 O   0  0  0  0  0  0  0  0  0  0  0  0
  -24.0662  -17.1010  -15.6863 C   0  0  2  0  0  0  0  0  0  0  0  0
  -23.9758  -18.3115  -16.4371 N   0  0  0  0  0  0  0  0  0  0  0  0
  -20.5182  -17.9151  -14.8677 C   0  0  2  0  0  0  0  0  0  0  0  0
  -23.1029  -10.8420  -13.6923 C   0  0  2  0  0  0  0  0  0  0  0  0
  -22.9025  -11.4920  -12.3888 N   0  0  0  0  0  0  0  0  0  0  0  0
  -24.8857  -16.0395  -16.5417 C   0  0  0  0  0  0  0  0  0  0  0  0
  -20.3004  -19.1874  -13.9835 C   0  0  2  0  0  0  0  0  0  0  0  0
  -21.2855  -20.1324  -14.3289 O   0  0  0  0  0  0  0  0  0  0  0  0
  -24.5870  -10.3207  -13.8409 C   0  0  0  0  0  0  0  0  0  0  0  0
  -24.9934  -14.6881  -15.7012 C   0  0  2  0  0  0  0  0  0  0  0  0
  -25.7576  -13.6877  -16.4774 N   0  0  0  0  0  0  0  0  0  0  0  0
  -20.3977  -18.7854  -12.4531 C   0  0  1  0  0  0  0  0  0  0  0  0
  -20.1939  -19.9999  -11.5847 N   0  0  0  0  0  0  0  0  0  0  0  0
  -24.9914  -10.0683  -15.3526 C   0  0  0  0  0  0  0  0  0  0  0  0
  -23.5341  -14.1430  -15.4141 C   0  0  2  0  0  0  0  0  0  0  0  0
  -19.2397  -17.6937  -12.1147 C   0  0  1  0  0  0  0  0  0  0  0  0
  -17.9323  -18.1846  -12.3309 O   0  0  0  0  0  0  0  0  0  0  0  0
  -24.2143  -10.5124  -16.3664 C   0  0  2  0  0  0  0  0  0  0  0  0
  -22.9937  -11.2262  -16.1437 O   0  0  0  0  0  0  0  0  0  0  0  0
  -22.7264  -15.2194  -14.5794 C   0  0  2  0  0  0  0  0  0  0  0  0
  -21.4006  -14.7229  -14.3312 O   0  0  0  0  0  0  0  0  0  0  0  0
  -19.4547  -16.4399  -13.0263 C   0  0  0  0  0  0  0  0  0  0  0  0
  -19.4969  -16.8558  -14.4955 O   0  0  0  0  0  0  0  0  0  0  0  0
  -24.5708  -10.2859  -17.8349 C   0  0  0  0  0  0  0  0  0  0  0  0
  -24.9214  -11.5553  -18.4075 O   0  0  0  0  0  0  0  0  0  0  0  0
  -22.6175  -16.5606  -15.4078 C   0  0  1  0  0  0  0  0  0  0  0  0
  -21.9016  -17.4999  -14.6243 O   0  0  0  0  0  0  0  0  0  0  0  0
  -19.2292  -17.1981  -10.6527 C   0  0  0  0  0  0  0  0  0  0  0  0
  -18.9741  -20.7927  -11.8404 C   0  0  0  0  0  0  0  0  0  0  0  0
  1  2  1  1  0  0  0
  1  6  1  0  0  0  0
  1 21  1  0  0  0  0
  3  4  1  6  0  0  0
  3  8  1  0  0  0  0
  3 28  1  0  0  0  0
  5  9  1  0  0  0  0
  5 25  1  0  0  0  0
  5 29  1  1  0  0  0
  6  7  1  1  0  0  0
  6 11  1  0  0  0  0
  8 12  1  0  0  0  0
  9 10  1  6  0  0  0
  9 14  1  0  0  0  0
 11 16  1  0  0  0  0
 12 13  1  6  0  0  0
 12 17  1  0  0  0  0
 14 15  1  1  0  0  0
 14 18  1  0  0  0  0
 15 31  1  0  0  0  0
 16 20  1  0  0  0  0
 17  2  1  1  0  0  0
 17 22  1  0  0  0  0
 18 19  1  6  0  0  0
 18 24  1  0  0  0  0
 18 30  1  0  0  0  0
 20 21  1  0  0  0  0
 20 26  1  1  0  0  0
 22 23  1  6  0  0  0
 22 28  1  0  0  0  0
 24 25  1  0  0  0  0
 26 27  1  0  0  0  0
 28 29  1  1  0  0  0
M  END
>  <CHROM.1>
-171.79983208,-166.60556493,52.96166859,-144.08591387,-110.63841617,135.59845607
-22.27827259,-15.24939927,-14.53264093,-2.34396540,0.79485715,-2.92673892

>  <Name>
ligand

>  <RI>
0

>  <Rbt.Current_Directory>
/home/itssahil/PROJECTS/Mol_Feturizer/New_Systems/rnas/4GPW

>  <Rbt.Executable>
rbdock ($Id: //depot/dev/client3/rdock/2013.1/src/exe/rbdock.cxx#4 $)

>  <Rbt.Library>
libRbt.so (2013.1, Build901 2013/11/27)

>  <Rbt.Parameter_File>
/export/apps/rDock/src/rDock_2013.1_src/data/scripts/dock_solv.prm

>  <Rbt.Receptor>
prm/pocket_docking_5.prm

>  <SCORE>
-10.1141

>  <SCORE.INTER>
-9.47359

>  <SCORE.INTER.CONST>
1

>  <SCORE.INTER.POLAR>
0

>  <SCORE.INTER.ROT>
6

>  <SCORE.INTER.SOLV>
14.6421

>  <SCORE.INTER.VDW>
-18.7964

>  <SCORE.INTER.norm>
-0.3056

>  <SCORE.INTRA>
-0.640489

>  <SCORE.INTRA.DIHEDRAL>
-5.48902

>  <SCORE.INTRA.DIHEDRAL.0>
19.2558

>  <SCORE.INTRA.POLAR>
0

>  <SCORE.INTRA.POLAR.0>
0

>  <SCORE.INTRA.REPUL>
0

>  <SCORE.INTRA.REPUL.0>
0

>  <SCORE.INTRA.SOLV>
0.377765

>  <SCORE.INTRA.SOLV.lig_0>
-64.5929

>  <SCORE.INTRA.VDW>
1.91514

>  <SCORE.INTRA.VDW.0>
-4.40538

>  <SCORE.INTRA.norm>
-0.0206609

>  <SCORE.RESTR>
0

>  <SCORE.RESTR.CAVITY>
0

>  <SCORE.RESTR.norm>
0

>  <SCORE.SYSTEM>
0

>  <SCORE.SYSTEM.CONST>
0

>  <SCORE.SYSTEM.DIHEDRAL>
0

>  <SCORE.SYSTEM.SOLV>
0

>  <SCORE.SYSTEM.norm>
0

>  <SCORE.heavy>
31

>  <SCORE.norm>
-0.326261

>  <RMSD>
8.013

$$$$
ligand
 OpenBabel11021811493D
libRbt.so/2013.1/901 2013/11/27
 31 33  0  0  0  0  0  0  0  0999 V2000
  -22.3282  -10.4203  -14.9704 C   0  0  2  0  0  0  0  0  0  0  0  0
  -23.0676  -10.9040  -13.8587 O   0  0  0  0  0  0  0  0  0  0  0  0
  -20.1011  -13.2674  -11.9121 C   0  0  2  0  0  0  0  0  0  0  0  0
  -19.4803  -14.0958  -10.9294 N   0  0  0  0  0  0  0  0  0  0  0  0
  -19.9809  -15.2852  -14.2237 C   0  0  2  0  0  0  0  0  0  0  0  0
  -23.0218   -9.0736  -15.4369 C   0  0  2  0  0  0  0  0  0  0  0  0
  -23.0132   -8.1132  -14.3236 N   0  0  0  0  0  0  0  0  0  0  0  0
  -20.5463  -11.9087  -11.2151 C   0  0  0  0  0  0  0  0  0  0  0  0
  -20.0391  -16.7639  -14.7319 C   0  0  2  0  0  0  0  0  0  0  0  0
  -21.3715  -17.0516  -15.0849 O   0  0  0  0  0  0  0  0  0  0  0  0
  -24.4983   -9.3705  -15.9148 C   0  0  0  0  0  0  0  0  0  0  0  0
  -21.2342  -10.9790  -12.3135 C   0  0  2  0  0  0  0  0  0  0  0  0
  -21.6515   -9.7061  -11.6866 N   0  0  0  0  0  0  0  0  0  0  0  0
  -19.5231  -17.7323  -13.5877 C   0  0  1  0  0  0  0  0  0  0  0  0
  -19.5751  -19.1630  -14.0578 N   0  0  0  0  0  0  0  0  0  0  0  0
  -24.6075  -10.7189  -16.7409 C   0  0  0  0  0  0  0  0  0  0  0  0
  -22.5005  -11.7275  -12.9012 C   0  0  2  0  0  0  0  0  0  0  0  0
  -17.9840  -17.3520  -13.2222 C   0  0  1  0  0  0  0  0  0  0  0  0
  -17.1006  -17.4967  -14.3158 O   0  0  0  0  0  0  0  0  0  0  0  0
  -23.5830  -11.6009  -16.7758 C   0  0  2  0  0  0  0  0  0  0  0  0
  -22.3514  -11.3766  -16.0816 O   0  0  0  0  0  0  0  0  0  0  0  0
  -22.0422  -13.0861  -13.5735 C   0  0  2  0  0  0  0  0  0  0  0  0
  -23.1967  -13.7646  -14.0954 O   0  0  0  0  0  0  0  0  0  0  0  0
  -17.9386  -15.8630  -12.7428 C   0  0  0  0  0  0  0  0  0  0  0  0
  -18.5640  -14.9497  -13.7955 O   0  0  0  0  0  0  0  0  0  0  0  0
  -23.6514  -12.9090  -17.5626 C   0  0  0  0  0  0  0  0  0  0  0  0
  -23.4755  -13.9932  -16.6376 O   0  0  0  0  0  0  0  0  0  0  0  0
  -21.3593  -14.0106  -12.4890 C   0  0  1  0  0  0  0  0  0  0  0  0
  -20.9526  -15.2073  -13.1304 O   0  0  0  0  0  0  0  0  0  0  0  0
  -17.3567  -18.2107  -12.1031 C   0  0  0  0  0  0  0  0  0  0  0  0
  -20.9086  -19.7978  -14.0833 C   0  0  0  0  0  0  0  0  0  0  0  0
  1  2  1  1  0  0  0
  1  6  1  0  0  0  0
  1 21  1  0  0  0  0
  3  4  1  1  0  0  0
  3  8  1  0  0  0  0
  3 28  1  0  0  0  0
  5  9  1  0  0  0  0
  5 25  1  0  0  0  0
  5 29  1  1  0  0  0
  6  7  1  1  0  0  0
  6 11  1  0  0  0  0
  8 12  1  0  0  0  0
  9 10  1  1  0  0  0
  9 14  1  0  0  0  0
 11 16  1  0  0  0  0
 12 13  1  1  0  0  0
 12 17  1  0  0  0  0
 14 15  1  6  0  0  0
 14 18  1  0  0  0  0
 15 31  1  0  0  0  0
 16 20  1  0  0  0  0
 17  2  1  6  0  0  0
 17 22  1  0  0  0  0
 18 19  1  6  0  0  0
 18 24  1  0  0  0  0
 18 30  1  0  0  0  0
 20 21  1  0  0  0  0
 20 26  1  6  0  0  0
 22 23  1  1  0  0  0
 22 28  1  0  0  0  0
 24 25  1  0  0  0  0
 26 27  1  0  0  0  0
 28 29  1  6  0  0  0
M  END
>  <CHROM.1>
-154.76920453,-171.38893836,-76.48687968,56.34727227,-120.12073323,-56.64658669
-21.19548281,-13.78461157,-14.04044948,-2.42674339,0.84021256,-2.64481190

>  <Name>
ligand

>  <RI>
0

>  <Rbt.Current_Directory>
/home/itssahil/PROJECTS/Mol_Feturizer/New_Systems/rnas/4GPW

>  <Rbt.Executable>
rbdock ($Id: //depot/dev/client3/rdock/2013.1/src/exe/rbdock.cxx#4 $)

>  <Rbt.Library>
libRbt.so (2013.1, Build901 2013/11/27)

>  <Rbt.Parameter_File>
/export/apps/rDock/src/rDock_2013.1_src/data/scripts/dock_solv.prm

>  <Rbt.Receptor>
prm/pocket_docking_4.prm

>  <SCORE>
-7.2161

>  <SCORE.INTER>
-2.79491

>  <SCORE.INTER.CONST>
1

>  <SCORE.INTER.POLAR>
0

>  <SCORE.INTER.ROT>
6

>  <SCORE.INTER.SOLV>
12.479

>  <SCORE.INTER.VDW>
-13.6229

>  <SCORE.INTER.norm>
-0.0901585

>  <SCORE.INTRA>
-4.4887

>  <SCORE.INTRA.DIHEDRAL>
-14.1595

>  <SCORE.INTRA.DIHEDRAL.0>
19.2558

>  <SCORE.INTRA.POLAR>
0

>  <SCORE.INTRA.POLAR.0>
0

>  <SCORE.INTRA.REPUL>
0

>  <SCORE.INTRA.REPUL.0>
0

>  <SCORE.INTRA.SOLV>
1.90346

>  <SCORE.INTRA.SOLV.lig_0>
-64.5929

>  <SCORE.INTRA.VDW>
1.6393

>  <SCORE.INTRA.VDW.0>
-4.40538

>  <SCORE.INTRA.norm>
-0.144797

>  <SCORE.RESTR>
0.0675109

>  <SCORE.RESTR.CAVITY>
0.0675109

>  <SCORE.RESTR.norm>
0.00217777

>  <SCORE.SYSTEM>
0

>  <SCORE.SYSTEM.CONST>
0

>  <SCORE.SYSTEM.DIHEDRAL>
0

>  <SCORE.SYSTEM.SOLV>
0

>  <SCORE.SYSTEM.norm>
0

>  <SCORE.heavy>
31

>  <SCORE.norm>
-0.232777

>  <RMSD>
8.025

$$$$
ligand
 OpenBabel11021811493D
libRbt.so/2013.1/901 2013/11/27
 31 33  0  0  0  0  0  0  0  0999 V2000
  -22.7907  -11.6108  -14.8077 C   0  0  2  0  0  0  0  0  0  0  0  0
  -23.6244  -12.7456  -14.6243 O   0  0  0  0  0  0  0  0  0  0  0  0
  -23.6096  -16.9351  -15.4133 C   0  0  2  0  0  0  0  0  0  0  0  0
  -23.4392  -18.1656  -16.1162 N   0  0  0  0  0  0  0  0  0  0  0  0
  -20.4979  -18.0906  -15.1031 C   0  0  2  0  0  0  0  0  0  0  0  0
  -23.1910  -10.5575  -13.6929 C   0  0  2  0  0  0  0  0  0  0  0  0
  -22.9986  -11.1600  -12.3656 N   0  0  0  0  0  0  0  0  0  0  0  0
  -24.6288  -16.0272  -16.2299 C   0  0  0  0  0  0  0  0  0  0  0  0
  -19.7644  -18.7277  -13.8767 C   0  0  2  0  0  0  0  0  0  0  0  0
  -20.7409  -19.1319  -12.9462 O   0  0  0  0  0  0  0  0  0  0  0  0
  -24.6920  -10.1080  -13.8965 C   0  0  0  0  0  0  0  0  0  0  0  0
  -24.8256  -14.6543  -15.4420 C   0  0  2  0  0  0  0  0  0  0  0  0
  -25.7754  -13.7959  -16.1826 N   0  0  0  0  0  0  0  0  0  0  0  0
  -18.7731  -17.6627  -13.2472 C   0  0  1  0  0  0  0  0  0  0  0  0
  -18.0591  -18.2575  -12.0610 N   0  0  0  0  0  0  0  0  0  0  0  0
  -25.0648   -9.9178  -15.4253 C   0  0  0  0  0  0  0  0  0  0  0  0
  -23.4248  -13.9244  -15.3221 C   0  0  2  0  0  0  0  0  0  0  0  0
  -17.6722  -17.2337  -14.3658 C   0  0  1  0  0  0  0  0  0  0  0  0
  -16.8839  -18.3175  -14.8146 O   0  0  0  0  0  0  0  0  0  0  0  0
  -24.2408  -10.3555  -16.4042 C   0  0  2  0  0  0  0  0  0  0  0  0
  -22.9966  -11.0069  -16.1279 O   0  0  0  0  0  0  0  0  0  0  0  0
  -22.4174  -14.8497  -14.5243 C   0  0  2  0  0  0  0  0  0  0  0  0
  -21.1461  -14.1861  -14.4281 O   0  0  0  0  0  0  0  0  0  0  0  0
  -18.4229  -16.6246  -15.5964 C   0  0  0  0  0  0  0  0  0  0  0  0
  -19.4737  -17.6057  -16.1129 O   0  0  0  0  0  0  0  0  0  0  0  0
  -24.5659  -10.1877  -17.8879 C   0  0  0  0  0  0  0  0  0  0  0  0
  -24.8086  -11.4912  -18.4393 O   0  0  0  0  0  0  0  0  0  0  0  0
  -22.2195  -16.2117  -15.3007 C   0  0  1  0  0  0  0  0  0  0  0  0
  -21.3244  -17.0148  -14.5508 O   0  0  0  0  0  0  0  0  0  0  0  0
  -16.6472  -16.1817  -13.8904 C   0  0  0  0  0  0  0  0  0  0  0  0
  -18.8179  -18.3068  -10.7947 C   0  0  0  0  0  0  0  0  0  0  0  0
  1  2  1  6  0  0  0
  1  6  1  0  0  0  0
  1 21  1  0  0  0  0
  3  4  1  6  0  0  0
  3  8  1  0  0  0  0
  3 28  1  0  0  0  0
  5  9  1  0  0  0  0
  5 25  1  0  0  0  0
  5 29  1  1  0  0  0
  6  7  1  1  0  0  0
  6 11  1  0  0  0  0
  8 12  1  0  0  0  0
  9 10  1  1  0  0  0
  9 14  1  0  0  0  0
 11 16  1  0  0  0  0
 12 13  1  6  0  0  0
 12 17  1  0  0  0  0
 14 15  1  1  0  0  0
 14 18  1  0  0  0  0
 15 31  1  0  0  0  0
 16 20  1  0  0  0  0
 17  2  1  1  0  0  0
 17 22  1  0  0  0  0
 18 19  1  6  0  0  0
 18 24  1  0  0  0  0
 18 30  1  0  0  0  0
 20 21  1  0  0  0  0
 20 26  1  6  0  0  0
 22 23  1  6  0  0  0
 22 28  1  0  0  0  0
 24 25  1  0  0  0  0
 26 27  1  0  0  0  0
 28 29  1  1  0  0  0
M  END
>  <CHROM.1>
-171.56998537,-176.43089637,-79.31285394,-152.55717044,-112.16850565,85.66681090
-21.82666679,-14.88377554,-14.84442259,-2.38706184,0.55170298,-2.92157601

>  <Name>
ligand

>  <RI>
0

>  <Rbt.Current_Directory>
/home/itssahil/PROJECTS/Mol_Feturizer/New_Systems/rnas/4GPW

>  <Rbt.Executable>
rbdock ($Id: //depot/dev/client3/rdock/2013.1/src/exe/rbdock.cxx#4 $)

>  <Rbt.Library>
libRbt.so (2013.1, Build901 2013/11/27)

>  <Rbt.Parameter_File>
/export/apps/rDock/src/rDock_2013.1_src/data/scripts/dock_solv.prm

>  <Rbt.Receptor>
prm/pocket_docking_5.prm

>  <SCORE>
-13.6366

>  <SCORE.INTER>
-8.4883

>  <SCORE.INTER.CONST>
1

>  <SCORE.INTER.POLAR>
0

>  <SCORE.INTER.ROT>
6

>  <SCORE.INTER.SOLV>
13.8983

>  <SCORE.INTER.VDW>
-17.8916

>  <SCORE.INTER.norm>
-0.273816

>  <SCORE.INTRA>
-5.14835

>  <SCORE.INTRA.DIHEDRAL>
-10.8911

>  <SCORE.INTRA.DIHEDRAL.0>
19.2558

>  <SCORE.INTRA.POLAR>
0

>  <SCORE.INTRA.POLAR.0>
0

>  <SCORE.INTRA.REPUL>
0

>  <SCORE.INTRA.REPUL.0>
0

>  <SCORE.INTRA.SOLV>
-0.572542

>  <SCORE.INTRA.SOLV.lig_0>
-64.5929

>  <SCORE.INTRA.VDW>
0.583454

>  <SCORE.INTRA.VDW.0>
-4.40538

>  <SCORE.INTRA.norm>
-0.166076

>  <SCORE.RESTR>
0

>  <SCORE.RESTR.CAVITY>
0

>  <SCORE.RESTR.norm>
0

>  <SCORE.SYSTEM>
0

>  <SCORE.SYSTEM.CONST>
0

>  <SCORE.SYSTEM.DIHEDRAL>
0

>  <SCORE.SYSTEM.SOLV>
0

>  <SCORE.SYSTEM.norm>
0

>  <SCORE.heavy>
31

>  <SCORE.norm>
-0.439892

>  <RMSD>
8.033

$$$$
ligand
 OpenBabel11021811493D
libRbt.so/2013.1/901 2013/11/27
 31 33  0  0  0  0  0  0  0  0999 V2000
  -22.8979  -11.5761  -14.8191 C   0  0  2  0  0  0  0  0  0  0  0  0
  -23.8255  -12.6504  -14.8626 O   0  0  0  0  0  0  0  0  0  0  0  0
  -23.6115  -16.8468  -15.5830 C   0  0  2  0  0  0  0  0  0  0  0  0
  -23.3653  -18.0794  -16.2594 N   0  0  0  0  0  0  0  0  0  0  0  0
  -20.5625  -17.9526  -15.1150 C   0  0  2  0  0  0  0  0  0  0  0  0
  -23.5962  -10.3937  -14.0273 C   0  0  2  0  0  0  0  0  0  0  0  0
  -23.9498  -10.8568  -12.6774 N   0  0  0  0  0  0  0  0  0  0  0  0
  -24.6357  -15.9936  -16.4507 C   0  0  0  0  0  0  0  0  0  0  0  0
  -19.8731  -18.5477  -13.8427 C   0  0  2  0  0  0  0  0  0  0  0  0
  -20.8789  -18.8661  -12.9102 O   0  0  0  0  0  0  0  0  0  0  0  0
  -24.8792   -9.9094  -14.8120 C   0  0  0  0  0  0  0  0  0  0  0  0
  -24.9171  -14.6186  -15.6928 C   0  0  2  0  0  0  0  0  0  0  0  0
  -25.8728  -13.8109  -16.4812 N   0  0  0  0  0  0  0  0  0  0  0  0
  -18.8544  -17.4858  -13.2530 C   0  0  1  0  0  0  0  0  0  0  0  0
  -18.1823  -18.0402  -12.0236 N   0  0  0  0  0  0  0  0  0  0  0  0
  -24.6509   -9.8703  -16.3800 C   0  0  0  0  0  0  0  0  0  0  0  0
  -23.5526  -13.8301  -15.5337 C   0  0  2  0  0  0  0  0  0  0  0  0
  -17.7202  -17.1573  -14.3724 C   0  0  1  0  0  0  0  0  0  0  0  0
  -16.9645  -18.2909  -14.7477 O   0  0  0  0  0  0  0  0  0  0  0  0
  -23.5621  -10.4434  -16.9412 C   0  0  2  0  0  0  0  0  0  0  0  0
  -22.5594  -11.1103  -16.1675 O   0  0  0  0  0  0  0  0  0  0  0  0
  -22.5387  -14.7014  -14.6848 C   0  0  2  0  0  0  0  0  0  0  0  0
  -21.2998  -13.9847  -14.5530 O   0  0  0  0  0  0  0  0  0  0  0  0
  -18.4279  -16.5897  -15.6476 C   0  0  0  0  0  0  0  0  0  0  0  0
  -19.5049  -17.5596  -16.1301 O   0  0  0  0  0  0  0  0  0  0  0  0
  -23.3077  -10.4236  -18.4478 C   0  0  0  0  0  0  0  0  0  0  0  0
  -22.0489   -9.7717  -18.6769 O   0  0  0  0  0  0  0  0  0  0  0  0
  -22.2571  -16.0653  -15.4314 C   0  0  1  0  0  0  0  0  0  0  0  0
  -21.3586  -16.8199  -14.6365 O   0  0  0  0  0  0  0  0  0  0  0  0
  -16.6659  -16.1179  -13.9352 C   0  0  0  0  0  0  0  0  0  0  0  0
  -18.9723  -18.0160  -10.7758 C   0  0  0  0  0  0  0  0  0  0  0  0
  1  2  1  6  0  0  0
  1  6  1  0  0  0  0
  1 21  1  0  0  0  0
  3  4  1  6  0  0  0
  3  8  1  0  0  0  0
  3 28  1  0  0  0  0
  5  9  1  0  0  0  0
  5 25  1  0  0  0  0
  5 29  1  1  0  0  0
  6  7  1  1  0  0  0
  6 11  1  0  0  0  0
  8 12  1  0  0  0  0
  9 10  1  1  0  0  0
  9 14  1  0  0  0  0
 11 16  1  0  0  0  0
 12 13  1  6  0  0  0
 12 17  1  0  0  0  0
 14 15  1  1  0  0  0
 14 18  1  0  0  0  0
 15 31  1  0  0  0  0
 16 20  1  0  0  0  0
 17  2  1  1  0  0  0
 17 22  1  0  0  0  0
 18 19  1  6  0  0  0
 18 24  1  0  0  0  0
 18 30  1  0  0  0  0
 20 21  1  0  0  0  0
 20 26  1  1  0  0  0
 22 23  1  6  0  0  0
 22 28  1  0  0  0  0
 24 25  1  0  0  0  0
 26 27  1  0  0  0  0
 28 29  1  1  0  0  0
M  END
>  <CHROM.1>
177.30178506,-173.43247885,-78.25687188,-165.39624857,121.03048777,79.54677375
-21.74261129,-14.72598860,-15.03091174,-2.19950869,0.25536863,2.99737279

>  <Name>
ligand

>  <RI>
0

>  <Rbt.Current_Directory>
/home/itssahil/PROJECTS/Mol_Feturizer/New_Systems/rnas/4GPW

>  <Rbt.Executable>
rbdock ($Id: //depot/dev/client3/rdock/2013.1/src/exe/rbdock.cxx#4 $)

>  <Rbt.Library>
libRbt.so (2013.1, Build901 2013/11/27)

>  <Rbt.Parameter_File>
/export/apps/rDock/src/rDock_2013.1_src/data/scripts/dock_solv.prm

>  <Rbt.Receptor>
prm/pocket_docking_5.prm

>  <SCORE>
-14.596

>  <SCORE.INTER>
-7.52405

>  <SCORE.INTER.CONST>
1

>  <SCORE.INTER.POLAR>
0

>  <SCORE.INTER.ROT>
6

>  <SCORE.INTER.SOLV>
14.3165

>  <SCORE.INTER.VDW>
-17.3882

>  <SCORE.INTER.norm>
-0.242711

>  <SCORE.INTRA>
-7.07191

>  <SCORE.INTRA.DIHEDRAL>
-14.3326

>  <SCORE.INTRA.DIHEDRAL.0>
19.2558

>  <SCORE.INTRA.POLAR>
0

>  <SCORE.INTRA.POLAR.0>
0

>  <SCORE.INTRA.REPUL>
0

>  <SCORE.INTRA.REPUL.0>
0

>  <SCORE.INTRA.SOLV>
-2.24933

>  <SCORE.INTRA.SOLV.lig_0>
-64.5929

>  <SCORE.INTRA.VDW>
1.21905

>  <SCORE.INTRA.VDW.0>
-4.40538

>  <SCORE.INTRA.norm>
-0.228126

>  <SCORE.RESTR>
0

>  <SCORE.RESTR.CAVITY>
0

>  <SCORE.RESTR.norm>
0

>  <SCORE.SYSTEM>
0

>  <SCORE.SYSTEM.CONST>
0

>  <SCORE.SYSTEM.DIHEDRAL>
0

>  <SCORE.SYSTEM.SOLV>
0

>  <SCORE.SYSTEM.norm>
0

>  <SCORE.heavy>
31

>  <SCORE.norm>
-0.470837

>  <RMSD>
8.038

$$$$
ligand
 OpenBabel11021811493D
libRbt.so/2013.1/901 2013/11/27
 31 33  0  0  0  0  0  0  0  0999 V2000
  -24.9566  -12.8170  -16.5764 C   0  0  2  0  0  0  0  0  0  0  0  0
  -23.7528  -13.2110  -15.9343 O   0  0  0  0  0  0  0  0  0  0  0  0
  -22.1114  -17.0604  -15.1205 C   0  0  2  0  0  0  0  0  0  0  0  0
  -21.5196  -18.3396  -15.3457 N   0  0  0  0  0  0  0  0  0  0  0  0
  -19.6979  -15.3259  -13.6037 C   0  0  2  0  0  0  0  0  0  0  0  0
  -24.5582  -12.2653  -18.0079 C   0  0  2  0  0  0  0  0  0  0  0  0
  -23.8664  -13.3228  -18.7595 N   0  0  0  0  0  0  0  0  0  0  0  0
  -23.4785  -16.9899  -15.9303 C   0  0  0  0  0  0  0  0  0  0  0  0
  -18.3322  -15.8781  -13.0762 C   0  0  2  0  0  0  0  0  0  0  0  0
  -17.3559  -15.6419  -14.0630 O   0  0  0  0  0  0  0  0  0  0  0  0
  -23.6389  -10.9897  -17.8524 C   0  0  0  0  0  0  0  0  0  0  0  0
  -24.1445  -15.5633  -15.6742 C   0  0  2  0  0  0  0  0  0  0  0  0
  -25.4218  -15.4785  -16.4150 N   0  0  0  0  0  0  0  0  0  0  0  0
  -18.4770  -17.4261  -12.7665 C   0  0  1  0  0  0  0  0  0  0  0  0
  -17.1693  -17.9774  -12.2601 N   0  0  0  0  0  0  0  0  0  0  0  0
  -24.1123  -10.0427  -16.6727 C   0  0  0  0  0  0  0  0  0  0  0  0
  -23.1550  -14.4350  -16.1810 C   0  0  2  0  0  0  0  0  0  0  0  0
  -19.6165  -17.6363  -11.6243 C   0  0  1  0  0  0  0  0  0  0  0  0
  -19.3041  -16.9977  -10.4029 O   0  0  0  0  0  0  0  0  0  0  0  0
  -25.0342  -10.4554  -15.7736 C   0  0  2  0  0  0  0  0  0  0  0  0
  -25.6350  -11.7535  -15.8290 O   0  0  0  0  0  0  0  0  0  0  0  0
  -21.7931  -14.5321  -15.3787 C   0  0  2  0  0  0  0  0  0  0  0  0
  -20.8967  -13.5124  -15.8504 O   0  0  0  0  0  0  0  0  0  0  0  0
  -20.9685  -17.0540  -12.1556 C   0  0  0  0  0  0  0  0  0  0  0  0
  -20.7859  -15.5984  -12.5812 O   0  0  0  0  0  0  0  0  0  0  0  0
  -25.5160   -9.5699  -14.6253 C   0  0  0  0  0  0  0  0  0  0  0  0
  -25.0447  -10.1421  -13.3955 O   0  0  0  0  0  0  0  0  0  0  0  0
  -21.1296  -15.9442  -15.6288 C   0  0  1  0  0  0  0  0  0  0  0  0
  -19.9237  -15.9968  -14.8860 O   0  0  0  0  0  0  0  0  0  0  0  0
  -19.8751  -19.1077  -11.2356 C   0  0  0  0  0  0  0  0  0  0  0  0
  -17.0070  -19.4442  -12.3217 C   0  0  0  0  0  0  0  0  0  0  0  0
  1  2  1  1  0  0  0
  1  6  1  0  0  0  0
  1 21  1  0  0  0  0
  3  4  1  6  0  0  0
  3  8  1  0  0  0  0
  3 28  1  0  0  0  0
  5  9  1  0  0  0  0
  5 25  1  0  0  0  0
  5 29  1  6  0  0  0
  6  7  1  1  0  0  0
  6 11  1  0  0  0  0
  8 12  1  0  0  0  0
  9 10  1  6  0  0  0
  9 14  1  0  0  0  0
 11 16  1  0  0  0  0
 12 13  1  6  0  0  0
 12 17  1  0  0  0  0
 14 15  1  1  0  0  0
 14 18  1  0  0  0  0
 15 31  1  0  0  0  0
 16 20  1  0  0  0  0
 17  2  1  1  0  0  0
 17 22  1  0  0  0  0
 18 19  1  1  0  0  0
 18 24  1  0  0  0  0
 18 30  1  0  0  0  0
 20 21  1  0  0  0  0
 20 26  1  6  0  0  0
 22 23  1  6  0  0  0
 22 28  1  0  0  0  0
 24 25  1  0  0  0  0
 26 27  1  0  0  0  0
 28 29  1  1  0  0  0
M  END
>  <CHROM.1>
-81.72398917,170.53379528,-161.72288013,-64.47238909,-112.05821042,-85.99545301
-21.85780666,-14.83941816,-14.67293411,2.76739723,-0.81409203,0.50502077

>  <Name>
ligand

>  <RI>
0

>  <Rbt.Current_Directory>
/home/itssahil/PROJECTS/Mol_Feturizer/New_Systems/rnas/4GPW

>  <Rbt.Executable>
rbdock ($Id: //depot/dev/client3/rdock/2013.1/src/exe/rbdock.cxx#4 $)

>  <Rbt.Library>
libRbt.so (2013.1, Build901 2013/11/27)

>  <Rbt.Parameter_File>
/export/apps/rDock/src/rDock_2013.1_src/data/scripts/dock_solv.prm

>  <Rbt.Receptor>
prm/pocket_docking_3.prm

>  <SCORE>
-11.5813

>  <SCORE.INTER>
-10.2901

>  <SCORE.INTER.CONST>
1

>  <SCORE.INTER.POLAR>
0

>  <SCORE.INTER.ROT>
6

>  <SCORE.INTER.SOLV>
14.4605

>  <SCORE.INTER.VDW>
-19.2803

>  <SCORE.INTER.norm>
-0.331939

>  <SCORE.INTRA>
-1.34265

>  <SCORE.INTRA.DIHEDRAL>
-11.7613

>  <SCORE.INTRA.DIHEDRAL.0>
19.2558

>  <SCORE.INTRA.POLAR>
0

>  <SCORE.INTRA.POLAR.0>
0

>  <SCORE.INTRA.REPUL>
0

>  <SCORE.INTRA.REPUL.0>
0

>  <SCORE.INTRA.SOLV>
1.84254

>  <SCORE.INTRA.SOLV.lig_0>
-64.5929

>  <SCORE.INTRA.VDW>
3.61671

>  <SCORE.INTRA.VDW.0>
-4.40538

>  <SCORE.INTRA.norm>
-0.0433114

>  <SCORE.RESTR>
0.0515075

>  <SCORE.RESTR.CAVITY>
0.0515075

>  <SCORE.RESTR.norm>
0.00166153

>  <SCORE.SYSTEM>
0

>  <SCORE.SYSTEM.CONST>
0

>  <SCORE.SYSTEM.DIHEDRAL>
0

>  <SCORE.SYSTEM.SOLV>
0

>  <SCORE.SYSTEM.norm>
0

>  <SCORE.heavy>
31

>  <SCORE.norm>
-0.373589

>  <RMSD>
8.040

$$$$
ligand
 OpenBabel11021811493D
libRbt.so/2013.1/901 2013/11/27
 31 33  0  0  0  0  0  0  0  0999 V2000
  -22.8983  -13.1465  -16.6725 C   0  0  2  0  0  0  0  0  0  0  0  0
  -23.2234  -14.2918  -15.8983 O   0  0  0  0  0  0  0  0  0  0  0  0
  -20.8601  -17.5113  -14.4070 C   0  0  2  0  0  0  0  0  0  0  0  0
  -20.0779  -18.7051  -14.3936 N   0  0  0  0  0  0  0  0  0  0  0  0
  -17.7449  -17.0395  -14.6590 C   0  0  2  0  0  0  0  0  0  0  0  0
  -23.8327  -11.9685  -16.1710 C   0  0  2  0  0  0  0  0  0  0  0  0
  -23.5946  -11.7373  -14.7386 N   0  0  0  0  0  0  0  0  0  0  0  0
  -22.2911  -17.8551  -15.0104 C   0  0  0  0  0  0  0  0  0  0  0  0
  -16.5731  -16.2023  -14.0473 C   0  0  2  0  0  0  0  0  0  0  0  0
  -17.0137  -15.6655  -12.8224 O   0  0  0  0  0  0  0  0  0  0  0  0
  -25.3459  -12.3352  -16.4397 C   0  0  0  0  0  0  0  0  0  0  0  0
  -23.1688  -16.5232  -15.0198 C   0  0  2  0  0  0  0  0  0  0  0  0
  -24.5074  -16.8223  -15.5730 N   0  0  0  0  0  0  0  0  0  0  0  0
  -16.1600  -15.0579  -15.0637 C   0  0  1  0  0  0  0  0  0  0  0  0
  -15.0337  -14.2376  -14.4900 N   0  0  0  0  0  0  0  0  0  0  0  0
  -25.5552  -13.0571  -17.8352 C   0  0  0  0  0  0  0  0  0  0  0  0
  -22.4472  -15.4378  -15.9198 C   0  0  2  0  0  0  0  0  0  0  0  0
  -15.6630  -15.7367  -16.4564 C   0  0  1  0  0  0  0  0  0  0  0  0
  -14.5357  -16.5738  -16.2958 O   0  0  0  0  0  0  0  0  0  0  0  0
  -24.5018  -13.5156  -18.5486 C   0  0  2  0  0  0  0  0  0  0  0  0
  -23.1501  -13.3789  -18.0981 O   0  0  0  0  0  0  0  0  0  0  0  0
  -21.0174  -15.1220  -15.3165 C   0  0  2  0  0  0  0  0  0  0  0  0
  -20.3645  -14.1443  -16.1433 O   0  0  0  0  0  0  0  0  0  0  0  0
  -16.8358  -16.5924  -17.0405 C   0  0  0  0  0  0  0  0  0  0  0  0
  -17.3202  -17.6032  -16.0027 O   0  0  0  0  0  0  0  0  0  0  0  0
  -24.6648  -14.2141  -19.8979 C   0  0  0  0  0  0  0  0  0  0  0  0
  -24.2986  -15.5926  -19.7312 O   0  0  0  0  0  0  0  0  0  0  0  0
  -20.1440  -16.4389  -15.3045 C   0  0  1  0  0  0  0  0  0  0  0  0
  -18.8808  -16.1189  -14.7474 O   0  0  0  0  0  0  0  0  0  0  0  0
  -15.2440  -14.7305  -17.5496 C   0  0  0  0  0  0  0  0  0  0  0  0
  -15.4068  -12.9443  -13.8818 C   0  0  0  0  0  0  0  0  0  0  0  0
  1  2  1  1  0  0  0
  1  6  1  0  0  0  0
  1 21  1  0  0  0  0
  3  4  1  6  0  0  0
  3  8  1  0  0  0  0
  3 28  1  0  0  0  0
  5  9  1  0  0  0  0
  5 25  1  0  0  0  0
  5 29  1  6  0  0  0
  6  7  1  1  0  0  0
  6 11  1  0  0  0  0
  8 12  1  0  0  0  0
  9 10  1  1  0  0  0
  9 14  1  0  0  0  0
 11 16  1  0  0  0  0
 12 13  1  6  0  0  0
 12 17  1  0  0  0  0
 14 15  1  1  0  0  0
 14 18  1  0  0  0  0
 15 31  1  0  0  0  0
 16 20  1  0  0  0  0
 17  2  1  1  0  0  0
 17 22  1  0  0  0  0
 18 19  1  1  0  0  0
 18 24  1  0  0  0  0
 18 30  1  0  0  0  0
 20 21  1  0  0  0  0
 20 26  1  6  0  0  0
 22 23  1  6  0  0  0
 22 28  1  0  0  0  0
 24 25  1  0  0  0  0
 26 27  1  0  0  0  0
 28 29  1  1  0  0  0
M  END
>  <CHROM.1>
-169.03591549,176.94297006,-100.23388540,-176.19062103,-111.71355065,66.92975531
-20.36580174,-15.16871905,-15.95757037,-2.84973974,0.16062781,2.78668585

>  <Name>
ligand

>  <RI>
0

>  <Rbt.Current_Directory>
/home/itssahil/PROJECTS/Mol_Feturizer/New_Systems/rnas/4GPW

>  <Rbt.Executable>
rbdock ($Id: //depot/dev/client3/rdock/2013.1/src/exe/rbdock.cxx#4 $)

>  <Rbt.Library>
libRbt.so (2013.1, Build901 2013/11/27)

>  <Rbt.Parameter_File>
/export/apps/rDock/src/rDock_2013.1_src/data/scripts/dock_solv.prm

>  <Rbt.Receptor>
prm/pocket_docking_6.prm

>  <SCORE>
-11.4229

>  <SCORE.INTER>
-3.67786

>  <SCORE.INTER.CONST>
1

>  <SCORE.INTER.POLAR>
0

>  <SCORE.INTER.ROT>
6

>  <SCORE.INTER.SOLV>
12.5851

>  <SCORE.INTER.VDW>
-14.2469

>  <SCORE.INTER.norm>
-0.118641

>  <SCORE.INTRA>
-7.74502

>  <SCORE.INTRA.DIHEDRAL>
-15.635

>  <SCORE.INTRA.DIHEDRAL.0>
19.2558

>  <SCORE.INTRA.POLAR>
0

>  <SCORE.INTRA.POLAR.0>
0

>  <SCORE.INTRA.REPUL>
0

>  <SCORE.INTRA.REPUL.0>
0

>  <SCORE.INTRA.SOLV>
-2.3959

>  <SCORE.INTRA.SOLV.lig_0>
-64.5929

>  <SCORE.INTRA.VDW>
1.27043

>  <SCORE.INTRA.VDW.0>
-4.40538

>  <SCORE.INTRA.norm>
-0.249839

>  <SCORE.RESTR>
0

>  <SCORE.RESTR.CAVITY>
0

>  <SCORE.RESTR.norm>
0

>  <SCORE.SYSTEM>
0

>  <SCORE.SYSTEM.CONST>
0

>  <SCORE.SYSTEM.DIHEDRAL>
0

>  <SCORE.SYSTEM.SOLV>
0

>  <SCORE.SYSTEM.norm>
0

>  <SCORE.heavy>
31

>  <SCORE.norm>
-0.36848

>  <RMSD>
8.042

$$$$
ligand
 OpenBabel11021811493D
libRbt.so/2013.1/901 2013/11/27
 31 33  0  0  0  0  0  0  0  0999 V2000
  -22.6606  -13.0227  -15.1084 C   0  0  2  0  0  0  0  0  0  0  0  0
  -22.4227  -12.7982  -16.4903 O   0  0  0  0  0  0  0  0  0  0  0  0
  -19.6448  -10.3603  -18.6150 C   0  0  2  0  0  0  0  0  0  0  0  0
  -19.0076   -9.1909  -19.1287 N   0  0  0  0  0  0  0  0  0  0  0  0
  -17.2590   -9.2902  -16.8682 C   0  0  2  0  0  0  0  0  0  0  0  0
  -23.5262  -14.3458  -14.9969 C   0  0  2  0  0  0  0  0  0  0  0  0
  -22.7868  -15.4614  -15.6056 N   0  0  0  0  0  0  0  0  0  0  0  0
  -21.1586  -10.3630  -19.1031 C   0  0  0  0  0  0  0  0  0  0  0  0
  -15.9340   -9.7728  -16.1902 C   0  0  2  0  0  0  0  0  0  0  0  0
  -15.6072  -11.0354  -16.7211 O   0  0  0  0  0  0  0  0  0  0  0  0
  -24.9193  -14.1351  -15.7120 C   0  0  0  0  0  0  0  0  0  0  0  0
  -21.8702  -11.6728  -18.5355 C   0  0  2  0  0  0  0  0  0  0  0  0
  -23.2797  -11.6978  -18.9828 N   0  0  0  0  0  0  0  0  0  0  0  0
  -16.1436   -9.8434  -14.6204 C   0  0  1  0  0  0  0  0  0  0  0  0
  -14.8778  -10.3103  -13.9495 N   0  0  0  0  0  0  0  0  0  0  0  0
  -25.5234  -12.6937  -15.4477 C   0  0  0  0  0  0  0  0  0  0  0  0
  -21.8106  -11.6459  -16.9528 C   0  0  2  0  0  0  0  0  0  0  0  0
  -16.5193   -8.3605  -14.0662 C   0  0  1  0  0  0  0  0  0  0  0  0
  -15.5065   -7.4043  -14.3055 O   0  0  0  0  0  0  0  0  0  0  0  0
  -24.7746  -11.7143  -14.8921 C   0  0  2  0  0  0  0  0  0  0  0  0
  -23.4095  -11.9130  -14.5103 O   0  0  0  0  0  0  0  0  0  0  0  0
  -20.2979  -11.6236  -16.4847 C   0  0  2  0  0  0  0  0  0  0  0  0
  -20.2513  -11.5889  -15.0486 O   0  0  0  0  0  0  0  0  0  0  0  0
  -17.8300   -7.8809  -14.7740 C   0  0  0  0  0  0  0  0  0  0  0  0
  -17.6656   -7.9466  -16.2912 O   0  0  0  0  0  0  0  0  0  0  0  0
  -25.3234  -10.3143  -14.6206 C   0  0  0  0  0  0  0  0  0  0  0  0
  -25.1081  -10.0145  -13.2328 O   0  0  0  0  0  0  0  0  0  0  0  0
  -19.5882  -10.3278  -17.0453 C   0  0  1  0  0  0  0  0  0  0  0  0
  -18.2374  -10.3510  -16.6171 O   0  0  0  0  0  0  0  0  0  0  0  0
  -16.7690   -8.2858  -12.5447 C   0  0  0  0  0  0  0  0  0  0  0  0
  -14.7814  -11.7560  -13.6623 C   0  0  0  0  0  0  0  0  0  0  0  0
  1  2  1  6  0  0  0
  1  6  1  0  0  0  0
  1 21  1  0  0  0  0
  3  4  1  6  0  0  0
  3  8  1  0  0  0  0
  3 28  1  0  0  0  0
  5  9  1  0  0  0  0
  5 25  1  0  0  0  0
  5 29  1  1  0  0  0
  6  7  1  6  0  0  0
  6 11  1  0  0  0  0
  8 12  1  0  0  0  0
  9 10  1  6  0  0  0
  9 14  1  0  0  0  0
 11 16  1  0  0  0  0
 12 13  1  1  0  0  0
 12 17  1  0  0  0  0
 14 15  1  1  0  0  0
 14 18  1  0  0  0  0
 15 31  1  0  0  0  0
 16 20  1  0  0  0  0
 17  2  1  1  0  0  0
 17 22  1  0  0  0  0
 18 19  1  6  0  0  0
 18 24  1  0  0  0  0
 18 30  1  0  0  0  0
 20 21  1  0  0  0  0
 20 26  1  1  0  0  0
 22 23  1  1  0  0  0
 22 28  1  0  0  0  0
 24 25  1  0  0  0  0
 26 27  1  0  0  0  0
 28 29  1  6  0  0  0
M  END
>  <CHROM.1>
173.18224768,179.39837360,-95.09422002,-173.48239071,125.45029980,65.13241306
-20.12394647,-10.85546325,-15.80841473,3.04303718,-0.38386989,-1.64607927

>  <Name>
ligand

>  <RI>
0

>  <Rbt.Current_Directory>
/home/itssahil/PROJECTS/Mol_Feturizer/New_Systems/rnas/4GPW

>  <Rbt.Executable>
rbdock ($Id: //depot/dev/client3/rdock/2013.1/src/exe/rbdock.cxx#4 $)

>  <Rbt.Library>
libRbt.so (2013.1, Build901 2013/11/27)

>  <Rbt.Parameter_File>
/export/apps/rDock/src/rDock_2013.1_src/data/scripts/dock_solv.prm

>  <Rbt.Receptor>
prm/pocket_docking_8.prm

>  <SCORE>
-11.556

>  <SCORE.INTER>
-3.61947

>  <SCORE.INTER.CONST>
1

>  <SCORE.INTER.POLAR>
0

>  <SCORE.INTER.ROT>
6

>  <SCORE.INTER.SOLV>
7.92538

>  <SCORE.INTER.VDW>
-12.6548

>  <SCORE.INTER.norm>
-0.116757

>  <SCORE.INTRA>
-7.93651

>  <SCORE.INTRA.DIHEDRAL>
-16.1959

>  <SCORE.INTRA.DIHEDRAL.0>
19.2558

>  <SCORE.INTRA.POLAR>
0

>  <SCORE.INTRA.POLAR.0>
0

>  <SCORE.INTRA.REPUL>
0

>  <SCORE.INTRA.REPUL.0>
0

>  <SCORE.INTRA.SOLV>
-2.31674

>  <SCORE.INTRA.SOLV.lig_0>
-64.5929

>  <SCORE.INTRA.VDW>
1.31981

>  <SCORE.INTRA.VDW.0>
-4.40538

>  <SCORE.INTRA.norm>
-0.256016

>  <SCORE.RESTR>
0

>  <SCORE.RESTR.CAVITY>
0

>  <SCORE.RESTR.norm>
0

>  <SCORE.SYSTEM>
0

>  <SCORE.SYSTEM.CONST>
0

>  <SCORE.SYSTEM.DIHEDRAL>
0

>  <SCORE.SYSTEM.SOLV>
0

>  <SCORE.SYSTEM.norm>
0

>  <SCORE.heavy>
31

>  <SCORE.norm>
-0.372773

>  <RMSD>
8.045

$$$$
ligand
 OpenBabel11021811493D
libRbt.so/2013.1/901 2013/11/27
 31 33  0  0  0  0  0  0  0  0999 V2000
  -22.8631  -11.5581  -14.9493 C   0  0  2  0  0  0  0  0  0  0  0  0
  -23.7916  -12.6321  -14.9850 O   0  0  0  0  0  0  0  0  0  0  0  0
  -23.5655  -16.8358  -15.6577 C   0  0  2  0  0  0  0  0  0  0  0  0
  -23.3183  -18.0752  -16.3211 N   0  0  0  0  0  0  0  0  0  0  0  0
  -20.4869  -17.9049  -15.2015 C   0  0  2  0  0  0  0  0  0  0  0  0
  -23.5571  -10.3726  -14.1585 C   0  0  2  0  0  0  0  0  0  0  0  0
  -23.9049  -10.8309  -12.8055 N   0  0  0  0  0  0  0  0  0  0  0  0
  -24.5977  -15.9965  -16.5296 C   0  0  0  0  0  0  0  0  0  0  0  0
  -19.8163  -18.5091  -13.9235 C   0  0  2  0  0  0  0  0  0  0  0  0
  -20.8370  -18.8534  -13.0166 O   0  0  0  0  0  0  0  0  0  0  0  0
  -24.8434   -9.8902  -14.9392 C   0  0  0  0  0  0  0  0  0  0  0  0
  -24.8802  -14.6139  -15.7861 C   0  0  2  0  0  0  0  0  0  0  0  0
  -25.8433  -13.8191  -16.5786 N   0  0  0  0  0  0  0  0  0  0  0  0
  -18.8240  -17.4427  -13.2980 C   0  0  1  0  0  0  0  0  0  0  0  0
  -18.1703  -18.0057  -12.0626 N   0  0  0  0  0  0  0  0  0  0  0  0
  -24.6220   -9.8568  -16.5083 C   0  0  0  0  0  0  0  0  0  0  0  0
  -23.5178  -13.8184  -15.6438 C   0  0  2  0  0  0  0  0  0  0  0  0
  -17.6712  -17.0840  -14.3888 C   0  0  1  0  0  0  0  0  0  0  0  0
  -16.8932  -18.2025  -14.7639 O   0  0  0  0  0  0  0  0  0  0  0  0
  -23.5362  -10.4325  -17.0724 C   0  0  2  0  0  0  0  0  0  0  0  0
  -22.5303  -11.0973  -16.3009 O   0  0  0  0  0  0  0  0  0  0  0  0
  -22.4959  -14.6760  -14.7905 C   0  0  2  0  0  0  0  0  0  0  0  0
  -21.2591  -13.9532  -14.6739 O   0  0  0  0  0  0  0  0  0  0  0  0
  -18.3597  -16.5076  -15.6705 C   0  0  0  0  0  0  0  0  0  0  0  0
  -19.4137  -17.4842  -16.1888 O   0  0  0  0  0  0  0  0  0  0  0  0
  -23.2885  -10.4181  -18.5801 C   0  0  0  0  0  0  0  0  0  0  0  0
  -22.0325   -9.7637  -18.8175 O   0  0  0  0  0  0  0  0  0  0  0  0
  -22.2132  -16.0475  -15.5228 C   0  0  1  0  0  0  0  0  0  0  0  0
  -21.3074  -16.7893  -14.7241 O   0  0  0  0  0  0  0  0  0  0  0  0
  -16.6398  -16.0375  -13.9153 C   0  0  0  0  0  0  0  0  0  0  0  0
  -18.9709  -17.9707  -10.8219 C   0  0  0  0  0  0  0  0  0  0  0  0
  1  2  1  6  0  0  0
  1  6  1  0  0  0  0
  1 21  1  0  0  0  0
  3  4  1  6  0  0  0
  3  8  1  0  0  0  0
  3 28  1  0  0  0  0
  5  9  1  0  0  0  0
  5 25  1  0  0  0  0
  5 29  1  1  0  0  0
  6  7  1  1  0  0  0
  6 11  1  0  0  0  0
  8 12  1  0  0  0  0
  9 10  1  1  0  0  0
  9 14  1  0  0  0  0
 11 16  1  0  0  0  0
 12 13  1  6  0  0  0
 12 17  1  0  0  0  0
 14 15  1  1  0  0  0
 14 18  1  0  0  0  0
 15 31  1  0  0  0  0
 16 20  1  0  0  0  0
 17  2  1  1  0  0  0
 17 22  1  0  0  0  0
 18 19  1  6  0  0  0
 18 24  1  0  0  0  0
 18 30  1  0  0  0  0
 20 21  1  0  0  0  0
 20 26  1  1  0  0  0
 22 23  1  6  0  0  0
 22 28  1  0  0  0  0
 24 25  1  0  0  0  0
 26 27  1  0  0  0  0
 28 29  1  1  0  0  0
M  END
>  <CHROM.1>
177.84807657,-172.48325257,-80.09710290,-165.95151645,120.83924442,81.02634841
-21.70249358,-14.69660742,-15.11889486,-2.20261499,0.26297831,2.98982427

>  <Name>
ligand

>  <RI>
0

>  <Rbt.Current_Directory>
/home/itssahil/PROJECTS/Mol_Feturizer/New_Systems/rnas/4GPW

>  <Rbt.Executable>
rbdock ($Id: //depot/dev/client3/rdock/2013.1/src/exe/rbdock.cxx#4 $)

>  <Rbt.Library>
libRbt.so (2013.1, Build901 2013/11/27)

>  <Rbt.Parameter_File>
/export/apps/rDock/src/rDock_2013.1_src/data/scripts/dock_solv.prm

>  <Rbt.Receptor>
prm/pocket_docking_8.prm

>  <SCORE>
-14.7206

>  <SCORE.INTER>
-7.66786

>  <SCORE.INTER.CONST>
1

>  <SCORE.INTER.POLAR>
0

>  <SCORE.INTER.ROT>
6

>  <SCORE.INTER.SOLV>
13.683

>  <SCORE.INTER.VDW>
-17.2729

>  <SCORE.INTER.norm>
-0.24735

>  <SCORE.INTRA>
-7.05277

>  <SCORE.INTRA.DIHEDRAL>
-14.0612

>  <SCORE.INTRA.DIHEDRAL.0>
19.2558

>  <SCORE.INTRA.POLAR>
0

>  <SCORE.INTRA.POLAR.0>
0

>  <SCORE.INTRA.REPUL>
0

>  <SCORE.INTRA.REPUL.0>
0

>  <SCORE.INTRA.SOLV>
-2.3086

>  <SCORE.INTRA.SOLV.lig_0>
-64.5929

>  <SCORE.INTRA.VDW>
1.13215

>  <SCORE.INTRA.VDW.0>
-4.40538

>  <SCORE.INTRA.norm>
-0.227509

>  <SCORE.RESTR>
0

>  <SCORE.RESTR.CAVITY>
0

>  <SCORE.RESTR.norm>
0

>  <SCORE.SYSTEM>
0

>  <SCORE.SYSTEM.CONST>
0

>  <SCORE.SYSTEM.DIHEDRAL>
0

>  <SCORE.SYSTEM.SOLV>
0

>  <SCORE.SYSTEM.norm>
0

>  <SCORE.heavy>
31

>  <SCORE.norm>
-0.474859

>  <RMSD>
8.046

$$$$
ligand
 OpenBabel11021811493D
libRbt.so/2013.1/901 2013/11/27
 31 33  0  0  0  0  0  0  0  0999 V2000
  -23.1405  -11.7711  -15.1562 C   0  0  2  0  0  0  0  0  0  0  0  0
  -23.5981  -12.3215  -13.9298 O   0  0  0  0  0  0  0  0  0  0  0  0
  -19.9485  -12.4863  -11.7324 C   0  0  2  0  0  0  0  0  0  0  0  0
  -19.0415  -12.7295  -10.6575 N   0  0  0  0  0  0  0  0  0  0  0  0
  -18.5241  -15.3162  -11.8377 C   0  0  2  0  0  0  0  0  0  0  0  0
  -24.3712  -11.0189  -15.8135 C   0  0  2  0  0  0  0  0  0  0  0  0
  -24.8460   -9.9728  -14.8960 N   0  0  0  0  0  0  0  0  0  0  0  0
  -21.0835  -11.4977  -11.2180 C   0  0  0  0  0  0  0  0  0  0  0  0
  -17.5645  -16.0375  -12.8412 C   0  0  2  0  0  0  0  0  0  0  0  0
  -17.1253  -15.0880  -13.7837 O   0  0  0  0  0  0  0  0  0  0  0  0
  -25.5215  -12.0539  -16.1331 C   0  0  0  0  0  0  0  0  0  0  0  0
  -22.0942  -11.2196  -12.4203 C   0  0  2  0  0  0  0  0  0  0  0  0
  -23.1562  -10.2968  -11.9643 N   0  0  0  0  0  0  0  0  0  0  0  0
  -18.3386  -17.2305  -13.5416 C   0  0  1  0  0  0  0  0  0  0  0  0
  -17.4307  -17.9360  -14.5155 N   0  0  0  0  0  0  0  0  0  0  0  0
  -24.9617  -13.4275  -16.6920 C   0  0  0  0  0  0  0  0  0  0  0  0
  -22.7377  -12.5922  -12.8795 C   0  0  2  0  0  0  0  0  0  0  0  0
  -18.8214  -18.2912  -12.4062 C   0  0  1  0  0  0  0  0  0  0  0  0
  -17.7479  -18.8616  -11.6854 O   0  0  0  0  0  0  0  0  0  0  0  0
  -23.6427  -13.7195  -16.6324 C   0  0  2  0  0  0  0  0  0  0  0  0
  -22.6806  -12.8201  -16.0716 O   0  0  0  0  0  0  0  0  0  0  0  0
  -21.5930  -13.5707  -13.3696 C   0  0  2  0  0  0  0  0  0  0  0  0
  -22.1826  -14.8172  -13.7751 O   0  0  0  0  0  0  0  0  0  0  0  0
  -19.7570  -17.5482  -11.3953 C   0  0  0  0  0  0  0  0  0  0  0  0
  -19.0506  -16.3188  -10.8271 O   0  0  0  0  0  0  0  0  0  0  0  0
  -23.0669  -15.0318  -17.1627 C   0  0  0  0  0  0  0  0  0  0  0  0
  -22.8506  -15.9059  -16.0441 O   0  0  0  0  0  0  0  0  0  0  0  0
  -20.5885  -13.8489  -12.1819 C   0  0  1  0  0  0  0  0  0  0  0  0
  -19.5749  -14.7152  -12.6623 O   0  0  0  0  0  0  0  0  0  0  0  0
  -19.6083  -19.5029  -12.9499 C   0  0  0  0  0  0  0  0  0  0  0  0
  -17.2468  -17.2875  -15.8298 C   0  0  0  0  0  0  0  0  0  0  0  0
  1  2  1  1  0  0  0
  1  6  1  0  0  0  0
  1 21  1  0  0  0  0
  3  4  1  1  0  0  0
  3  8  1  0  0  0  0
  3 28  1  0  0  0  0
  5  9  1  0  0  0  0
  5 25  1  0  0  0  0
  5 29  1  6  0  0  0
  6  7  1  1  0  0  0
  6 11  1  0  0  0  0
  8 12  1  0  0  0  0
  9 10  1  6  0  0  0
  9 14  1  0  0  0  0
 11 16  1  0  0  0  0
 12 13  1  1  0  0  0
 12 17  1  0  0  0  0
 14 15  1  6  0  0  0
 14 18  1  0  0  0  0
 15 31  1  0  0  0  0
 16 20  1  0  0  0  0
 17  2  1  6  0  0  0
 17 22  1  0  0  0  0
 18 19  1  1  0  0  0
 18 24  1  0  0  0  0
 18 30  1  0  0  0  0
 20 21  1  0  0  0  0
 20 26  1  6  0  0  0
 22 23  1  1  0  0  0
 22 28  1  0  0  0  0
 24 25  1  0  0  0  0
 26 27  1  0  0  0  0
 28 29  1  6  0  0  0
M  END
>  <CHROM.1>
-155.05354405,-173.32914148,-79.66712336,62.15922877,-100.52131847,67.93974636
-21.00889726,-14.41096463,-13.65672272,2.82678842,-0.74849372,0.73183818

>  <Name>
ligand

>  <RI>
0

>  <Rbt.Current_Directory>
/home/itssahil/PROJECTS/Mol_Feturizer/New_Systems/rnas/4GPW

>  <Rbt.Executable>
rbdock ($Id: //depot/dev/client3/rdock/2013.1/src/exe/rbdock.cxx#4 $)

>  <Rbt.Library>
libRbt.so (2013.1, Build901 2013/11/27)

>  <Rbt.Parameter_File>
/export/apps/rDock/src/rDock_2013.1_src/data/scripts/dock_solv.prm

>  <Rbt.Receptor>
prm/pocket_docking_6.prm

>  <SCORE>
-10.3601

>  <SCORE.INTER>
-5.32664

>  <SCORE.INTER.CONST>
1

>  <SCORE.INTER.POLAR>
0

>  <SCORE.INTER.ROT>
6

>  <SCORE.INTER.SOLV>
13.5948

>  <SCORE.INTER.VDW>
-15.6827

>  <SCORE.INTER.norm>
-0.171827

>  <SCORE.INTRA>
-5.03341

>  <SCORE.INTRA.DIHEDRAL>
-13.6083

>  <SCORE.INTRA.DIHEDRAL.0>
19.2558

>  <SCORE.INTRA.POLAR>
0

>  <SCORE.INTRA.POLAR.0>
0

>  <SCORE.INTRA.REPUL>
0

>  <SCORE.INTRA.REPUL.0>
0

>  <SCORE.INTRA.SOLV>
0.408392

>  <SCORE.INTRA.SOLV.lig_0>
-64.5929

>  <SCORE.INTRA.VDW>
1.56654

>  <SCORE.INTRA.VDW.0>
-4.40538

>  <SCORE.INTRA.norm>
-0.162368

>  <SCORE.RESTR>
0

>  <SCORE.RESTR.CAVITY>
0

>  <SCORE.RESTR.norm>
0

>  <SCORE.SYSTEM>
0

>  <SCORE.SYSTEM.CONST>
0

>  <SCORE.SYSTEM.DIHEDRAL>
0

>  <SCORE.SYSTEM.SOLV>
0

>  <SCORE.SYSTEM.norm>
0

>  <SCORE.heavy>
31

>  <SCORE.norm>
-0.334195

>  <RMSD>
8.050

$$$$
ligand
 OpenBabel11021811493D
libRbt.so/2013.1/901 2013/11/27
 31 33  0  0  0  0  0  0  0  0999 V2000
  -22.8364  -11.4946  -14.9371 C   0  0  2  0  0  0  0  0  0  0  0  0
  -23.7732  -12.5619  -14.9302 O   0  0  0  0  0  0  0  0  0  0  0  0
  -23.5854  -16.7767  -15.5420 C   0  0  2  0  0  0  0  0  0  0  0  0
  -23.3662  -18.0276  -16.1935 N   0  0  0  0  0  0  0  0  0  0  0  0
  -20.5299  -17.8792  -15.1648 C   0  0  2  0  0  0  0  0  0  0  0  0
  -23.5105  -10.2823  -14.1701 C   0  0  2  0  0  0  0  0  0  0  0  0
  -23.8427  -10.7003  -12.8001 N   0  0  0  0  0  0  0  0  0  0  0  0
  -24.6451  -15.9476  -16.3903 C   0  0  0  0  0  0  0  0  0  0  0  0
  -19.8484  -18.4824  -13.8920 C   0  0  2  0  0  0  0  0  0  0  0  0
  -20.8568  -18.7697  -12.9522 O   0  0  0  0  0  0  0  0  0  0  0  0
  -24.8039   -9.8117  -14.9459 C   0  0  0  0  0  0  0  0  0  0  0  0
  -24.8963  -14.5520  -15.6598 C   0  0  2  0  0  0  0  0  0  0  0  0
  -25.8843  -13.7663  -16.4304 N   0  0  0  0  0  0  0  0  0  0  0  0
  -18.8010  -17.4417  -13.3149 C   0  0  1  0  0  0  0  0  0  0  0  0
  -18.1361  -18.0040  -12.0852 N   0  0  0  0  0  0  0  0  0  0  0  0
  -24.6043   -9.8233  -16.5183 C   0  0  0  0  0  0  0  0  0  0  0  0
  -23.5270  -13.7598  -15.5789 C   0  0  2  0  0  0  0  0  0  0  0  0
  -17.6651  -17.1486  -14.4423 C   0  0  1  0  0  0  0  0  0  0  0  0
  -16.9392  -18.3029  -14.8137 O   0  0  0  0  0  0  0  0  0  0  0  0
  -23.5307  -10.4228  -17.0811 C   0  0  2  0  0  0  0  0  0  0  0  0
  -22.5191  -11.0739  -16.3054 O   0  0  0  0  0  0  0  0  0  0  0  0
  -22.4784  -14.6075  -14.7486 C   0  0  2  0  0  0  0  0  0  0  0  0
  -21.2357  -13.8878  -14.6878 O   0  0  0  0  0  0  0  0  0  0  0  0
  -18.3654  -16.5725  -15.7178 C   0  0  0  0  0  0  0  0  0  0  0  0
  -19.4683  -17.5191  -16.1881 O   0  0  0  0  0  0  0  0  0  0  0  0
  -23.3041  -10.4520  -18.5920 C   0  0  0  0  0  0  0  0  0  0  0  0
  -22.0243   -9.8585  -18.8605 O   0  0  0  0  0  0  0  0  0  0  0  0
  -22.2265  -15.9917  -15.4681 C   0  0  1  0  0  0  0  0  0  0  0  0
  -21.2955  -16.7242  -14.6901 O   0  0  0  0  0  0  0  0  0  0  0  0
  -16.5834  -16.1323  -14.0177 C   0  0  0  0  0  0  0  0  0  0  0  0
  -18.9410  -18.0072  -10.8467 C   0  0  0  0  0  0  0  0  0  0  0  0
  1  2  1  6  0  0  0
  1  6  1  0  0  0  0
  1 21  1  0  0  0  0
  3  4  1  6  0  0  0
  3  8  1  0  0  0  0
  3 28  1  0  0  0  0
  5  9  1  0  0  0  0
  5 25  1  0  0  0  0
  5 29  1  1  0  0  0
  6  7  1  1  0  0  0
  6 11  1  0  0  0  0
  8 12  1  0  0  0  0
  9 10  1  1  0  0  0
  9 14  1  0  0  0  0
 11 16  1  0  0  0  0
 12 13  1  6  0  0  0
 12 17  1  0  0  0  0
 14 15  1  1  0  0  0
 14 18  1  0  0  0  0
 15 31  1  0  0  0  0
 16 20  1  0  0  0  0
 17  2  1  1  0  0  0
 17 22  1  0  0  0  0
 18 19  1  6  0  0  0
 18 24  1  0  0  0  0
 18 30  1  0  0  0  0
 20 21  1  0  0  0  0
 20 26  1  1  0  0  0
 22 23  1  6  0  0  0
 22 28  1  0  0  0  0
 24 25  1  0  0  0  0
 26 27  1  0  0  0  0
 28 29  1  1  0  0  0
M  END
>  <CHROM.1>
176.72002318,-170.31234693,-75.61545120,-166.40499859,122.92772115,78.82631140
-21.70165575,-14.67520315,-15.09966868,-2.19041297,0.20409540,2.95337731

>  <Name>
ligand

>  <RI>
0

>  <Rbt.Current_Directory>
/home/itssahil/PROJECTS/Mol_Feturizer/New_Systems/rnas/4GPW

>  <Rbt.Executable>
rbdock ($Id: //depot/dev/client3/rdock/2013.1/src/exe/rbdock.cxx#4 $)

>  <Rbt.Library>
libRbt.so (2013.1, Build901 2013/11/27)

>  <Rbt.Parameter_File>
/export/apps/rDock/src/rDock_2013.1_src/data/scripts/dock_solv.prm

>  <Rbt.Receptor>
prm/pocket_docking_4.prm

>  <SCORE>
-14.748

>  <SCORE.INTER>
-7.86541

>  <SCORE.INTER.CONST>
1

>  <SCORE.INTER.POLAR>
0

>  <SCORE.INTER.ROT>
6

>  <SCORE.INTER.SOLV>
13.96

>  <SCORE.INTER.VDW>
-17.4969

>  <SCORE.INTER.norm>
-0.253723

>  <SCORE.INTRA>
-6.88255

>  <SCORE.INTRA.DIHEDRAL>
-14.3696

>  <SCORE.INTRA.DIHEDRAL.0>
19.2558

>  <SCORE.INTRA.POLAR>
0

>  <SCORE.INTRA.POLAR.0>
0

>  <SCORE.INTRA.REPUL>
0

>  <SCORE.INTRA.REPUL.0>
0

>  <SCORE.INTRA.SOLV>
-2.24816

>  <SCORE.INTRA.SOLV.lig_0>
-64.5929

>  <SCORE.INTRA.VDW>
1.42632

>  <SCORE.INTRA.VDW.0>
-4.40538

>  <SCORE.INTRA.norm>
-0.222018

>  <SCORE.RESTR>
0

>  <SCORE.RESTR.CAVITY>
0

>  <SCORE.RESTR.norm>
0

>  <SCORE.SYSTEM>
0

>  <SCORE.SYSTEM.CONST>
0

>  <SCORE.SYSTEM.DIHEDRAL>
0

>  <SCORE.SYSTEM.SOLV>
0

>  <SCORE.SYSTEM.norm>
0

>  <SCORE.heavy>
31

>  <SCORE.norm>
-0.475741

>  <RMSD>
8.053

$$$$
ligand
 OpenBabel11021811493D
libRbt.so/2013.1/901 2013/11/27
 31 33  0  0  0  0  0  0  0  0999 V2000
  -23.1679  -10.9083  -15.0921 C   0  0  2  0  0  0  0  0  0  0  0  0
  -23.7177  -11.9903  -14.3548 O   0  0  0  0  0  0  0  0  0  0  0  0
  -20.7348  -12.4938  -11.3510 C   0  0  2  0  0  0  0  0  0  0  0  0
  -20.0838  -12.9793  -10.1771 N   0  0  0  0  0  0  0  0  0  0  0  0
  -18.7106  -14.7271  -11.8096 C   0  0  2  0  0  0  0  0  0  0  0  0
  -24.3411  -10.3021  -15.9687 C   0  0  2  0  0  0  0  0  0  0  0  0
  -25.4268   -9.8558  -15.0833 N   0  0  0  0  0  0  0  0  0  0  0  0
  -22.1196  -11.8389  -10.9229 C   0  0  0  0  0  0  0  0  0  0  0  0
  -17.5756  -15.3005  -12.7214 C   0  0  2  0  0  0  0  0  0  0  0  0
  -17.1818  -14.2876  -13.6166 O   0  0  0  0  0  0  0  0  0  0  0  0
  -24.8587  -11.3879  -16.9933 C   0  0  0  0  0  0  0  0  0  0  0  0
  -22.8453  -11.2898  -12.2329 C   0  0  2  0  0  0  0  0  0  0  0  0
  -24.1347  -10.6710  -11.8561 N   0  0  0  0  0  0  0  0  0  0  0  0
  -18.1168  -16.5749  -13.4935 C   0  0  1  0  0  0  0  0  0  0  0  0
  -17.0377  -17.1399  -14.3806 N   0  0  0  0  0  0  0  0  0  0  0  0
  -23.6784  -12.2418  -17.6180 C   0  0  0  0  0  0  0  0  0  0  0  0
  -23.1003  -12.4983  -13.2247 C   0  0  2  0  0  0  0  0  0  0  0  0
  -18.5567  -17.7067  -12.4105 C   0  0  1  0  0  0  0  0  0  0  0  0
  -17.4876  -18.1408  -11.5945 O   0  0  0  0  0  0  0  0  0  0  0  0
  -22.4286  -12.1854  -17.1046 C   0  0  2  0  0  0  0  0  0  0  0  0
  -22.0948  -11.3618  -15.9824 O   0  0  0  0  0  0  0  0  0  0  0  0
  -21.7138  -13.1505  -13.6249 C   0  0  2  0  0  0  0  0  0  0  0  0
  -21.9531  -14.2521  -14.5165 O   0  0  0  0  0  0  0  0  0  0  0  0
  -19.6714  -17.1087  -11.4892 C   0  0  0  0  0  0  0  0  0  0  0  0
  -19.1898  -15.8053  -10.8548 O   0  0  0  0  0  0  0  0  0  0  0  0
  -21.2662  -12.9921  -17.6815 C   0  0  0  0  0  0  0  0  0  0  0  0
  -21.4044  -14.3504  -17.2365 O   0  0  0  0  0  0  0  0  0  0  0  0
  -20.9905  -13.6956  -12.3300 C   0  0  1  0  0  0  0  0  0  0  0  0
  -19.7517  -14.2581  -12.7269 O   0  0  0  0  0  0  0  0  0  0  0  0
  -19.1224  -19.0035  -13.0279 C   0  0  0  0  0  0  0  0  0  0  0  0
  -16.9529  -16.5846  -15.7467 C   0  0  0  0  0  0  0  0  0  0  0  0
  1  2  1  6  0  0  0
  1  6  1  0  0  0  0
  1 21  1  0  0  0  0
  3  4  1  1  0  0  0
  3  8  1  0  0  0  0
  3 28  1  0  0  0  0
  5  9  1  0  0  0  0
  5 25  1  0  0  0  0
  5 29  1  6  0  0  0
  6  7  1  1  0  0  0
  6 11  1  0  0  0  0
  8 12  1  0  0  0  0
  9 10  1  6  0  0  0
  9 14  1  0  0  0  0
 11 16  1  0  0  0  0
 12 13  1  1  0  0  0
 12 17  1  0  0  0  0
 14 15  1  6  0  0  0
 14 18  1  0  0  0  0
 15 31  1  0  0  0  0
 16 20  1  0  0  0  0
 17  2  1  6  0  0  0
 17 22  1  0  0  0  0
 18 19  1  1  0  0  0
 18 24  1  0  0  0  0
 18 30  1  0  0  0  0
 20 21  1  0  0  0  0
 20 26  1  6  0  0  0
 22 23  1  6  0  0  0
 22 28  1  0  0  0  0
 24 25  1  0  0  0  0
 26 27  1  0  0  0  0
 28 29  1  6  0  0  0
M  END
>  <CHROM.1>
-161.11931982,178.04401283,-88.35587975,53.59163776,-77.24270274,54.02504090
-20.91723632,-13.81577781,-13.79953374,2.89553105,0.79851984,-1.68980240

>  <Name>
ligand

>  <RI>
0

>  <Rbt.Current_Directory>
/home/itssahil/PROJECTS/Mol_Feturizer/New_Systems/rnas/4GPW

>  <Rbt.Executable>
rbdock ($Id: //depot/dev/client3/rdock/2013.1/src/exe/rbdock.cxx#4 $)

>  <Rbt.Library>
libRbt.so (2013.1, Build901 2013/11/27)

>  <Rbt.Parameter_File>
/export/apps/rDock/src/rDock_2013.1_src/data/scripts/dock_solv.prm

>  <Rbt.Receptor>
prm/pocket_docking_5.prm

>  <SCORE>
-9.81958

>  <SCORE.INTER>
-4.92875

>  <SCORE.INTER.CONST>
1

>  <SCORE.INTER.POLAR>
0

>  <SCORE.INTER.ROT>
6

>  <SCORE.INTER.SOLV>
16.9403

>  <SCORE.INTER.VDW>
-16.5326

>  <SCORE.INTER.norm>
-0.158992

>  <SCORE.INTRA>
-4.89083

>  <SCORE.INTRA.DIHEDRAL>
-13.4431

>  <SCORE.INTRA.DIHEDRAL.0>
19.2558

>  <SCORE.INTRA.POLAR>
0

>  <SCORE.INTRA.POLAR.0>
0

>  <SCORE.INTRA.REPUL>
0

>  <SCORE.INTRA.REPUL.0>
0

>  <SCORE.INTRA.SOLV>
0.604

>  <SCORE.INTRA.SOLV.lig_0>
-64.5929

>  <SCORE.INTRA.VDW>
1.52871

>  <SCORE.INTRA.VDW.0>
-4.40538

>  <SCORE.INTRA.norm>
-0.157769

>  <SCORE.RESTR>
0

>  <SCORE.RESTR.CAVITY>
0

>  <SCORE.RESTR.norm>
0

>  <SCORE.SYSTEM>
0

>  <SCORE.SYSTEM.CONST>
0

>  <SCORE.SYSTEM.DIHEDRAL>
0

>  <SCORE.SYSTEM.SOLV>
0

>  <SCORE.SYSTEM.norm>
0

>  <SCORE.heavy>
31

>  <SCORE.norm>
-0.316761

>  <RMSD>
8.059

$$$$
ligand
 OpenBabel11021811493D
libRbt.so/2013.1/901 2013/11/27
 31 33  0  0  0  0  0  0  0  0999 V2000
  -23.2145  -11.6103  -14.6201 C   0  0  2  0  0  0  0  0  0  0  0  0
  -23.4675  -11.8576  -13.2448 O   0  0  0  0  0  0  0  0  0  0  0  0
  -19.4985  -12.2933  -11.7507 C   0  0  2  0  0  0  0  0  0  0  0  0
  -18.4305  -12.5745  -10.8465 N   0  0  0  0  0  0  0  0  0  0  0  0
  -18.4587  -15.3317  -11.8826 C   0  0  2  0  0  0  0  0  0  0  0  0
  -24.4851  -10.8579  -15.1963 C   0  0  2  0  0  0  0  0  0  0  0  0
  -24.6867   -9.6067  -14.4509 N   0  0  0  0  0  0  0  0  0  0  0  0
  -20.4162  -11.1640  -11.1084 C   0  0  0  0  0  0  0  0  0  0  0  0
  -17.6117  -16.0024  -13.0145 C   0  0  2  0  0  0  0  0  0  0  0  0
  -17.1760  -14.9902  -13.8910 O   0  0  0  0  0  0  0  0  0  0  0  0
  -25.7550  -11.7916  -15.0858 C   0  0  0  0  0  0  0  0  0  0  0  0
  -21.6065  -10.8437  -12.1209 C   0  0  2  0  0  0  0  0  0  0  0  0
  -22.4702   -9.7906  -11.5445 N   0  0  0  0  0  0  0  0  0  0  0  0
  -18.5014  -17.0758  -13.7691 C   0  0  1  0  0  0  0  0  0  0  0  0
  -17.7029  -17.7307  -14.8665 N   0  0  0  0  0  0  0  0  0  0  0  0
  -25.4268  -13.3032  -15.4320 C   0  0  0  0  0  0  0  0  0  0  0  0
  -22.4524  -12.1625  -12.3542 C   0  0  2  0  0  0  0  0  0  0  0  0
  -18.9752  -18.2151  -12.7086 C   0  0  1  0  0  0  0  0  0  0  0  0
  -17.8950  -18.9123  -12.1217 O   0  0  0  0  0  0  0  0  0  0  0  0
  -24.1491  -13.7322  -15.5430 C   0  0  2  0  0  0  0  0  0  0  0  0
  -23.0273  -12.8622  -15.3602 O   0  0  0  0  0  0  0  0  0  0  0  0
  -21.5196  -13.2814  -12.9752 C   0  0  2  0  0  0  0  0  0  0  0  0
  -22.2907  -14.4778  -13.1749 O   0  0  0  0  0  0  0  0  0  0  0  0
  -19.7964  -17.5250  -11.5691 C   0  0  0  0  0  0  0  0  0  0  0  0
  -18.9805  -16.3986  -10.9375 O   0  0  0  0  0  0  0  0  0  0  0  0
  -23.7948  -15.1805  -15.8774 C   0  0  0  0  0  0  0  0  0  0  0  0
  -23.0865  -15.1871  -17.1266 O   0  0  0  0  0  0  0  0  0  0  0  0
  -20.3382  -13.6019  -11.9759 C   0  0  1  0  0  0  0  0  0  0  0  0
  -19.5211  -14.5951  -12.5714 O   0  0  0  0  0  0  0  0  0  0  0  0
  -19.8686  -19.3218  -13.3086 C   0  0  0  0  0  0  0  0  0  0  0  0
  -17.6813  -17.0337  -16.1686 C   0  0  0  0  0  0  0  0  0  0  0  0
  1  2  1  1  0  0  0
  1  6  1  0  0  0  0
  1 21  1  0  0  0  0
  3  4  1  1  0  0  0
  3  8  1  0  0  0  0
  3 28  1  0  0  0  0
  5  9  1  0  0  0  0
  5 25  1  0  0  0  0
  5 29  1  6  0  0  0
  6  7  1  1  0  0  0
  6 11  1  0  0  0  0
  8 12  1  0  0  0  0
  9 10  1  6  0  0  0
  9 14  1  0  0  0  0
 11 16  1  0  0  0  0
 12 13  1  1  0  0  0
 12 17  1  0  0  0  0
 14 15  1  6  0  0  0
 14 18  1  0  0  0  0
 15 31  1  0  0  0  0
 16 20  1  0  0  0  0
 17  2  1  6  0  0  0
 17 22  1  0  0  0  0
 18 19  1  1  0  0  0
 18 24  1  0  0  0  0
 18 30  1  0  0  0  0
 20 21  1  0  0  0  0
 20 26  1  6  0  0  0
 22 23  1  1  0  0  0
 22 28  1  0  0  0  0
 24 25  1  0  0  0  0
 26 27  1  0  0  0  0
 28 29  1  6  0  0  0
M  END
>  <CHROM.1>
-162.06585756,-165.03548628,-85.85012270,71.35642810,117.69539197,72.77960197
-21.02673415,-14.21886973,-13.45816615,2.61862449,-0.63365787,0.57839327

>  <Name>
ligand

>  <RI>
0

>  <Rbt.Current_Directory>
/home/itssahil/PROJECTS/Mol_Feturizer/New_Systems/rnas/4GPW

>  <Rbt.Executable>
rbdock ($Id: //depot/dev/client3/rdock/2013.1/src/exe/rbdock.cxx#4 $)

>  <Rbt.Library>
libRbt.so (2013.1, Build901 2013/11/27)

>  <Rbt.Parameter_File>
/export/apps/rDock/src/rDock_2013.1_src/data/scripts/dock_solv.prm

>  <Rbt.Receptor>
prm/pocket_docking_5.prm

>  <SCORE>
-11.2086

>  <SCORE.INTER>
-5.91446

>  <SCORE.INTER.CONST>
1

>  <SCORE.INTER.POLAR>
0

>  <SCORE.INTER.ROT>
6

>  <SCORE.INTER.SOLV>
13.2536

>  <SCORE.INTER.VDW>
-15.9608

>  <SCORE.INTER.norm>
-0.190789

>  <SCORE.INTRA>
-5.29419

>  <SCORE.INTRA.DIHEDRAL>
-13.1662

>  <SCORE.INTRA.DIHEDRAL.0>
19.2558

>  <SCORE.INTRA.POLAR>
0

>  <SCORE.INTRA.POLAR.0>
0

>  <SCORE.INTRA.REPUL>
0

>  <SCORE.INTRA.REPUL.0>
0

>  <SCORE.INTRA.SOLV>
-0.524793

>  <SCORE.INTRA.SOLV.lig_0>
-64.5929

>  <SCORE.INTRA.VDW>
1.5513

>  <SCORE.INTRA.VDW.0>
-4.40538

>  <SCORE.INTRA.norm>
-0.17078

>  <SCORE.RESTR>
0

>  <SCORE.RESTR.CAVITY>
0

>  <SCORE.RESTR.norm>
0

>  <SCORE.SYSTEM>
0

>  <SCORE.SYSTEM.CONST>
0

>  <SCORE.SYSTEM.DIHEDRAL>
0

>  <SCORE.SYSTEM.SOLV>
0

>  <SCORE.SYSTEM.norm>
0

>  <SCORE.heavy>
31

>  <SCORE.norm>
-0.361569

>  <RMSD>
8.064

$$$$
ligand
 OpenBabel11021811493D
libRbt.so/2013.1/901 2013/11/27
 31 33  0  0  0  0  0  0  0  0999 V2000
  -22.3358  -10.5860  -15.7554 C   0  0  2  0  0  0  0  0  0  0  0  0
  -22.9740  -11.6896  -15.1297 O   0  0  0  0  0  0  0  0  0  0  0  0
  -21.5701  -15.5848  -14.1141 C   0  0  2  0  0  0  0  0  0  0  0  0
  -21.1426  -16.9377  -14.2695 N   0  0  0  0  0  0  0  0  0  0  0  0
  -18.3841  -15.8826  -14.5621 C   0  0  2  0  0  0  0  0  0  0  0  0
  -23.0958   -9.2799  -15.2771 C   0  0  2  0  0  0  0  0  0  0  0  0
  -23.0227   -9.1860  -13.8116 N   0  0  0  0  0  0  0  0  0  0  0  0
  -23.0433  -15.4532  -14.6992 C   0  0  0  0  0  0  0  0  0  0  0  0
  -17.0423  -15.4768  -13.8671 C   0  0  2  0  0  0  0  0  0  0  0  0
  -17.3257  -15.1559  -12.5257 O   0  0  0  0  0  0  0  0  0  0  0  0
  -24.5978   -9.3263  -15.7655 C   0  0  0  0  0  0  0  0  0  0  0  0
  -23.5252  -13.9433  -14.5201 C   0  0  2  0  0  0  0  0  0  0  0  0
  -24.8971  -13.8000  -15.0536 N   0  0  0  0  0  0  0  0  0  0  0  0
  -16.4066  -14.2434  -14.6338 C   0  0  1  0  0  0  0  0  0  0  0  0
  -15.1138  -13.8354  -13.9761 N   0  0  0  0  0  0  0  0  0  0  0  0
  -24.7393   -9.9085  -17.2330 C   0  0  0  0  0  0  0  0  0  0  0  0
  -22.5392  -12.9909  -15.3139 C   0  0  2  0  0  0  0  0  0  0  0  0
  -16.1035  -14.6726  -16.1737 C   0  0  1  0  0  0  0  0  0  0  0  0
  -15.1878  -15.7436  -16.2826 O   0  0  0  0  0  0  0  0  0  0  0  0
  -23.7000  -10.5209  -17.8440 C   0  0  2  0  0  0  0  0  0  0  0  0
  -22.4234  -10.6788  -17.2161 O   0  0  0  0  0  0  0  0  0  0  0  0
  -21.0749  -13.1489  -14.7321 C   0  0  2  0  0  0  0  0  0  0  0  0
  -20.1840  -12.2900  -15.4633 O   0  0  0  0  0  0  0  0  0  0  0  0
  -17.4498  -15.1021  -16.8459 C   0  0  0  0  0  0  0  0  0  0  0  0
  -18.1248  -16.1984  -16.0239 O   0  0  0  0  0  0  0  0  0  0  0  0
  -23.7987  -11.0919  -19.2579 C   0  0  0  0  0  0  0  0  0  0  0  0
  -23.6572  -12.5184  -19.1715 O   0  0  0  0  0  0  0  0  0  0  0  0
  -20.5931  -14.6437  -14.9067 C   0  0  1  0  0  0  0  0  0  0  0  0
  -19.2879  -14.7471  -14.3640 O   0  0  0  0  0  0  0  0  0  0  0  0
  -15.4946  -13.5539  -17.0461 C   0  0  0  0  0  0  0  0  0  0  0  0
  -15.0384  -12.4454  -13.4820 C   0  0  0  0  0  0  0  0  0  0  0  0
  1  2  1  1  0  0  0
  1  6  1  0  0  0  0
  1 21  1  0  0  0  0
  3  4  1  6  0  0  0
  3  8  1  0  0  0  0
  3 28  1  0  0  0  0
  5  9  1  0  0  0  0
  5 25  1  0  0  0  0
  5 29  1  6  0  0  0
  6  7  1  1  0  0  0
  6 11  1  0  0  0  0
  8 12  1  0  0  0  0
  9 10  1  1  0  0  0
  9 14  1  0  0  0  0
 11 16  1  0  0  0  0
 12 13  1  6  0  0  0
 12 17  1  0  0  0  0
 14 15  1  1  0  0  0
 14 18  1  0  0  0  0
 15 31  1  0  0  0  0
 16 20  1  0  0  0  0
 17  2  1  1  0  0  0
 17 22  1  0  0  0  0
 18 19  1  1  0  0  0
 18 24  1  0  0  0  0
 18 30  1  0  0  0  0
 20 21  1  0  0  0  0
 20 26  1  6  0  0  0
 22 23  1  6  0  0  0
 22 28  1  0  0  0  0
 24 25  1  0  0  0  0
 26 27  1  0  0  0  0
 28 29  1  1  0  0  0
M  END
>  <CHROM.1>
-178.75072928,175.68113216,-121.38163462,-177.48617729,-114.47297497,74.61405144
-20.41150274,-13.25095882,-15.47947511,-2.61756014,-0.00799691,2.74297210

>  <Name>
ligand

>  <RI>
0

>  <Rbt.Current_Directory>
/home/itssahil/PROJECTS/Mol_Feturizer/New_Systems/rnas/4GPW

>  <Rbt.Executable>
rbdock ($Id: //depot/dev/client3/rdock/2013.1/src/exe/rbdock.cxx#4 $)

>  <Rbt.Library>
libRbt.so (2013.1, Build901 2013/11/27)

>  <Rbt.Parameter_File>
/export/apps/rDock/src/rDock_2013.1_src/data/scripts/dock_solv.prm

>  <Rbt.Receptor>
prm/pocket_docking_5.prm

>  <SCORE>
-12.6262

>  <SCORE.INTER>
-4.71134

>  <SCORE.INTER.CONST>
1

>  <SCORE.INTER.POLAR>
0

>  <SCORE.INTER.ROT>
6

>  <SCORE.INTER.SOLV>
9.74941

>  <SCORE.INTER.VDW>
-13.9907

>  <SCORE.INTER.norm>
-0.151979

>  <SCORE.INTRA>
-7.91672

>  <SCORE.INTRA.DIHEDRAL>
-15.1881

>  <SCORE.INTRA.DIHEDRAL.0>
19.2558

>  <SCORE.INTRA.POLAR>
0

>  <SCORE.INTRA.POLAR.0>
0

>  <SCORE.INTRA.REPUL>
0

>  <SCORE.INTRA.REPUL.0>
0

>  <SCORE.INTRA.SOLV>
-2.66145

>  <SCORE.INTRA.SOLV.lig_0>
-64.5929

>  <SCORE.INTRA.VDW>
1.00803

>  <SCORE.INTRA.VDW.0>
-4.40538

>  <SCORE.INTRA.norm>
-0.255378

>  <SCORE.RESTR>
0.00186193

>  <SCORE.RESTR.CAVITY>
0.00186193

>  <SCORE.RESTR.norm>
6.00622e-05

>  <SCORE.SYSTEM>
0

>  <SCORE.SYSTEM.CONST>
0

>  <SCORE.SYSTEM.DIHEDRAL>
0

>  <SCORE.SYSTEM.SOLV>
0

>  <SCORE.SYSTEM.norm>
0

>  <SCORE.heavy>
31

>  <SCORE.norm>
-0.407297

>  <RMSD>
8.072

$$$$
ligand
 OpenBabel11021811493D
libRbt.so/2013.1/901 2013/11/27
 31 33  0  0  0  0  0  0  0  0999 V2000
  -22.0630  -10.7511  -15.6786 C   0  0  2  0  0  0  0  0  0  0  0  0
  -22.6666  -11.7235  -14.8379 O   0  0  0  0  0  0  0  0  0  0  0  0
  -22.1785  -15.9219  -14.2810 C   0  0  2  0  0  0  0  0  0  0  0  0
  -22.1839  -17.3207  -14.5647 N   0  0  0  0  0  0  0  0  0  0  0  0
  -19.4422  -17.0599  -15.3279 C   0  0  2  0  0  0  0  0  0  0  0  0
  -22.2153   -9.3514  -14.9506 C   0  0  2  0  0  0  0  0  0  0  0  0
  -21.5564   -9.4138  -13.6377 N   0  0  0  0  0  0  0  0  0  0  0  0
  -23.6547  -15.3636  -14.4791 C   0  0  0  0  0  0  0  0  0  0  0  0
  -17.9228  -17.0933  -14.9558 C   0  0  2  0  0  0  0  0  0  0  0  0
  -17.7900  -16.6532  -13.6248 O   0  0  0  0  0  0  0  0  0  0  0  0
  -23.7464   -8.9925  -14.7972 C   0  0  0  0  0  0  0  0  0  0  0  0
  -23.6518  -13.8016  -14.1557 C   0  0  2  0  0  0  0  0  0  0  0  0
  -25.0182  -13.2627  -14.3289 N   0  0  0  0  0  0  0  0  0  0  0  0
  -17.1177  -16.1620  -15.9546 C   0  0  1  0  0  0  0  0  0  0  0  0
  -15.6510  -16.1785  -15.6095 N   0  0  0  0  0  0  0  0  0  0  0  0
  -24.5916   -9.3855  -16.0792 C   0  0  0  0  0  0  0  0  0  0  0  0
  -22.6579  -13.0721  -15.1503 C   0  0  2  0  0  0  0  0  0  0  0  0
  -17.3096  -16.7172  -17.4720 C   0  0  1  0  0  0  0  0  0  0  0  0
  -16.8224  -18.0320  -17.6489 O   0  0  0  0  0  0  0  0  0  0  0  0
  -24.0663  -10.1691  -17.0481 C   0  0  2  0  0  0  0  0  0  0  0  0
  -22.7327  -10.6847  -16.9813 O   0  0  0  0  0  0  0  0  0  0  0  0
  -21.1980  -13.6533  -14.9537 C   0  0  2  0  0  0  0  0  0  0  0  0
  -20.3036  -12.9945  -15.8658 O   0  0  0  0  0  0  0  0  0  0  0  0
  -18.8356  -16.7040  -17.8185 C   0  0  0  0  0  0  0  0  0  0  0  0
  -19.6220  -17.4911  -16.7720 O   0  0  0  0  0  0  0  0  0  0  0  0
  -24.8500  -10.5666  -18.2983 C   0  0  0  0  0  0  0  0  0  0  0  0
  -25.0641  -11.9859  -18.2553 O   0  0  0  0  0  0  0  0  0  0  0  0
  -21.1957  -15.2010  -15.2723 C   0  0  1  0  0  0  0  0  0  0  0  0
  -19.8787  -15.6851  -15.0729 O   0  0  0  0  0  0  0  0  0  0  0  0
  -16.5883  -15.8891  -18.5568 C   0  0  0  0  0  0  0  0  0  0  0  0
  -15.1043  -14.9459  -15.0065 C   0  0  0  0  0  0  0  0  0  0  0  0
  1  2  1  1  0  0  0
  1  6  1  0  0  0  0
  1 21  1  0  0  0  0
  3  4  1  6  0  0  0
  3  8  1  0  0  0  0
  3 28  1  0  0  0  0
  5  9  1  0  0  0  0
  5 25  1  0  0  0  0
  5 29  1  6  0  0  0
  6  7  1  1  0  0  0
  6 11  1  0  0  0  0
  8 12  1  0  0  0  0
  9 10  1  1  0  0  0
  9 14  1  0  0  0  0
 11 16  1  0  0  0  0
 12 13  1  6  0  0  0
 12 17  1  0  0  0  0
 14 15  1  1  0  0  0
 14 18  1  0  0  0  0
 15 31  1  0  0  0  0
 16 20  1  0  0  0  0
 17  2  1  1  0  0  0
 17 22  1  0  0  0  0
 18 19  1  6  0  0  0
 18 24  1  0  0  0  0
 18 30  1  0  0  0  0
 20 21  1  0  0  0  0
 20 26  1  6  0  0  0
 22 23  1  6  0  0  0
 22 28  1  0  0  0  0
 24 25  1  0  0  0  0
 26 27  1  0  0  0  0
 28 29  1  1  0  0  0
M  END
>  <CHROM.1>
-177.13922761,-179.88228381,-108.58859044,-169.02923351,-114.07708285,64.95309555
-20.86706021,-13.95607081,-15.74746961,-2.39574834,-0.18120900,2.99574254

>  <Name>
ligand

>  <RI>
0

>  <Rbt.Current_Directory>
/home/itssahil/PROJECTS/Mol_Feturizer/New_Systems/rnas/4GPW

>  <Rbt.Executable>
rbdock ($Id: //depot/dev/client3/rdock/2013.1/src/exe/rbdock.cxx#4 $)

>  <Rbt.Library>
libRbt.so (2013.1, Build901 2013/11/27)

>  <Rbt.Parameter_File>
/export/apps/rDock/src/rDock_2013.1_src/data/scripts/dock_solv.prm

>  <Rbt.Receptor>
prm/pocket_docking_6.prm

>  <SCORE>
-11.3437

>  <SCORE.INTER>
-3.43906

>  <SCORE.INTER.CONST>
1

>  <SCORE.INTER.POLAR>
0

>  <SCORE.INTER.ROT>
6

>  <SCORE.INTER.SOLV>
11.913

>  <SCORE.INTER.VDW>
-13.8637

>  <SCORE.INTER.norm>
-0.110938

>  <SCORE.INTRA>
-7.90467

>  <SCORE.INTRA.DIHEDRAL>
-15.6783

>  <SCORE.INTRA.DIHEDRAL.0>
19.2558

>  <SCORE.INTRA.POLAR>
0

>  <SCORE.INTRA.POLAR.0>
0

>  <SCORE.INTRA.REPUL>
0

>  <SCORE.INTRA.REPUL.0>
0

>  <SCORE.INTRA.SOLV>
-1.99418

>  <SCORE.INTRA.SOLV.lig_0>
-64.5929

>  <SCORE.INTRA.VDW>
0.931576

>  <SCORE.INTRA.VDW.0>
-4.40538

>  <SCORE.INTRA.norm>
-0.254989

>  <SCORE.RESTR>
0

>  <SCORE.RESTR.CAVITY>
0

>  <SCORE.RESTR.norm>
0

>  <SCORE.SYSTEM>
0

>  <SCORE.SYSTEM.CONST>
0

>  <SCORE.SYSTEM.DIHEDRAL>
0

>  <SCORE.SYSTEM.SOLV>
0

>  <SCORE.SYSTEM.norm>
0

>  <SCORE.heavy>
31

>  <SCORE.norm>
-0.365927

>  <RMSD>
8.073

$$$$
ligand
 OpenBabel11021811493D
libRbt.so/2013.1/901 2013/11/27
 31 33  0  0  0  0  0  0  0  0999 V2000
  -21.9054  -11.4566  -17.5062 C   0  0  2  0  0  0  0  0  0  0  0  0
  -22.4075  -12.4122  -16.5836 O   0  0  0  0  0  0  0  0  0  0  0  0
  -20.6029  -14.7165  -13.4839 C   0  0  2  0  0  0  0  0  0  0  0  0
  -19.7922  -15.7035  -12.8467 N   0  0  0  0  0  0  0  0  0  0  0  0
  -17.6657  -13.6871  -12.7205 C   0  0  2  0  0  0  0  0  0  0  0  0
  -23.0169  -10.3377  -17.6644 C   0  0  2  0  0  0  0  0  0  0  0  0
  -23.2849   -9.7319  -16.3517 N   0  0  0  0  0  0  0  0  0  0  0  0
  -21.6100  -15.4538  -14.4698 C   0  0  0  0  0  0  0  0  0  0  0  0
  -17.0603  -12.5644  -11.8142 C   0  0  2  0  0  0  0  0  0  0  0  0
  -18.0837  -12.0806  -10.9769 O   0  0  0  0  0  0  0  0  0  0  0  0
  -24.3304  -10.9712  -18.2724 C   0  0  0  0  0  0  0  0  0  0  0  0
  -22.5213  -14.3525  -15.1776 C   0  0  2  0  0  0  0  0  0  0  0  0
  -23.4703  -15.0182  -16.0961 N   0  0  0  0  0  0  0  0  0  0  0  0
  -16.4708  -11.4123  -12.7299 C   0  0  1  0  0  0  0  0  0  0  0  0
  -15.8856  -10.3189  -11.8739 N   0  0  0  0  0  0  0  0  0  0  0  0
  -24.0207  -12.0346  -19.4063 C   0  0  0  0  0  0  0  0  0  0  0  0
  -21.5919  -13.3620  -15.9926 C   0  0  2  0  0  0  0  0  0  0  0  0
  -15.2976  -12.0297  -13.6732 C   0  0  1  0  0  0  0  0  0  0  0  0
  -14.2171  -12.5666  -12.9373 O   0  0  0  0  0  0  0  0  0  0  0  0
  -22.7658  -12.4981  -19.6044 C   0  0  2  0  0  0  0  0  0  0  0  0
  -21.6524  -12.0638  -18.8166 O   0  0  0  0  0  0  0  0  0  0  0  0
  -20.5833  -12.6518  -14.9996 C   0  0  2  0  0  0  0  0  0  0  0  0
  -19.7367  -11.7625  -15.7467 O   0  0  0  0  0  0  0  0  0  0  0  0
  -15.9125  -13.1691  -14.5523 C   0  0  0  0  0  0  0  0  0  0  0  0
  -16.5994  -14.2072  -13.6670 O   0  0  0  0  0  0  0  0  0  0  0  0
  -22.4294  -13.5211  -20.6885 C   0  0  0  0  0  0  0  0  0  0  0  0
  -21.4414  -12.9414  -21.5545 O   0  0  0  0  0  0  0  0  0  0  0  0
  -19.6784  -13.7390  -14.2952 C   0  0  1  0  0  0  0  0  0  0  0  0
  -18.8011  -13.0672  -13.4077 O   0  0  0  0  0  0  0  0  0  0  0  0
  -14.6432  -11.0145  -14.6346 C   0  0  0  0  0  0  0  0  0  0  0  0
  -16.7867   -9.1998  -11.5314 C   0  0  0  0  0  0  0  0  0  0  0  0
  1  2  1  1  0  0  0
  1  6  1  0  0  0  0
  1 21  1  0  0  0  0
  3  4  1  6  0  0  0
  3  8  1  0  0  0  0
  3 28  1  0  0  0  0
  5  9  1  0  0  0  0
  5 25  1  0  0  0  0
  5 29  1  6  0  0  0
  6  7  1  1  0  0  0
  6 11  1  0  0  0  0
  8 12  1  0  0  0  0
  9 10  1  1  0  0  0
  9 14  1  0  0  0  0
 11 16  1  0  0  0  0
 12 13  1  6  0  0  0
 12 17  1  0  0  0  0
 14 15  1  1  0  0  0
 14 18  1  0  0  0  0
 15 31  1  0  0  0  0
 16 20  1  0  0  0  0
 17  2  1  1  0  0  0
 17 22  1  0  0  0  0
 18 19  1  1  0  0  0
 18 24  1  0  0  0  0
 18 30  1  0  0  0  0
 20 21  1  0  0  0  0
 20 26  1  6  0  0  0
 22 23  1  6  0  0  0
 22 28  1  0  0  0  0
 24 25  1  0  0  0  0
 26 27  1  0  0  0  0
 28 29  1  1  0  0  0
M  END
>  <CHROM.1>
-165.57649986,-177.37999191,-92.52440996,-173.04093597,121.76754290,71.73686512
-19.77820197,-12.56982791,-15.30141163,-2.62071365,0.54573663,2.26083212

>  <Name>
ligand

>  <RI>
0

>  <Rbt.Current_Directory>
/home/itssahil/PROJECTS/Mol_Feturizer/New_Systems/rnas/4GPW

>  <Rbt.Executable>
rbdock ($Id: //depot/dev/client3/rdock/2013.1/src/exe/rbdock.cxx#4 $)

>  <Rbt.Library>
libRbt.so (2013.1, Build901 2013/11/27)

>  <Rbt.Parameter_File>
/export/apps/rDock/src/rDock_2013.1_src/data/scripts/dock_solv.prm

>  <Rbt.Receptor>
prm/pocket_docking_7.prm

>  <SCORE>
-14.3146

>  <SCORE.INTER>
-6.88781

>  <SCORE.INTER.CONST>
1

>  <SCORE.INTER.POLAR>
0

>  <SCORE.INTER.ROT>
6

>  <SCORE.INTER.SOLV>
7.90837

>  <SCORE.INTER.VDW>
-14.828

>  <SCORE.INTER.norm>
-0.222187

>  <SCORE.INTRA>
-7.42675

>  <SCORE.INTRA.DIHEDRAL>
-14.9698

>  <SCORE.INTRA.DIHEDRAL.0>
19.2558

>  <SCORE.INTRA.POLAR>
0

>  <SCORE.INTRA.POLAR.0>
0

>  <SCORE.INTRA.REPUL>
0

>  <SCORE.INTRA.REPUL.0>
0

>  <SCORE.INTRA.SOLV>
-2.40352

>  <SCORE.INTRA.SOLV.lig_0>
-64.5929

>  <SCORE.INTRA.VDW>
1.25991

>  <SCORE.INTRA.VDW.0>
-4.40538

>  <SCORE.INTRA.norm>
-0.239573

>  <SCORE.RESTR>
0

>  <SCORE.RESTR.CAVITY>
0

>  <SCORE.RESTR.norm>
0

>  <SCORE.SYSTEM>
0

>  <SCORE.SYSTEM.CONST>
0

>  <SCORE.SYSTEM.DIHEDRAL>
0

>  <SCORE.SYSTEM.SOLV>
0

>  <SCORE.SYSTEM.norm>
0

>  <SCORE.heavy>
31

>  <SCORE.norm>
-0.46176

>  <RMSD>
8.073

$$$$
ligand
 OpenBabel11021811493D
libRbt.so/2013.1/901 2013/11/27
 31 33  0  0  0  0  0  0  0  0999 V2000
  -22.7879  -11.5088  -14.9592 C   0  0  2  0  0  0  0  0  0  0  0  0
  -23.7166  -12.5816  -14.9036 O   0  0  0  0  0  0  0  0  0  0  0  0
  -23.5957  -16.7965  -15.5323 C   0  0  2  0  0  0  0  0  0  0  0  0
  -23.4011  -18.0480  -16.1904 N   0  0  0  0  0  0  0  0  0  0  0  0
  -20.5099  -17.9083  -15.2073 C   0  0  2  0  0  0  0  0  0  0  0  0
  -23.4269  -10.3015  -14.1552 C   0  0  2  0  0  0  0  0  0  0  0  0
  -23.6826  -10.7230  -12.7701 N   0  0  0  0  0  0  0  0  0  0  0  0
  -24.6520  -15.9491  -16.3666 C   0  0  0  0  0  0  0  0  0  0  0  0
  -19.8269  -18.5382  -13.9484 C   0  0  2  0  0  0  0  0  0  0  0  0
  -20.8363  -18.8688  -13.0241 O   0  0  0  0  0  0  0  0  0  0  0  0
  -24.7629   -9.8376  -14.8599 C   0  0  0  0  0  0  0  0  0  0  0  0
  -24.8756  -14.5528  -15.6286 C   0  0  2  0  0  0  0  0  0  0  0  0
  -25.8601  -13.7501  -16.3862 N   0  0  0  0  0  0  0  0  0  0  0  0
  -18.7996  -17.4988  -13.3339 C   0  0  1  0  0  0  0  0  0  0  0  0
  -18.1335  -18.0868  -12.1170 N   0  0  0  0  0  0  0  0  0  0  0  0
  -24.6479   -9.8462  -16.4407 C   0  0  0  0  0  0  0  0  0  0  0  0
  -23.4943  -13.7805  -15.5591 C   0  0  2  0  0  0  0  0  0  0  0  0
  -17.6615  -17.1548  -14.4447 C   0  0  1  0  0  0  0  0  0  0  0  0
  -16.9153  -18.2862  -14.8451 O   0  0  0  0  0  0  0  0  0  0  0  0
  -23.6026  -10.4386  -17.0612 C   0  0  2  0  0  0  0  0  0  0  0  0
  -22.5470  -11.0845  -16.3419 O   0  0  0  0  0  0  0  0  0  0  0  0
  -22.4495  -14.6463  -14.7426 C   0  0  2  0  0  0  0  0  0  0  0  0
  -21.1961  -13.9447  -14.6921 O   0  0  0  0  0  0  0  0  0  0  0  0
  -18.3630  -16.5523  -15.7073 C   0  0  0  0  0  0  0  0  0  0  0  0
  -19.4479  -17.5016  -16.2125 O   0  0  0  0  0  0  0  0  0  0  0  0
  -23.4572  -10.4647  -18.5821 C   0  0  0  0  0  0  0  0  0  0  0  0
  -24.6390   -9.8802  -19.1511 O   0  0  0  0  0  0  0  0  0  0  0  0
  -22.2249  -16.0313  -15.4696 C   0  0  1  0  0  0  0  0  0  0  0  0
  -21.2966  -16.7799  -14.7039 O   0  0  0  0  0  0  0  0  0  0  0  0
  -16.5986  -16.1348  -13.9832 C   0  0  0  0  0  0  0  0  0  0  0  0
  -18.9037  -18.0360  -10.8576 C   0  0  0  0  0  0  0  0  0  0  0  0
  1  2  1  6  0  0  0
  1  6  1  0  0  0  0
  1 21  1  0  0  0  0
  3  4  1  6  0  0  0
  3  8  1  0  0  0  0
  3 28  1  0  0  0  0
  5  9  1  0  0  0  0
  5 25  1  0  0  0  0
  5 29  1  1  0  0  0
  6  7  1  1  0  0  0
  6 11  1  0  0  0  0
  8 12  1  0  0  0  0
  9 10  1  1  0  0  0
  9 14  1  0  0  0  0
 11 16  1  0  0  0  0
 12 13  1  6  0  0  0
 12 17  1  0  0  0  0
 14 15  1  1  0  0  0
 14 18  1  0  0  0  0
 15 31  1  0  0  0  0
 16 20  1  0  0  0  0
 17  2  1  1  0  0  0
 17 22  1  0  0  0  0
 18 19  1  6  0  0  0
 18 24  1  0  0  0  0
 18 30  1  0  0  0  0
 20 21  1  0  0  0  0
 20 26  1  1  0  0  0
 22 23  1  6  0  0  0
 22 28  1  0  0  0  0
 24 25  1  0  0  0  0
 26 27  1  0  0  0  0
 28 29  1  1  0  0  0
M  END
>  <CHROM.1>
177.16115288,-170.94431863,-80.58140328,-163.91538737,-4.88598398,81.59871049
-21.78622141,-14.69887150,-15.10828004,-2.28147235,0.44160972,-3.13446929

>  <Name>
ligand

>  <RI>
0

>  <Rbt.Current_Directory>
/home/itssahil/PROJECTS/Mol_Feturizer/New_Systems/rnas/4GPW

>  <Rbt.Executable>
rbdock ($Id: //depot/dev/client3/rdock/2013.1/src/exe/rbdock.cxx#4 $)

>  <Rbt.Library>
libRbt.so (2013.1, Build901 2013/11/27)

>  <Rbt.Parameter_File>
/export/apps/rDock/src/rDock_2013.1_src/data/scripts/dock_solv.prm

>  <Rbt.Receptor>
prm/pocket_docking_6.prm

>  <SCORE>
-14.289

>  <SCORE.INTER>
-8.58789

>  <SCORE.INTER.CONST>
1

>  <SCORE.INTER.POLAR>
0

>  <SCORE.INTER.ROT>
6

>  <SCORE.INTER.SOLV>
14.7486

>  <SCORE.INTER.VDW>
-18.2414

>  <SCORE.INTER.norm>
-0.277029

>  <SCORE.INTRA>
-5.70112

>  <SCORE.INTRA.DIHEDRAL>
-13.51

>  <SCORE.INTRA.DIHEDRAL.0>
19.2558

>  <SCORE.INTRA.POLAR>
0

>  <SCORE.INTRA.POLAR.0>
0

>  <SCORE.INTRA.REPUL>
0

>  <SCORE.INTRA.REPUL.0>
0

>  <SCORE.INTRA.SOLV>
-2.14142

>  <SCORE.INTRA.SOLV.lig_0>
-64.5929

>  <SCORE.INTRA.VDW>
2.12457

>  <SCORE.INTRA.VDW.0>
-4.40538

>  <SCORE.INTRA.norm>
-0.183907

>  <SCORE.RESTR>
0

>  <SCORE.RESTR.CAVITY>
0

>  <SCORE.RESTR.norm>
0

>  <SCORE.SYSTEM>
0

>  <SCORE.SYSTEM.CONST>
0

>  <SCORE.SYSTEM.DIHEDRAL>
0

>  <SCORE.SYSTEM.SOLV>
0

>  <SCORE.SYSTEM.norm>
0

>  <SCORE.heavy>
31

>  <SCORE.norm>
-0.460936

>  <RMSD>
8.096

$$$$
ligand
 OpenBabel11021811493D
libRbt.so/2013.1/901 2013/11/27
 31 33  0  0  0  0  0  0  0  0999 V2000
  -23.5057  -12.6182  -19.1166 C   0  0  2  0  0  0  0  0  0  0  0  0
  -22.5654  -13.0899  -18.1627 O   0  0  0  0  0  0  0  0  0  0  0  0
  -20.3443  -16.7280  -18.0915 C   0  0  2  0  0  0  0  0  0  0  0  0
  -19.3561  -17.7014  -18.4281 N   0  0  0  0  0  0  0  0  0  0  0  0
  -18.0288  -14.7863  -15.6850 C   0  0  2  0  0  0  0  0  0  0  0  0
  -23.8661  -11.1283  -18.7135 C   0  0  2  0  0  0  0  0  0  0  0  0
  -22.6408  -10.3157  -18.7158 N   0  0  0  0  0  0  0  0  0  0  0  0
  -21.1879  -16.3960  -19.3984 C   0  0  0  0  0  0  0  0  0  0  0  0
  -17.0260  -15.6722  -14.8742 C   0  0  2  0  0  0  0  0  0  0  0  0
  -16.3769  -16.5350  -15.7781 O   0  0  0  0  0  0  0  0  0  0  0  0
  -24.5523  -11.1107  -17.2903 C   0  0  0  0  0  0  0  0  0  0  0  0
  -22.2972  -15.3133  -19.0223 C   0  0  2  0  0  0  0  0  0  0  0  0
  -23.0977  -14.9939  -20.2242 N   0  0  0  0  0  0  0  0  0  0  0  0
  -17.8198  -16.4855  -13.7689 C   0  0  1  0  0  0  0  0  0  0  0  0
  -16.8701  -17.3484  -12.9790 N   0  0  0  0  0  0  0  0  0  0  0  0
  -25.5594  -12.3180  -17.0889 C   0  0  0  0  0  0  0  0  0  0  0  0
  -21.5797  -14.0042  -18.4927 C   0  0  2  0  0  0  0  0  0  0  0  0
  -18.5478  -15.4389  -12.7580 C   0  0  1  0  0  0  0  0  0  0  0  0
  -17.6379  -14.5978  -12.0785 O   0  0  0  0  0  0  0  0  0  0  0  0
  -25.5902  -13.3535  -17.9582 C   0  0  2  0  0  0  0  0  0  0  0  0
  -24.7303  -13.4244  -19.1003 O   0  0  0  0  0  0  0  0  0  0  0  0
  -20.7293  -14.3564  -17.2040 C   0  0  2  0  0  0  0  0  0  0  0  0
  -20.0732  -13.1667  -16.7349 O   0  0  0  0  0  0  0  0  0  0  0  0
  -19.5257  -14.5423  -13.5879 C   0  0  0  0  0  0  0  0  0  0  0  0
  -18.7781  -13.8680  -14.7368 O   0  0  0  0  0  0  0  0  0  0  0  0
  -26.5484  -14.5328  -17.7976 C   0  0  0  0  0  0  0  0  0  0  0  0
  -25.7725  -15.6918  -17.4556 O   0  0  0  0  0  0  0  0  0  0  0  0
  -19.6291  -15.4295  -17.5714 C   0  0  1  0  0  0  0  0  0  0  0  0
  -18.9000  -15.7271  -16.3931 O   0  0  0  0  0  0  0  0  0  0  0  0
  -19.3762  -16.0988  -11.6348 C   0  0  0  0  0  0  0  0  0  0  0  0
  -17.3702  -18.6795  -12.5790 C   0  0  0  0  0  0  0  0  0  0  0  0
  1  2  1  1  0  0  0
  1  6  1  0  0  0  0
  1 21  1  0  0  0  0
  3  4  1  6  0  0  0
  3  8  1  0  0  0  0
  3 28  1  0  0  0  0
  5  9  1  0  0  0  0
  5 25  1  0  0  0  0
  5 29  1  1  0  0  0
  6  7  1  1  0  0  0
  6 11  1  0  0  0  0
  8 12  1  0  0  0  0
  9 10  1  6  0  0  0
  9 14  1  0  0  0  0
 11 16  1  0  0  0  0
 12 13  1  6  0  0  0
 12 17  1  0  0  0  0
 14 15  1  1  0  0  0
 14 18  1  0  0  0  0
 15 31  1  0  0  0  0
 16 20  1  0  0  0  0
 17  2  1  1  0  0  0
 17 22  1  0  0  0  0
 18 19  1  1  0  0  0
 18 24  1  0  0  0  0
 18 30  1  0  0  0  0
 20 21  1  0  0  0  0
 20 26  1  6  0  0  0
 22 23  1  6  0  0  0
 22 28  1  0  0  0  0
 24 25  1  0  0  0  0
 26 27  1  0  0  0  0
 28 29  1  1  0  0  0
M  END
>  <CHROM.1>
-148.12833507,-156.83628392,-142.55355322,-59.42635845,-110.92416493,175.20406982
-20.95077337,-14.69842808,-16.53047344,2.87551518,0.66166563,-2.13999008

>  <Name>
ligand

>  <RI>
0

>  <Rbt.Current_Directory>
/home/itssahil/PROJECTS/Mol_Feturizer/New_Systems/rnas/4GPW

>  <Rbt.Executable>
rbdock ($Id: //depot/dev/client3/rdock/2013.1/src/exe/rbdock.cxx#4 $)

>  <Rbt.Library>
libRbt.so (2013.1, Build901 2013/11/27)

>  <Rbt.Parameter_File>
/export/apps/rDock/src/rDock_2013.1_src/data/scripts/dock_solv.prm

>  <Rbt.Receptor>
prm/pocket_docking_8.prm

>  <SCORE>
-6.44613

>  <SCORE.INTER>
-4.1936

>  <SCORE.INTER.CONST>
1

>  <SCORE.INTER.POLAR>
0

>  <SCORE.INTER.ROT>
6

>  <SCORE.INTER.SOLV>
10.5782

>  <SCORE.INTER.VDW>
-13.9218

>  <SCORE.INTER.norm>
-0.135277

>  <SCORE.INTRA>
-2.25253

>  <SCORE.INTRA.DIHEDRAL>
-10.2229

>  <SCORE.INTRA.DIHEDRAL.0>
19.2558

>  <SCORE.INTRA.POLAR>
0

>  <SCORE.INTRA.POLAR.0>
0

>  <SCORE.INTRA.REPUL>
0

>  <SCORE.INTRA.REPUL.0>
0

>  <SCORE.INTRA.SOLV>
-0.551078

>  <SCORE.INTRA.SOLV.lig_0>
-64.5929

>  <SCORE.INTRA.VDW>
3.13446

>  <SCORE.INTRA.VDW.0>
-4.40538

>  <SCORE.INTRA.norm>
-0.0726621

>  <SCORE.RESTR>
0

>  <SCORE.RESTR.CAVITY>
0

>  <SCORE.RESTR.norm>
0

>  <SCORE.SYSTEM>
0

>  <SCORE.SYSTEM.CONST>
0

>  <SCORE.SYSTEM.DIHEDRAL>
0

>  <SCORE.SYSTEM.SOLV>
0

>  <SCORE.SYSTEM.norm>
0

>  <SCORE.heavy>
31

>  <SCORE.norm>
-0.20794

>  <RMSD>
8.096

$$$$
ligand
 OpenBabel11021811493D
libRbt.so/2013.1/901 2013/11/27
 31 33  0  0  0  0  0  0  0  0999 V2000
  -22.7575  -11.8932  -15.2333 C   0  0  2  0  0  0  0  0  0  0  0  0
  -23.5995  -12.9694  -14.8465 O   0  0  0  0  0  0  0  0  0  0  0  0
  -24.1958  -17.1469  -15.4526 C   0  0  2  0  0  0  0  0  0  0  0  0
  -24.1983  -18.4204  -16.0972 N   0  0  0  0  0  0  0  0  0  0  0  0
  -20.5752  -17.9156  -14.7830 C   0  0  2  0  0  0  0  0  0  0  0  0
  -23.0097  -10.7151  -14.2034 C   0  0  2  0  0  0  0  0  0  0  0  0
  -22.6975  -11.1836  -12.8452 N   0  0  0  0  0  0  0  0  0  0  0  0
  -25.0532  -16.1369  -16.3328 C   0  0  0  0  0  0  0  0  0  0  0  0
  -20.3252  -19.1744  -13.8879 C   0  0  2  0  0  0  0  0  0  0  0  0
  -21.2951  -20.1415  -14.2147 O   0  0  0  0  0  0  0  0  0  0  0  0
  -24.5105  -10.2307  -14.3024 C   0  0  0  0  0  0  0  0  0  0  0  0
  -25.0571  -14.7148  -15.6103 C   0  0  2  0  0  0  0  0  0  0  0  0
  -25.8546  -13.7605  -16.4106 N   0  0  0  0  0  0  0  0  0  0  0  0
  -20.4165  -18.7585  -12.3608 C   0  0  1  0  0  0  0  0  0  0  0  0
  -20.1818  -19.9598  -11.4821 N   0  0  0  0  0  0  0  0  0  0  0  0
  -25.0346  -10.1857  -15.7977 C   0  0  0  0  0  0  0  0  0  0  0  0
  -23.5655  -14.1959  -15.4875 C   0  0  2  0  0  0  0  0  0  0  0  0
  -19.2767  -17.6415  -12.0441 C   0  0  1  0  0  0  0  0  0  0  0  0
  -17.9620  -18.1097  -12.2672 O   0  0  0  0  0  0  0  0  0  0  0  0
  -24.3296  -10.7546  -16.8017 C   0  0  2  0  0  0  0  0  0  0  0  0
  -23.0823  -11.4221  -16.5833 O   0  0  0  0  0  0  0  0  0  0  0  0
  -22.7220  -15.2222  -14.6256 C   0  0  2  0  0  0  0  0  0  0  0  0
  -21.3678  -14.7507  -14.5268 O   0  0  0  0  0  0  0  0  0  0  0  0
  -19.5237  -16.4016  -12.9664 C   0  0  0  0  0  0  0  0  0  0  0  0
  -19.5710  -16.8333  -14.4309 O   0  0  0  0  0  0  0  0  0  0  0  0
  -24.8022  -10.7291  -18.2546 C   0  0  0  0  0  0  0  0  0  0  0  0
  -25.3678   -9.4351  -18.5148 O   0  0  0  0  0  0  0  0  0  0  0  0
  -22.7156  -16.6332  -15.3371 C   0  0  1  0  0  0  0  0  0  0  0  0
  -21.9641  -17.5243  -14.5312 O   0  0  0  0  0  0  0  0  0  0  0  0
  -19.2626  -17.1308  -10.5874 C   0  0  0  0  0  0  0  0  0  0  0  0
  -18.9361  -20.7163  -11.7229 C   0  0  0  0  0  0  0  0  0  0  0  0
  1  2  1  1  0  0  0
  1  6  1  0  0  0  0
  1 21  1  0  0  0  0
  3  4  1  6  0  0  0
  3  8  1  0  0  0  0
  3 28  1  0  0  0  0
  5  9  1  0  0  0  0
  5 25  1  0  0  0  0
  5 29  1  1  0  0  0
  6  7  1  1  0  0  0
  6 11  1  0  0  0  0
  8 12  1  0  0  0  0
  9 10  1  6  0  0  0
  9 14  1  0  0  0  0
 11 16  1  0  0  0  0
 12 13  1  6  0  0  0
 12 17  1  0  0  0  0
 14 15  1  1  0  0  0
 14 18  1  0  0  0  0
 15 31  1  0  0  0  0
 16 20  1  0  0  0  0
 17  2  1  1  0  0  0
 17 22  1  0  0  0  0
 18 19  1  6  0  0  0
 18 24  1  0  0  0  0
 18 30  1  0  0  0  0
 20 21  1  0  0  0  0
 20 26  1  6  0  0  0
 22 23  1  6  0  0  0
 22 28  1  0  0  0  0
 24 25  1  0  0  0  0
 26 27  1  0  0  0  0
 28 29  1  1  0  0  0
M  END
>  <CHROM.1>
-175.74778141,-164.90713981,54.14280091,-140.65556996,39.78985383,141.12155929
-22.33117992,-15.19155538,-14.60082599,-2.26766544,0.73406077,-3.06608339

>  <Name>
ligand

>  <RI>
0

>  <Rbt.Current_Directory>
/home/itssahil/PROJECTS/Mol_Feturizer/New_Systems/rnas/4GPW

>  <Rbt.Executable>
rbdock ($Id: //depot/dev/client3/rdock/2013.1/src/exe/rbdock.cxx#4 $)

>  <Rbt.Library>
libRbt.so (2013.1, Build901 2013/11/27)

>  <Rbt.Parameter_File>
/export/apps/rDock/src/rDock_2013.1_src/data/scripts/dock_solv.prm

>  <Rbt.Receptor>
prm/pocket_docking_2.prm

>  <SCORE>
-7.10997

>  <SCORE.INTER>
-8.37826

>  <SCORE.INTER.CONST>
1

>  <SCORE.INTER.POLAR>
0

>  <SCORE.INTER.ROT>
6

>  <SCORE.INTER.SOLV>
16.417

>  <SCORE.INTER.VDW>
-18.6578

>  <SCORE.INTER.norm>
-0.270266

>  <SCORE.INTRA>
0.226579

>  <SCORE.INTRA.DIHEDRAL>
-4.45878

>  <SCORE.INTRA.DIHEDRAL.0>
19.2558

>  <SCORE.INTRA.POLAR>
0

>  <SCORE.INTRA.POLAR.0>
0

>  <SCORE.INTRA.REPUL>
0

>  <SCORE.INTRA.REPUL.0>
0

>  <SCORE.INTRA.SOLV>
-0.418107

>  <SCORE.INTRA.SOLV.lig_0>
-64.5929

>  <SCORE.INTRA.VDW>
2.66502

>  <SCORE.INTRA.VDW.0>
-4.40538

>  <SCORE.INTRA.norm>
0.007309

>  <SCORE.RESTR>
1.04171

>  <SCORE.RESTR.CAVITY>
1.04171

>  <SCORE.RESTR.norm>
0.0336036

>  <SCORE.SYSTEM>
0

>  <SCORE.SYSTEM.CONST>
0

>  <SCORE.SYSTEM.DIHEDRAL>
0

>  <SCORE.SYSTEM.SOLV>
0

>  <SCORE.SYSTEM.norm>
0

>  <SCORE.heavy>
31

>  <SCORE.norm>
-0.229354

>  <RMSD>
8.115

$$$$
ligand
 OpenBabel11021811493D
libRbt.so/2013.1/901 2013/11/27
 31 33  0  0  0  0  0  0  0  0999 V2000
  -22.1497  -11.3747  -17.2690 C   0  0  2  0  0  0  0  0  0  0  0  0
  -22.5292  -12.3953  -16.3574 O   0  0  0  0  0  0  0  0  0  0  0  0
  -20.4365  -14.8126  -13.5375 C   0  0  2  0  0  0  0  0  0  0  0  0
  -19.5322  -15.7874  -13.0185 N   0  0  0  0  0  0  0  0  0  0  0  0
  -17.6091  -13.6707  -12.7148 C   0  0  2  0  0  0  0  0  0  0  0  0
  -23.3157  -10.3010  -17.2731 C   0  0  2  0  0  0  0  0  0  0  0  0
  -23.4918   -9.7717  -15.9127 N   0  0  0  0  0  0  0  0  0  0  0  0
  -21.4308  -15.5366  -14.5460 C   0  0  0  0  0  0  0  0  0  0  0  0
  -16.9872  -12.5499  -11.8174 C   0  0  2  0  0  0  0  0  0  0  0  0
  -17.9967  -12.0637  -10.9646 O   0  0  0  0  0  0  0  0  0  0  0  0
  -24.6506  -10.9635  -17.7982 C   0  0  0  0  0  0  0  0  0  0  0  0
  -22.4465  -14.4498  -15.1217 C   0  0  2  0  0  0  0  0  0  0  0  0
  -23.3850  -15.1039  -16.0591 N   0  0  0  0  0  0  0  0  0  0  0  0
  -16.4086  -11.3990  -12.7415 C   0  0  1  0  0  0  0  0  0  0  0  0
  -15.8078  -10.3074  -11.8942 N   0  0  0  0  0  0  0  0  0  0  0  0
  -24.3985  -11.9561  -19.0080 C   0  0  0  0  0  0  0  0  0  0  0  0
  -21.6246  -13.3288  -15.8813 C   0  0  2  0  0  0  0  0  0  0  0  0
  -15.2513  -12.0191  -13.7025 C   0  0  1  0  0  0  0  0  0  0  0  0
  -14.1613  -12.5591  -12.9831 O   0  0  0  0  0  0  0  0  0  0  0  0
  -23.1480  -12.3523  -19.3367 C   0  0  2  0  0  0  0  0  0  0  0  0
  -21.9883  -11.9063  -18.6259 O   0  0  0  0  0  0  0  0  0  0  0  0
  -20.6266  -12.6322  -14.8681 C   0  0  2  0  0  0  0  0  0  0  0  0
  -19.8771  -11.6236  -15.5659 O   0  0  0  0  0  0  0  0  0  0  0  0
  -15.8823  -13.1566  -14.5726 C   0  0  0  0  0  0  0  0  0  0  0  0
  -16.5585  -14.1933  -13.6774 O   0  0  0  0  0  0  0  0  0  0  0  0
  -22.8665  -13.3058  -20.4971 C   0  0  0  0  0  0  0  0  0  0  0  0
  -23.9061  -13.1362  -21.4731 O   0  0  0  0  0  0  0  0  0  0  0  0
  -19.6184  -13.7053  -14.2943 C   0  0  1  0  0  0  0  0  0  0  0  0
  -18.7531  -13.0477  -13.3847 O   0  0  0  0  0  0  0  0  0  0  0  0
  -14.6089  -11.0054  -14.6734 C   0  0  0  0  0  0  0  0  0  0  0  0
  -16.6875   -9.1647  -11.5747 C   0  0  0  0  0  0  0  0  0  0  0  0
  1  2  1  1  0  0  0
  1  6  1  0  0  0  0
  1 21  1  0  0  0  0
  3  4  1  6  0  0  0
  3  8  1  0  0  0  0
  3 28  1  0  0  0  0
  5  9  1  0  0  0  0
  5 25  1  0  0  0  0
  5 29  1  6  0  0  0
  6  7  1  1  0  0  0
  6 11  1  0  0  0  0
  8 12  1  0  0  0  0
  9 10  1  1  0  0  0
  9 14  1  0  0  0  0
 11 16  1  0  0  0  0
 12 13  1  6  0  0  0
 12 17  1  0  0  0  0
 14 15  1  1  0  0  0
 14 18  1  0  0  0  0
 15 31  1  0  0  0  0
 16 20  1  0  0  0  0
 17  2  1  1  0  0  0
 17 22  1  0  0  0  0
 18 19  1  1  0  0  0
 18 24  1  0  0  0  0
 18 30  1  0  0  0  0
 20 21  1  0  0  0  0
 20 26  1  6  0  0  0
 22 23  1  6  0  0  0
 22 28  1  0  0  0  0
 24 25  1  0  0  0  0
 26 27  1  0  0  0  0
 28 29  1  1  0  0  0
M  END
>  <CHROM.1>
-165.12235020,-179.64456623,-94.45683166,-169.53953079,28.43760882,66.65891897
-19.91315659,-12.55456553,-15.20757347,-2.85545132,0.62027700,2.62608251

>  <Name>
ligand

>  <RI>
0

>  <Rbt.Current_Directory>
/home/itssahil/PROJECTS/Mol_Feturizer/New_Systems/rnas/4GPW

>  <Rbt.Executable>
rbdock ($Id: //depot/dev/client3/rdock/2013.1/src/exe/rbdock.cxx#4 $)

>  <Rbt.Library>
libRbt.so (2013.1, Build901 2013/11/27)

>  <Rbt.Parameter_File>
/export/apps/rDock/src/rDock_2013.1_src/data/scripts/dock_solv.prm

>  <Rbt.Receptor>
prm/pocket_docking_7.prm

>  <SCORE>
-13.645

>  <SCORE.INTER>
-7.45009

>  <SCORE.INTER.CONST>
1

>  <SCORE.INTER.POLAR>
0

>  <SCORE.INTER.ROT>
6

>  <SCORE.INTER.SOLV>
7.94196

>  <SCORE.INTER.VDW>
-15.214

>  <SCORE.INTER.norm>
-0.240326

>  <SCORE.INTRA>
-6.19494

>  <SCORE.INTRA.DIHEDRAL>
-14.1587

>  <SCORE.INTRA.DIHEDRAL.0>
19.2558

>  <SCORE.INTRA.POLAR>
0

>  <SCORE.INTRA.POLAR.0>
0

>  <SCORE.INTRA.REPUL>
0

>  <SCORE.INTRA.REPUL.0>
0

>  <SCORE.INTRA.SOLV>
-2.15325

>  <SCORE.INTRA.SOLV.lig_0>
-64.5929

>  <SCORE.INTRA.VDW>
1.96103

>  <SCORE.INTRA.VDW.0>
-4.40538

>  <SCORE.INTRA.norm>
-0.199837

>  <SCORE.RESTR>
0

>  <SCORE.RESTR.CAVITY>
0

>  <SCORE.RESTR.norm>
0

>  <SCORE.SYSTEM>
0

>  <SCORE.SYSTEM.CONST>
0

>  <SCORE.SYSTEM.DIHEDRAL>
0

>  <SCORE.SYSTEM.SOLV>
0

>  <SCORE.SYSTEM.norm>
0

>  <SCORE.heavy>
31

>  <SCORE.norm>
-0.440162

>  <RMSD>
8.115

$$$$
ligand
 OpenBabel11021811493D
libRbt.so/2013.1/901 2013/11/27
 31 33  0  0  0  0  0  0  0  0999 V2000
  -22.8358  -12.7036  -17.2828 C   0  0  2  0  0  0  0  0  0  0  0  0
  -22.8247  -11.8962  -16.1147 O   0  0  0  0  0  0  0  0  0  0  0  0
  -20.8518  -12.4071  -12.3702 C   0  0  2  0  0  0  0  0  0  0  0  0
  -20.5625  -12.9086  -11.0655 N   0  0  0  0  0  0  0  0  0  0  0  0
  -18.7000  -14.5486  -12.2461 C   0  0  2  0  0  0  0  0  0  0  0  0
  -23.2655  -11.7679  -18.4880 C   0  0  2  0  0  0  0  0  0  0  0  0
  -22.3066  -10.6596  -18.6067 N   0  0  0  0  0  0  0  0  0  0  0  0
  -22.3222  -11.8007  -12.3605 C   0  0  0  0  0  0  0  0  0  0  0  0
  -17.4529  -15.3127  -12.8020 C   0  0  2  0  0  0  0  0  0  0  0  0
  -16.7593  -14.4445  -13.6668 O   0  0  0  0  0  0  0  0  0  0  0  0
  -24.7294  -11.2244  -18.2470 C   0  0  0  0  0  0  0  0  0  0  0  0
  -22.6445  -11.2337  -13.8162 C   0  0  2  0  0  0  0  0  0  0  0  0
  -24.0074  -10.6594  -13.8279 N   0  0  0  0  0  0  0  0  0  0  0  0
  -17.9335  -16.6196  -13.5599 C   0  0  1  0  0  0  0  0  0  0  0  0
  -16.7452  -17.3679  -14.1061 N   0  0  0  0  0  0  0  0  0  0  0  0
  -25.6910  -12.3260  -17.6353 C   0  0  0  0  0  0  0  0  0  0  0  0
  -22.5537  -12.4198  -14.8622 C   0  0  2  0  0  0  0  0  0  0  0  0
  -18.7274  -17.5801  -12.5137 C   0  0  1  0  0  0  0  0  0  0  0  0
  -17.9264  -18.0024  -11.4287 O   0  0  0  0  0  0  0  0  0  0  0  0
  -25.2006  -13.4898  -17.1520 C   0  0  2  0  0  0  0  0  0  0  0  0
  -23.8030  -13.7991  -17.1634 O   0  0  0  0  0  0  0  0  0  0  0  0
  -21.0901  -13.0243  -14.8446 C   0  0  2  0  0  0  0  0  0  0  0  0
  -21.0177  -14.1061  -15.7882 O   0  0  0  0  0  0  0  0  0  0  0  0
  -19.9545  -16.7922  -11.9459 C   0  0  0  0  0  0  0  0  0  0  0  0
  -19.4968  -15.4676  -11.3382 O   0  0  0  0  0  0  0  0  0  0  0  0
  -26.0968  -14.5752  -16.5573 C   0  0  0  0  0  0  0  0  0  0  0  0
  -25.8733  -15.7880  -17.2932 O   0  0  0  0  0  0  0  0  0  0  0  0
  -20.7658  -13.5869  -13.4040 C   0  0  1  0  0  0  0  0  0  0  0  0
  -19.4471  -14.1057  -13.4256 O   0  0  0  0  0  0  0  0  0  0  0  0
  -19.2696  -18.8895  -13.1258 C   0  0  0  0  0  0  0  0  0  0  0  0
  -16.3904  -17.0989  -15.5145 C   0  0  0  0  0  0  0  0  0  0  0  0
  1  2  1  1  0  0  0
  1  6  1  0  0  0  0
  1 21  1  0  0  0  0
  3  4  1  1  0  0  0
  3  8  1  0  0  0  0
  3 28  1  0  0  0  0
  5  9  1  0  0  0  0
  5 25  1  0  0  0  0
  5 29  1  6  0  0  0
  6  7  1  1  0  0  0
  6 11  1  0  0  0  0
  8 12  1  0  0  0  0
  9 10  1  6  0  0  0
  9 14  1  0  0  0  0
 11 16  1  0  0  0  0
 12 13  1  1  0  0  0
 12 17  1  0  0  0  0
 14 15  1  1  0  0  0
 14 18  1  0  0  0  0
 15 31  1  0  0  0  0
 16 20  1  0  0  0  0
 17  2  1  6  0  0  0
 17 22  1  0  0  0  0
 18 19  1  1  0  0  0
 18 24  1  0  0  0  0
 18 30  1  0  0  0  0
 20 21  1  0  0  0  0
 20 26  1  6  0  0  0
 22 23  1  6  0  0  0
 22 28  1  0  0  0  0
 24 25  1  0  0  0  0
 26 27  1  0  0  0  0
 28 29  1  6  0  0  0
M  END
>  <CHROM.1>
176.74131617,167.95618456,-95.45733268,-179.46896362,122.76554490,52.74259049
-21.18617049,-14.12626195,-14.60369093,3.05051534,-0.74967630,0.62938797

>  <Name>
ligand

>  <RI>
0

>  <Rbt.Current_Directory>
/home/itssahil/PROJECTS/Mol_Feturizer/New_Systems/rnas/4GPW

>  <Rbt.Executable>
rbdock ($Id: //depot/dev/client3/rdock/2013.1/src/exe/rbdock.cxx#4 $)

>  <Rbt.Library>
libRbt.so (2013.1, Build901 2013/11/27)

>  <Rbt.Parameter_File>
/export/apps/rDock/src/rDock_2013.1_src/data/scripts/dock_solv.prm

>  <Rbt.Receptor>
prm/pocket_docking_5.prm

>  <SCORE>
-13.5888

>  <SCORE.INTER>
-6.83564

>  <SCORE.INTER.CONST>
1

>  <SCORE.INTER.POLAR>
0

>  <SCORE.INTER.ROT>
6

>  <SCORE.INTER.SOLV>
11.9696

>  <SCORE.INTER.VDW>
-16.147

>  <SCORE.INTER.norm>
-0.220505

>  <SCORE.INTRA>
-6.75316

>  <SCORE.INTRA.DIHEDRAL>
-15.7761

>  <SCORE.INTRA.DIHEDRAL.0>
19.2558

>  <SCORE.INTRA.POLAR>
0

>  <SCORE.INTRA.POLAR.0>
0

>  <SCORE.INTRA.REPUL>
0

>  <SCORE.INTRA.REPUL.0>
0

>  <SCORE.INTRA.SOLV>
-1.78924

>  <SCORE.INTRA.SOLV.lig_0>
-64.5929

>  <SCORE.INTRA.VDW>
2.02951

>  <SCORE.INTRA.VDW.0>
-4.40538

>  <SCORE.INTRA.norm>
-0.217844

>  <SCORE.RESTR>
0

>  <SCORE.RESTR.CAVITY>
0

>  <SCORE.RESTR.norm>
0

>  <SCORE.SYSTEM>
0

>  <SCORE.SYSTEM.CONST>
0

>  <SCORE.SYSTEM.DIHEDRAL>
0

>  <SCORE.SYSTEM.SOLV>
0

>  <SCORE.SYSTEM.norm>
0

>  <SCORE.heavy>
31

>  <SCORE.norm>
-0.438348

>  <RMSD>
8.135

$$$$
ligand
 OpenBabel11021811493D
libRbt.so/2013.1/901 2013/11/27
 31 33  0  0  0  0  0  0  0  0999 V2000
  -22.3256  -11.1053  -15.6098 C   0  0  2  0  0  0  0  0  0  0  0  0
  -23.0055  -12.3172  -15.3174 O   0  0  0  0  0  0  0  0  0  0  0  0
  -21.7344  -16.3645  -14.8957 C   0  0  2  0  0  0  0  0  0  0  0  0
  -21.2362  -17.6558  -15.2446 N   0  0  0  0  0  0  0  0  0  0  0  0
  -19.3082  -15.0888  -13.0406 C   0  0  2  0  0  0  0  0  0  0  0  0
  -23.0785   -9.9515  -14.8259 C   0  0  2  0  0  0  0  0  0  0  0  0
  -23.0563  -10.2494  -13.3863 N   0  0  0  0  0  0  0  0  0  0  0  0
  -23.0403  -16.0801  -15.7580 C   0  0  0  0  0  0  0  0  0  0  0  0
  -18.0195  -15.8143  -12.5297 C   0  0  2  0  0  0  0  0  0  0  0  0
  -16.9641  -15.4974  -13.4062 O   0  0  0  0  0  0  0  0  0  0  0  0
  -24.5626   -9.8271  -15.3538 C   0  0  0  0  0  0  0  0  0  0  0  0
  -23.6022  -14.6402  -15.3643 C   0  0  2  0  0  0  0  0  0  0  0  0
  -24.8216  -14.3576  -16.1520 N   0  0  0  0  0  0  0  0  0  0  0  0
  -18.2813  -17.3771  -12.4828 C   0  0  1  0  0  0  0  0  0  0  0  0
  -17.0487  -18.0942  -11.9959 N   0  0  0  0  0  0  0  0  0  0  0  0
  -24.6619   -9.9977  -16.9265 C   0  0  0  0  0  0  0  0  0  0  0  0
  -22.4956  -13.5519  -15.6807 C   0  0  2  0  0  0  0  0  0  0  0  0
  -19.5084  -17.6810  -11.4585 C   0  0  1  0  0  0  0  0  0  0  0  0
  -19.2428  -17.2663  -10.1338 O   0  0  0  0  0  0  0  0  0  0  0  0
  -23.6126  -10.4551  -17.6465 C   0  0  2  0  0  0  0  0  0  0  0  0
  -22.3624  -10.8072  -17.0449 O   0  0  0  0  0  0  0  0  0  0  0  0
  -21.1966  -13.8612  -14.8293 C   0  0  2  0  0  0  0  0  0  0  0  0
  -20.1935  -12.8763  -15.1286 O   0  0  0  0  0  0  0  0  0  0  0  0
  -20.7814  -16.9263  -11.9676 C   0  0  0  0  0  0  0  0  0  0  0  0
  -20.4797  -15.4389  -12.1413 O   0  0  0  0  0  0  0  0  0  0  0  0
  -23.6709  -10.6302  -19.1634 C   0  0  0  0  0  0  0  0  0  0  0  0
  -23.5885  -12.0346  -19.4516 O   0  0  0  0  0  0  0  0  0  0  0  0
  -20.6363  -15.2874  -15.2154 C   0  0  1  0  0  0  0  0  0  0  0  0
  -19.4854  -15.5320  -14.4254 O   0  0  0  0  0  0  0  0  0  0  0  0
  -19.8842  -19.1726  -11.3281 C   0  0  0  0  0  0  0  0  0  0  0  0
  -16.9868  -19.5464  -12.2588 C   0  0  0  0  0  0  0  0  0  0  0  0
  1  2  1  6  0  0  0
  1  6  1  0  0  0  0
  1 21  1  0  0  0  0
  3  4  1  6  0  0  0
  3  8  1  0  0  0  0
  3 28  1  0  0  0  0
  5  9  1  0  0  0  0
  5 25  1  0  0  0  0
  5 29  1  6  0  0  0
  6  7  1  1  0  0  0
  6 11  1  0  0  0  0
  8 12  1  0  0  0  0
  9 10  1  6  0  0  0
  9 14  1  0  0  0  0
 11 16  1  0  0  0  0
 12 13  1  6  0  0  0
 12 17  1  0  0  0  0
 14 15  1  1  0  0  0
 14 18  1  0  0  0  0
 15 31  1  0  0  0  0
 16 20  1  0  0  0  0
 17  2  1  1  0  0  0
 17 22  1  0  0  0  0
 18 19  1  1  0  0  0
 18 24  1  0  0  0  0
 18 30  1  0  0  0  0
 20 21  1  0  0  0  0
 20 26  1  6  0  0  0
 22 23  1  6  0  0  0
 22 28  1  0  0  0  0
 24 25  1  0  0  0  0
 26 27  1  0  0  0  0
 28 29  1  1  0  0  0
M  END
>  <CHROM.1>
-170.28373729,169.89653106,-162.95745319,-172.71569952,-113.20117047,-83.09301501
-21.22667785,-14.37423080,-14.52145633,-2.50111935,0.85836026,-2.96883109

>  <Name>
ligand

>  <RI>
0

>  <Rbt.Current_Directory>
/home/itssahil/PROJECTS/Mol_Feturizer/New_Systems/rnas/4GPW

>  <Rbt.Executable>
rbdock ($Id: //depot/dev/client3/rdock/2013.1/src/exe/rbdock.cxx#4 $)

>  <Rbt.Library>
libRbt.so (2013.1, Build901 2013/11/27)

>  <Rbt.Parameter_File>
/export/apps/rDock/src/rDock_2013.1_src/data/scripts/dock_solv.prm

>  <Rbt.Receptor>
prm/pocket_docking_4.prm

>  <SCORE>
-13.2269

>  <SCORE.INTER>
-8.60668

>  <SCORE.INTER.CONST>
1

>  <SCORE.INTER.POLAR>
0

>  <SCORE.INTER.ROT>
6

>  <SCORE.INTER.SOLV>
13.0498

>  <SCORE.INTER.VDW>
-17.6877

>  <SCORE.INTER.norm>
-0.277635

>  <SCORE.INTRA>
-4.62027

>  <SCORE.INTRA.DIHEDRAL>
-13.7482

>  <SCORE.INTRA.DIHEDRAL.0>
19.2558

>  <SCORE.INTRA.POLAR>
0

>  <SCORE.INTRA.POLAR.0>
0

>  <SCORE.INTRA.REPUL>
0

>  <SCORE.INTRA.REPUL.0>
0

>  <SCORE.INTRA.SOLV>
-1.39758

>  <SCORE.INTRA.SOLV.lig_0>
-64.5929

>  <SCORE.INTRA.VDW>
2.9526

>  <SCORE.INTRA.VDW.0>
-4.40538

>  <SCORE.INTRA.norm>
-0.149041

>  <SCORE.RESTR>
0

>  <SCORE.RESTR.CAVITY>
0

>  <SCORE.RESTR.norm>
0

>  <SCORE.SYSTEM>
0

>  <SCORE.SYSTEM.CONST>
0

>  <SCORE.SYSTEM.DIHEDRAL>
0

>  <SCORE.SYSTEM.SOLV>
0

>  <SCORE.SYSTEM.norm>
0

>  <SCORE.heavy>
31

>  <SCORE.norm>
-0.426676

>  <RMSD>
8.140

$$$$
ligand
 OpenBabel11021811493D
libRbt.so/2013.1/901 2013/11/27
 31 33  0  0  0  0  0  0  0  0999 V2000
  -22.5514  -11.7620  -17.2301 C   0  0  2  0  0  0  0  0  0  0  0  0
  -22.9151  -11.0669  -16.0464 O   0  0  0  0  0  0  0  0  0  0  0  0
  -21.6859  -11.4250  -11.9800 C   0  0  2  0  0  0  0  0  0  0  0  0
  -21.5384  -11.9661  -10.6675 N   0  0  0  0  0  0  0  0  0  0  0  0
  -19.0805  -13.5427  -11.8512 C   0  0  2  0  0  0  0  0  0  0  0  0
  -22.6909  -10.7364  -18.4304 C   0  0  2  0  0  0  0  0  0  0  0  0
  -21.8098   -9.5845  -18.1884 N   0  0  0  0  0  0  0  0  0  0  0  0
  -23.2377  -11.2393  -12.2753 C   0  0  0  0  0  0  0  0  0  0  0  0
  -17.5325  -13.3504  -11.9733 C   0  0  2  0  0  0  0  0  0  0  0  0
  -17.2368  -12.0031  -11.6906 O   0  0  0  0  0  0  0  0  0  0  0  0
  -24.1962  -10.2764  -18.5683 C   0  0  0  0  0  0  0  0  0  0  0  0
  -23.4040  -10.6282  -13.7392 C   0  0  2  0  0  0  0  0  0  0  0  0
  -24.8416  -10.4421  -14.0324 N   0  0  0  0  0  0  0  0  0  0  0  0
  -17.0684  -13.7485  -13.4360 C   0  0  1  0  0  0  0  0  0  0  0  0
  -15.5790  -13.5663  -13.5742 N   0  0  0  0  0  0  0  0  0  0  0  0
  -25.2165  -11.4676  -18.3390 C   0  0  0  0  0  0  0  0  0  0  0  0
  -22.7679  -11.6286  -14.7897 C   0  0  2  0  0  0  0  0  0  0  0  0
  -17.4367  -15.3104  -13.7048 C   0  0  1  0  0  0  0  0  0  0  0  0
  -16.7923  -16.1955  -12.8113 O   0  0  0  0  0  0  0  0  0  0  0  0
  -24.8048  -12.6508  -17.8299 C   0  0  2  0  0  0  0  0  0  0  0  0
  -23.4415  -12.9016  -17.4728 O   0  0  0  0  0  0  0  0  0  0  0  0
  -21.2285  -11.8172  -14.4695 C   0  0  2  0  0  0  0  0  0  0  0  0
  -20.6601  -12.7336  -15.4198 O   0  0  0  0  0  0  0  0  0  0  0  0
  -18.9836  -15.4915  -13.5515 C   0  0  0  0  0  0  0  0  0  0  0  0
  -19.4432  -14.9774  -12.1884 O   0  0  0  0  0  0  0  0  0  0  0  0
  -25.7587  -13.8217  -17.5973 C   0  0  0  0  0  0  0  0  0  0  0  0
  -25.3115  -14.9250  -18.4004 O   0  0  0  0  0  0  0  0  0  0  0  0
  -21.0585  -12.4220  -13.0195 C   0  0  1  0  0  0  0  0  0  0  0  0
  -19.6712  -12.5632  -12.7662 O   0  0  0  0  0  0  0  0  0  0  0  0
  -17.0535  -15.8303  -15.1069 C   0  0  0  0  0  0  0  0  0  0  0  0
  -15.1070  -12.1913  -13.8353 C   0  0  0  0  0  0  0  0  0  0  0  0
  1  2  1  1  0  0  0
  1  6  1  0  0  0  0
  1 21  1  0  0  0  0
  3  4  1  1  0  0  0
  3  8  1  0  0  0  0
  3 28  1  0  0  0  0
  5  9  1  0  0  0  0
  5 25  1  0  0  0  0
  5 29  1  6  0  0  0
  6  7  1  1  0  0  0
  6 11  1  0  0  0  0
  8 12  1  0  0  0  0
  9 10  1  6  0  0  0
  9 14  1  0  0  0  0
 11 16  1  0  0  0  0
 12 13  1  6  0  0  0
 12 17  1  0  0  0  0
 14 15  1  1  0  0  0
 14 18  1  0  0  0  0
 15 31  1  0  0  0  0
 16 20  1  0  0  0  0
 17  2  1  6  0  0  0
 17 22  1  0  0  0  0
 18 19  1  1  0  0  0
 18 24  1  0  0  0  0
 18 30  1  0  0  0  0
 20 21  1  0  0  0  0
 20 26  1  6  0  0  0
 22 23  1  6  0  0  0
 22 28  1  0  0  0  0
 24 25  1  0  0  0  0
 26 27  1  0  0  0  0
 28 29  1  1  0  0  0
M  END
>  <CHROM.1>
-172.93694231,177.21186668,-81.11729411,-174.52694853,119.12683257,88.49365874
-20.94723475,-12.68811374,-14.68398182,-2.75302137,-0.50192508,1.14928397

>  <Name>
ligand

>  <RI>
0

>  <Rbt.Current_Directory>
/home/itssahil/PROJECTS/Mol_Feturizer/New_Systems/rnas/4GPW

>  <Rbt.Executable>
rbdock ($Id: //depot/dev/client3/rdock/2013.1/src/exe/rbdock.cxx#4 $)

>  <Rbt.Library>
libRbt.so (2013.1, Build901 2013/11/27)

>  <Rbt.Parameter_File>
/export/apps/rDock/src/rDock_2013.1_src/data/scripts/dock_solv.prm

>  <Rbt.Receptor>
prm/pocket_docking_5.prm

>  <SCORE>
-13.1219

>  <SCORE.INTER>
-6.19973

>  <SCORE.INTER.CONST>
1

>  <SCORE.INTER.POLAR>
0

>  <SCORE.INTER.ROT>
6

>  <SCORE.INTER.SOLV>
11.7916

>  <SCORE.INTER.VDW>
-15.6637

>  <SCORE.INTER.norm>
-0.199991

>  <SCORE.INTRA>
-6.92214

>  <SCORE.INTRA.DIHEDRAL>
-13.4899

>  <SCORE.INTRA.DIHEDRAL.0>
19.2558

>  <SCORE.INTRA.POLAR>
0

>  <SCORE.INTRA.POLAR.0>
0

>  <SCORE.INTRA.REPUL>
0

>  <SCORE.INTRA.REPUL.0>
0

>  <SCORE.INTRA.SOLV>
-2.87909

>  <SCORE.INTRA.SOLV.lig_0>
-64.5929

>  <SCORE.INTRA.VDW>
1.26234

>  <SCORE.INTRA.VDW.0>
-4.40538

>  <SCORE.INTRA.norm>
-0.223295

>  <SCORE.RESTR>
0

>  <SCORE.RESTR.CAVITY>
0

>  <SCORE.RESTR.norm>
0

>  <SCORE.SYSTEM>
0

>  <SCORE.SYSTEM.CONST>
0

>  <SCORE.SYSTEM.DIHEDRAL>
0

>  <SCORE.SYSTEM.SOLV>
0

>  <SCORE.SYSTEM.norm>
0

>  <SCORE.heavy>
31

>  <SCORE.norm>
-0.423286

>  <RMSD>
8.147

$$$$
ligand
 OpenBabel11021811493D
libRbt.so/2013.1/901 2013/11/27
 31 33  0  0  0  0  0  0  0  0999 V2000
  -22.4169  -11.6051  -17.1133 C   0  0  2  0  0  0  0  0  0  0  0  0
  -23.0234  -12.3968  -16.1024 O   0  0  0  0  0  0  0  0  0  0  0  0
  -21.6426  -15.6722  -13.7487 C   0  0  2  0  0  0  0  0  0  0  0  0
  -21.2094  -16.9889  -13.4082 N   0  0  0  0  0  0  0  0  0  0  0  0
  -18.4683  -16.0809  -13.9323 C   0  0  2  0  0  0  0  0  0  0  0  0
  -23.0444  -10.1537  -17.0032 C   0  0  2  0  0  0  0  0  0  0  0  0
  -22.7803   -9.6120  -15.6620 N   0  0  0  0  0  0  0  0  0  0  0  0
  -23.0997  -15.7700  -14.3788 C   0  0  0  0  0  0  0  0  0  0  0  0
  -17.1307  -15.4450  -13.4276 C   0  0  2  0  0  0  0  0  0  0  0  0
  -17.4293  -14.6147  -12.3303 O   0  0  0  0  0  0  0  0  0  0  0  0
  -24.5969  -10.2195  -17.2897 C   0  0  0  0  0  0  0  0  0  0  0  0
  -23.5880  -14.2985  -14.7536 C   0  0  2  0  0  0  0  0  0  0  0  0
  -24.9453  -14.3662  -15.3371 N   0  0  0  0  0  0  0  0  0  0  0  0
  -16.4622  -14.6241  -14.6077 C   0  0  1  0  0  0  0  0  0  0  0  0
  -15.1730  -14.0005  -14.1392 N   0  0  0  0  0  0  0  0  0  0  0  0
  -24.9531  -11.2175  -18.4685 C   0  0  0  0  0  0  0  0  0  0  0  0
  -22.5823  -13.6753  -15.8068 C   0  0  2  0  0  0  0  0  0  0  0  0
  -16.1426  -15.6328  -15.8437 C   0  0  1  0  0  0  0  0  0  0  0  0
  -15.2438  -16.6675  -15.4990 O   0  0  0  0  0  0  0  0  0  0  0  0
  -24.0316  -12.0789  -18.9560 C   0  0  2  0  0  0  0  0  0  0  0  0
  -22.6947  -12.1429  -18.4487 O   0  0  0  0  0  0  0  0  0  0  0  0
  -21.1339  -13.6034  -15.1707 C   0  0  2  0  0  0  0  0  0  0  0  0
  -20.2248  -13.0467  -16.1348 O   0  0  0  0  0  0  0  0  0  0  0  0
  -17.4856  -16.2812  -16.3181 C   0  0  0  0  0  0  0  0  0  0  0  0
  -18.1917  -16.9541  -15.1426 O   0  0  0  0  0  0  0  0  0  0  0  0
  -24.3380  -13.0534  -20.0924 C   0  0  0  0  0  0  0  0  0  0  0  0
  -23.3630  -12.8496  -21.1269 O   0  0  0  0  0  0  0  0  0  0  0  0
  -20.6458  -15.0592  -14.7970 C   0  0  1  0  0  0  0  0  0  0  0  0
  -19.3556  -14.9516  -14.2206 O   0  0  0  0  0  0  0  0  0  0  0  0
  -15.5014  -14.9588  -17.0756 C   0  0  0  0  0  0  0  0  0  0  0  0
  -15.2609  -12.6193  -13.6233 C   0  0  0  0  0  0  0  0  0  0  0  0
  1  2  1  1  0  0  0
  1  6  1  0  0  0  0
  1 21  1  0  0  0  0
  3  4  1  6  0  0  0
  3  8  1  0  0  0  0
  3 28  1  0  0  0  0
  5  9  1  0  0  0  0
  5 25  1  0  0  0  0
  5 29  1  6  0  0  0
  6  7  1  1  0  0  0
  6 11  1  0  0  0  0
  8 12  1  0  0  0  0
  9 10  1  1  0  0  0
  9 14  1  0  0  0  0
 11 16  1  0  0  0  0
 12 13  1  6  0  0  0
 12 17  1  0  0  0  0
 14 15  1  1  0  0  0
 14 18  1  0  0  0  0
 15 31  1  0  0  0  0
 16 20  1  0  0  0  0
 17  2  1  1  0  0  0
 17 22  1  0  0  0  0
 18 19  1  1  0  0  0
 18 24  1  0  0  0  0
 18 30  1  0  0  0  0
 20 21  1  0  0  0  0
 20 26  1  6  0  0  0
 22 23  1  6  0  0  0
 22 28  1  0  0  0  0
 24 25  1  0  0  0  0
 26 27  1  0  0  0  0
 28 29  1  1  0  0  0
M  END
>  <CHROM.1>
-171.64845391,175.13804164,-93.16184550,-173.84698394,125.50826004,71.86967052
-20.48441691,-13.89554119,-15.82497962,-2.56713887,-0.07562964,2.24731368

>  <Name>
ligand

>  <RI>
0

>  <Rbt.Current_Directory>
/home/itssahil/PROJECTS/Mol_Feturizer/New_Systems/rnas/4GPW

>  <Rbt.Executable>
rbdock ($Id: //depot/dev/client3/rdock/2013.1/src/exe/rbdock.cxx#4 $)

>  <Rbt.Library>
libRbt.so (2013.1, Build901 2013/11/27)

>  <Rbt.Parameter_File>
/export/apps/rDock/src/rDock_2013.1_src/data/scripts/dock_solv.prm

>  <Rbt.Receptor>
prm/pocket_docking_5.prm

>  <SCORE>
-12.6889

>  <SCORE.INTER>
-4.91643

>  <SCORE.INTER.CONST>
1

>  <SCORE.INTER.POLAR>
0

>  <SCORE.INTER.ROT>
6

>  <SCORE.INTER.SOLV>
11.3626

>  <SCORE.INTER.VDW>
-14.6651

>  <SCORE.INTER.norm>
-0.158594

>  <SCORE.INTRA>
-7.78544

>  <SCORE.INTRA.DIHEDRAL>
-15.5083

>  <SCORE.INTRA.DIHEDRAL.0>
19.2558

>  <SCORE.INTRA.POLAR>
0

>  <SCORE.INTRA.POLAR.0>
0

>  <SCORE.INTRA.REPUL>
0

>  <SCORE.INTRA.REPUL.0>
0

>  <SCORE.INTRA.SOLV>
-2.48721

>  <SCORE.INTRA.SOLV.lig_0>
-64.5929

>  <SCORE.INTRA.VDW>
1.21234

>  <SCORE.INTRA.VDW.0>
-4.40538

>  <SCORE.INTRA.norm>
-0.251143

>  <SCORE.RESTR>
0.0129218

>  <SCORE.RESTR.CAVITY>
0.0129218

>  <SCORE.RESTR.norm>
0.000416833

>  <SCORE.SYSTEM>
0

>  <SCORE.SYSTEM.CONST>
0

>  <SCORE.SYSTEM.DIHEDRAL>
0

>  <SCORE.SYSTEM.SOLV>
0

>  <SCORE.SYSTEM.norm>
0

>  <SCORE.heavy>
31

>  <SCORE.norm>
-0.409321

>  <RMSD>
8.173

$$$$
ligand
 OpenBabel11021811493D
libRbt.so/2013.1/901 2013/11/27
 31 33  0  0  0  0  0  0  0  0999 V2000
  -22.2537  -11.5174  -17.2078 C   0  0  2  0  0  0  0  0  0  0  0  0
  -22.8652  -12.4445  -16.3229 O   0  0  0  0  0  0  0  0  0  0  0  0
  -21.3944  -15.8856  -14.2807 C   0  0  2  0  0  0  0  0  0  0  0  0
  -20.9105  -17.2110  -14.0654 N   0  0  0  0  0  0  0  0  0  0  0  0
  -18.2150  -16.1440  -14.3869 C   0  0  2  0  0  0  0  0  0  0  0  0
  -23.0130  -10.1375  -17.0293 C   0  0  2  0  0  0  0  0  0  0  0  0
  -22.9027   -9.7012  -15.6296 N   0  0  0  0  0  0  0  0  0  0  0  0
  -22.8303  -15.9789  -14.9584 C   0  0  0  0  0  0  0  0  0  0  0  0
  -16.9288  -15.5139  -13.7569 C   0  0  2  0  0  0  0  0  0  0  0  0
  -17.3114  -14.8047  -12.6021 O   0  0  0  0  0  0  0  0  0  0  0  0
  -24.5267  -10.3018  -17.4517 C   0  0  0  0  0  0  0  0  0  0  0  0
  -23.3754  -14.4984  -15.1934 C   0  0  2  0  0  0  0  0  0  0  0  0
  -24.7140  -14.5625  -15.8189 N   0  0  0  0  0  0  0  0  0  0  0  0
  -16.2384  -14.5597  -14.8180 C   0  0  1  0  0  0  0  0  0  0  0  0
  -14.9983  -13.9401  -14.2275 N   0  0  0  0  0  0  0  0  0  0  0  0
  -24.7010  -11.2133  -18.7367 C   0  0  0  0  0  0  0  0  0  0  0  0
  -22.3741  -13.7270  -16.1481 C   0  0  2  0  0  0  0  0  0  0  0  0
  -15.8213  -15.4321  -16.1265 C   0  0  1  0  0  0  0  0  0  0  0  0
  -14.8996  -16.4635  -15.8366 O   0  0  0  0  0  0  0  0  0  0  0  0
  -23.6723  -11.9494  -19.2149 C   0  0  2  0  0  0  0  0  0  0  0  0
  -22.3784  -11.9515  -18.6027 O   0  0  0  0  0  0  0  0  0  0  0  0
  -20.9458  -13.6604  -15.4673 C   0  0  2  0  0  0  0  0  0  0  0  0
  -20.0402  -12.9684  -16.3430 O   0  0  0  0  0  0  0  0  0  0  0  0
  -17.1137  -16.0779  -16.7280 C   0  0  0  0  0  0  0  0  0  0  0  0
  -17.8474  -16.8856  -15.6591 O   0  0  0  0  0  0  0  0  0  0  0  0
  -23.8025  -12.8373  -20.4517 C   0  0  0  0  0  0  0  0  0  0  0  0
  -23.5892  -14.1981  -20.0456 O   0  0  0  0  0  0  0  0  0  0  0  0
  -20.4017  -15.1252  -15.2318 C   0  0  1  0  0  0  0  0  0  0  0  0
  -19.1316  -15.0236  -14.6111 O   0  0  0  0  0  0  0  0  0  0  0  0
  -15.1497  -14.6201  -17.2546 C   0  0  0  0  0  0  0  0  0  0  0  0
  -15.1531  -12.5944  -13.6386 C   0  0  0  0  0  0  0  0  0  0  0  0
  1  2  1  1  0  0  0
  1  6  1  0  0  0  0
  1 21  1  0  0  0  0
  3  4  1  6  0  0  0
  3  8  1  0  0  0  0
  3 28  1  0  0  0  0
  5  9  1  0  0  0  0
  5 25  1  0  0  0  0
  5 29  1  6  0  0  0
  6  7  1  1  0  0  0
  6 11  1  0  0  0  0
  8 12  1  0  0  0  0
  9 10  1  1  0  0  0
  9 14  1  0  0  0  0
 11 16  1  0  0  0  0
 12 13  1  6  0  0  0
 12 17  1  0  0  0  0
 14 15  1  1  0  0  0
 14 18  1  0  0  0  0
 15 31  1  0  0  0  0
 16 20  1  0  0  0  0
 17  2  1  1  0  0  0
 17 22  1  0  0  0  0
 18 19  1  1  0  0  0
 18 24  1  0  0  0  0
 18 30  1  0  0  0  0
 20 21  1  0  0  0  0
 20 26  1  6  0  0  0
 22 23  1  6  0  0  0
 22 28  1  0  0  0  0
 24 25  1  0  0  0  0
 26 27  1  0  0  0  0
 28 29  1  1  0  0  0
M  END
>  <CHROM.1>
-174.78447547,176.70601405,-95.66657077,-175.24553045,-116.88149759,70.32710179
-20.27107317,-13.94079595,-16.07257541,-2.61581812,0.10510830,2.56158458

>  <Name>
ligand

>  <RI>
0

>  <Rbt.Current_Directory>
/home/itssahil/PROJECTS/Mol_Feturizer/New_Systems/rnas/4GPW

>  <Rbt.Executable>
rbdock ($Id: //depot/dev/client3/rdock/2013.1/src/exe/rbdock.cxx#4 $)

>  <Rbt.Library>
libRbt.so (2013.1, Build901 2013/11/27)

>  <Rbt.Parameter_File>
/export/apps/rDock/src/rDock_2013.1_src/data/scripts/dock_solv.prm

>  <Rbt.Receptor>
prm/pocket_docking_6.prm

>  <SCORE>
-13.5599

>  <SCORE.INTER>
-5.47501

>  <SCORE.INTER.CONST>
1

>  <SCORE.INTER.POLAR>
0

>  <SCORE.INTER.ROT>
6

>  <SCORE.INTER.SOLV>
8.41335

>  <SCORE.INTER.VDW>
-14.0545

>  <SCORE.INTER.norm>
-0.176613

>  <SCORE.INTRA>
-8.08492

>  <SCORE.INTRA.DIHEDRAL>
-15.9595

>  <SCORE.INTRA.DIHEDRAL.0>
19.2558

>  <SCORE.INTRA.POLAR>
0

>  <SCORE.INTRA.POLAR.0>
0

>  <SCORE.INTRA.REPUL>
0

>  <SCORE.INTRA.REPUL.0>
0

>  <SCORE.INTRA.SOLV>
-2.43703

>  <SCORE.INTRA.SOLV.lig_0>
-64.5929

>  <SCORE.INTRA.VDW>
1.11336

>  <SCORE.INTRA.VDW.0>
-4.40538

>  <SCORE.INTRA.norm>
-0.260804

>  <SCORE.RESTR>
0

>  <SCORE.RESTR.CAVITY>
0

>  <SCORE.RESTR.norm>
0

>  <SCORE.SYSTEM>
0

>  <SCORE.SYSTEM.CONST>
0

>  <SCORE.SYSTEM.DIHEDRAL>
0

>  <SCORE.SYSTEM.SOLV>
0

>  <SCORE.SYSTEM.norm>
0

>  <SCORE.heavy>
31

>  <SCORE.norm>
-0.437417

>  <RMSD>
8.182

$$$$
ligand
 OpenBabel11021811493D
libRbt.so/2013.1/901 2013/11/27
 31 33  0  0  0  0  0  0  0  0999 V2000
  -22.3992  -11.8908  -17.9483 C   0  0  2  0  0  0  0  0  0  0  0  0
  -22.3805  -11.1220  -16.7545 O   0  0  0  0  0  0  0  0  0  0  0  0
  -21.4764  -12.1506  -12.7172 C   0  0  2  0  0  0  0  0  0  0  0  0
  -21.6214  -12.7118  -11.4129 N   0  0  0  0  0  0  0  0  0  0  0  0
  -20.2055  -15.0219  -12.3770 C   0  0  2  0  0  0  0  0  0  0  0  0
  -22.5511  -10.8716  -19.1527 C   0  0  2  0  0  0  0  0  0  0  0  0
  -21.4228   -9.9291  -19.1351 N   0  0  0  0  0  0  0  0  0  0  0  0
  -22.6982  -11.1665  -12.9793 C   0  0  0  0  0  0  0  0  0  0  0  0
  -18.9212  -15.8696  -12.6605 C   0  0  2  0  0  0  0  0  0  0  0  0
  -17.8618  -14.9809  -12.9257 O   0  0  0  0  0  0  0  0  0  0  0  0
  -23.9281  -10.1058  -19.0345 C   0  0  0  0  0  0  0  0  0  0  0  0
  -22.5340  -10.5333  -14.4340 C   0  0  2  0  0  0  0  0  0  0  0  0
  -23.6586   -9.6093  -14.6963 N   0  0  0  0  0  0  0  0  0  0  0  0
  -19.1893  -16.8320  -13.8914 C   0  0  1  0  0  0  0  0  0  0  0  0
  -17.9611  -17.6551  -14.1822 N   0  0  0  0  0  0  0  0  0  0  0  0
  -25.1084  -11.0524  -18.5617 C   0  0  0  0  0  0  0  0  0  0  0  0
  -22.5372  -11.6994  -15.5061 C   0  0  2  0  0  0  0  0  0  0  0  0
  -20.4209  -17.8311  -13.5279 C   0  0  1  0  0  0  0  0  0  0  0  0
  -20.1578  -18.6540  -12.4094 O   0  0  0  0  0  0  0  0  0  0  0  0
  -24.8591  -12.2904  -18.0781 C   0  0  2  0  0  0  0  0  0  0  0  0
  -23.5338  -12.8194  -17.9654 O   0  0  0  0  0  0  0  0  0  0  0  0
  -21.3273  -12.6799  -15.2189 C   0  0  2  0  0  0  0  0  0  0  0  0
  -21.3422  -13.7406  -16.1886 O   0  0  0  0  0  0  0  0  0  0  0  0
  -21.6892  -16.9677  -13.2198 C   0  0  0  0  0  0  0  0  0  0  0  0
  -21.3811  -15.9481  -12.1249 O   0  0  0  0  0  0  0  0  0  0  0  0
  -25.9709  -13.2310  -17.6153 C   0  0  0  0  0  0  0  0  0  0  0  0
  -25.7217  -13.5713  -16.2426 O   0  0  0  0  0  0  0  0  0  0  0  0
  -21.4851  -13.3094  -13.7781 C   0  0  1  0  0  0  0  0  0  0  0  0
  -20.3799  -14.1679  -13.5542 O   0  0  0  0  0  0  0  0  0  0  0  0
  -20.8029  -18.8179  -14.6518 C   0  0  0  0  0  0  0  0  0  0  0  0
  -17.3510  -18.3533  -13.0324 C   0  0  0  0  0  0  0  0  0  0  0  0
  1  2  1  1  0  0  0
  1  6  1  0  0  0  0
  1 21  1  0  0  0  0
  3  4  1  1  0  0  0
  3  8  1  0  0  0  0
  3 28  1  0  0  0  0
  5  9  1  0  0  0  0
  5 25  1  0  0  0  0
  5 29  1  6  0  0  0
  6  7  1  1  0  0  0
  6 11  1  0  0  0  0
  8 12  1  0  0  0  0
  9 10  1  6  0  0  0
  9 14  1  0  0  0  0
 11 16  1  0  0  0  0
 12 13  1  6  0  0  0
 12 17  1  0  0  0  0
 14 15  1  1  0  0  0
 14 18  1  0  0  0  0
 15 31  1  0  0  0  0
 16 20  1  0  0  0  0
 17  2  1  6  0  0  0
 17 22  1  0  0  0  0
 18 19  1  1  0  0  0
 18 24  1  0  0  0  0
 18 30  1  0  0  0  0
 20 21  1  0  0  0  0
 20 26  1  6  0  0  0
 22 23  1  6  0  0  0
 22 28  1  0  0  0  0
 24 25  1  0  0  0  0
 26 27  1  0  0  0  0
 28 29  1  1  0  0  0
M  END
>  <CHROM.1>
166.32227660,174.57511194,50.04987510,-177.20643725,-121.97415157,66.66449968
-21.69861362,-13.77348540,-15.02266102,2.80896063,-1.01347635,0.52246327

>  <Name>
ligand

>  <RI>
0

>  <Rbt.Current_Directory>
/home/itssahil/PROJECTS/Mol_Feturizer/New_Systems/rnas/4GPW

>  <Rbt.Executable>
rbdock ($Id: //depot/dev/client3/rdock/2013.1/src/exe/rbdock.cxx#4 $)

>  <Rbt.Library>
libRbt.so (2013.1, Build901 2013/11/27)

>  <Rbt.Parameter_File>
/export/apps/rDock/src/rDock_2013.1_src/data/scripts/dock_solv.prm

>  <Rbt.Receptor>
prm/pocket_docking_3.prm

>  <SCORE>
-10.218

>  <SCORE.INTER>
-4.23687

>  <SCORE.INTER.CONST>
1

>  <SCORE.INTER.POLAR>
0

>  <SCORE.INTER.ROT>
6

>  <SCORE.INTER.SOLV>
14.1766

>  <SCORE.INTER.VDW>
-15.1501

>  <SCORE.INTER.norm>
-0.136673

>  <SCORE.INTRA>
-5.98189

>  <SCORE.INTRA.DIHEDRAL>
-16.1899

>  <SCORE.INTRA.DIHEDRAL.0>
19.2558

>  <SCORE.INTRA.POLAR>
0

>  <SCORE.INTRA.POLAR.0>
0

>  <SCORE.INTRA.REPUL>
0

>  <SCORE.INTRA.REPUL.0>
0

>  <SCORE.INTRA.SOLV>
-1.95982

>  <SCORE.INTRA.SOLV.lig_0>
-64.5929

>  <SCORE.INTRA.VDW>
3.09295

>  <SCORE.INTRA.VDW.0>
-4.40538

>  <SCORE.INTRA.norm>
-0.192964

>  <SCORE.RESTR>
0.000794328

>  <SCORE.RESTR.CAVITY>
0.000794328

>  <SCORE.RESTR.norm>
2.56235e-05

>  <SCORE.SYSTEM>
0

>  <SCORE.SYSTEM.CONST>
0

>  <SCORE.SYSTEM.DIHEDRAL>
0

>  <SCORE.SYSTEM.SOLV>
0

>  <SCORE.SYSTEM.norm>
0

>  <SCORE.heavy>
31

>  <SCORE.norm>
-0.329612

>  <RMSD>
8.185

$$$$
ligand
 OpenBabel11021811493D
libRbt.so/2013.1/901 2013/11/27
 31 33  0  0  0  0  0  0  0  0999 V2000
  -22.7407  -11.7749  -11.1761 C   0  0  2  0  0  0  0  0  0  0  0  0
  -21.5272  -11.1795  -11.6113 O   0  0  0  0  0  0  0  0  0  0  0  0
  -17.8936  -12.8801  -13.0531 C   0  0  2  0  0  0  0  0  0  0  0  0
  -16.6358  -13.5549  -13.0492 N   0  0  0  0  0  0  0  0  0  0  0  0
  -18.0447  -15.9460  -13.6778 C   0  0  2  0  0  0  0  0  0  0  0  0
  -23.8926  -10.7158  -11.4287 C   0  0  2  0  0  0  0  0  0  0  0  0
  -23.9380  -10.3815  -12.8598 N   0  0  0  0  0  0  0  0  0  0  0  0
  -17.7941  -11.6266  -12.0791 C   0  0  0  0  0  0  0  0  0  0  0  0
  -18.7084  -17.0802  -14.5271 C   0  0  2  0  0  0  0  0  0  0  0  0
  -19.2688  -16.4925  -15.6774 O   0  0  0  0  0  0  0  0  0  0  0  0
  -23.6327   -9.4249  -10.5555 C   0  0  0  0  0  0  0  0  0  0  0  0
  -19.1969  -10.8675  -12.0876 C   0  0  2  0  0  0  0  0  0  0  0  0
  -19.1244   -9.6935  -11.1910 N   0  0  0  0  0  0  0  0  0  0  0  0
  -19.8131  -17.8100  -13.6553 C   0  0  1  0  0  0  0  0  0  0  0  0
  -20.4668  -18.9047  -14.4584 N   0  0  0  0  0  0  0  0  0  0  0  0
  -23.0947   -9.7731   -9.1058 C   0  0  0  0  0  0  0  0  0  0  0  0
  -20.3223  -11.8604  -11.5807 C   0  0  2  0  0  0  0  0  0  0  0  0
  -19.1087  -18.4660  -12.3435 C   0  0  1  0  0  0  0  0  0  0  0  0
  -18.1290  -19.4330  -12.6634 O   0  0  0  0  0  0  0  0  0  0  0  0
  -22.6763  -11.0216   -8.7979 C   0  0  2  0  0  0  0  0  0  0  0  0
  -22.6939  -12.0940   -9.7457 O   0  0  0  0  0  0  0  0  0  0  0  0
  -20.3943  -13.1109  -12.5496 C   0  0  2  0  0  0  0  0  0  0  0  0
  -21.4100  -14.0121  -12.0783 O   0  0  0  0  0  0  0  0  0  0  0  0
  -18.4261  -17.3234  -11.5202 C   0  0  0  0  0  0  0  0  0  0  0  0
  -17.4625  -16.5365  -12.4066 O   0  0  0  0  0  0  0  0  0  0  0  0
  -22.1538  -11.3945   -7.4112 C   0  0  0  0  0  0  0  0  0  0  0  0
  -23.0855  -12.3120   -6.8177 O   0  0  0  0  0  0  0  0  0  0  0  0
  -19.0063  -13.8661  -12.5452 C   0  0  1  0  0  0  0  0  0  0  0  0
  -19.1067  -14.9676  -13.4312 O   0  0  0  0  0  0  0  0  0  0  0  0
  -20.0775  -19.1985  -11.3907 C   0  0  0  0  0  0  0  0  0  0  0  0
  -21.7494  -18.5662  -15.1081 C   0  0  0  0  0  0  0  0  0  0  0  0
  1  2  1  1  0  0  0
  1  6  1  0  0  0  0
  1 21  1  0  0  0  0
  3  4  1  1  0  0  0
  3  8  1  0  0  0  0
  3 28  1  0  0  0  0
  5  9  1  0  0  0  0
  5 25  1  0  0  0  0
  5 29  1  1  0  0  0
  6  7  1  6  0  0  0
  6 11  1  0  0  0  0
  8 12  1  0  0  0  0
  9 10  1  6  0  0  0
  9 14  1  0  0  0  0
 11 16  1  0  0  0  0
 12 13  1  1  0  0  0
 12 17  1  0  0  0  0
 14 15  1  6  0  0  0
 14 18  1  0  0  0  0
 15 31  1  0  0  0  0
 16 20  1  0  0  0  0
 17  2  1  6  0  0  0
 17 22  1  0  0  0  0
 18 19  1  6  0  0  0
 18 24  1  0  0  0  0
 18 30  1  0  0  0  0
 20 21  1  0  0  0  0
 20 26  1  1  0  0  0
 22 23  1  1  0  0  0
 22 28  1  0  0  0  0
 24 25  1  0  0  0  0
 26 27  1  0  0  0  0
 28 29  1  6  0  0  0
M  END
>  <CHROM.1>
-177.37516630,170.72396653,-97.16649881,-177.99498552,113.29411858,63.77137359
-20.38360931,-13.98557263,-11.94465446,2.07042753,0.59293531,0.17060235

>  <Name>
ligand

>  <RI>
0

>  <Rbt.Current_Directory>
/home/itssahil/PROJECTS/Mol_Feturizer/New_Systems/rnas/4GPW

>  <Rbt.Executable>
rbdock ($Id: //depot/dev/client3/rdock/2013.1/src/exe/rbdock.cxx#4 $)

>  <Rbt.Library>
libRbt.so (2013.1, Build901 2013/11/27)

>  <Rbt.Parameter_File>
/export/apps/rDock/src/rDock_2013.1_src/data/scripts/dock_solv.prm

>  <Rbt.Receptor>
prm/pocket_docking_8.prm

>  <SCORE>
-14.7806

>  <SCORE.INTER>
-7.09518

>  <SCORE.INTER.CONST>
1

>  <SCORE.INTER.POLAR>
0

>  <SCORE.INTER.ROT>
6

>  <SCORE.INTER.SOLV>
13.4665

>  <SCORE.INTER.VDW>
-16.819

>  <SCORE.INTER.norm>
-0.228877

>  <SCORE.INTRA>
-7.68546

>  <SCORE.INTRA.DIHEDRAL>
-16.1385

>  <SCORE.INTRA.DIHEDRAL.0>
19.2558

>  <SCORE.INTRA.POLAR>
0

>  <SCORE.INTRA.POLAR.0>
0

>  <SCORE.INTRA.REPUL>
0

>  <SCORE.INTRA.REPUL.0>
0

>  <SCORE.INTRA.SOLV>
-2.305

>  <SCORE.INTRA.SOLV.lig_0>
-64.5929

>  <SCORE.INTRA.VDW>
1.5363

>  <SCORE.INTRA.VDW.0>
-4.40538

>  <SCORE.INTRA.norm>
-0.247918

>  <SCORE.RESTR>
0

>  <SCORE.RESTR.CAVITY>
0

>  <SCORE.RESTR.norm>
0

>  <SCORE.SYSTEM>
0

>  <SCORE.SYSTEM.CONST>
0

>  <SCORE.SYSTEM.DIHEDRAL>
0

>  <SCORE.SYSTEM.SOLV>
0

>  <SCORE.SYSTEM.norm>
0

>  <SCORE.heavy>
31

>  <SCORE.norm>
-0.476795

>  <RMSD>
8.192

$$$$
ligand
 OpenBabel11021811493D
libRbt.so/2013.1/901 2013/11/27
 31 33  0  0  0  0  0  0  0  0999 V2000
  -22.2377  -11.5215  -17.2239 C   0  0  2  0  0  0  0  0  0  0  0  0
  -22.8231  -12.4276  -16.3005 O   0  0  0  0  0  0  0  0  0  0  0  0
  -21.3129  -15.8512  -14.2577 C   0  0  2  0  0  0  0  0  0  0  0  0
  -20.8337  -17.1778  -14.0389 N   0  0  0  0  0  0  0  0  0  0  0  0
  -18.1446  -16.1426  -14.4635 C   0  0  2  0  0  0  0  0  0  0  0  0
  -22.9922  -10.1377  -17.0560 C   0  0  2  0  0  0  0  0  0  0  0  0
  -22.8420   -9.6689  -15.6705 N   0  0  0  0  0  0  0  0  0  0  0  0
  -22.7724  -15.9411  -14.8835 C   0  0  0  0  0  0  0  0  0  0  0  0
  -16.8571  -15.5243  -13.8247 C   0  0  2  0  0  0  0  0  0  0  0  0
  -17.2392  -14.8235  -12.6647 O   0  0  0  0  0  0  0  0  0  0  0  0
  -24.5172  -10.3114  -17.4309 C   0  0  0  0  0  0  0  0  0  0  0  0
  -23.3120  -14.4592  -15.1223 C   0  0  2  0  0  0  0  0  0  0  0  0
  -24.6722  -14.5200  -15.6997 N   0  0  0  0  0  0  0  0  0  0  0  0
  -16.1595  -14.5640  -14.8757 C   0  0  1  0  0  0  0  0  0  0  0  0
  -14.9179  -13.9555  -14.2767 N   0  0  0  0  0  0  0  0  0  0  0  0
  -24.7278  -11.2526  -18.6888 C   0  0  0  0  0  0  0  0  0  0  0  0
  -22.3378  -13.7119  -16.1231 C   0  0  2  0  0  0  0  0  0  0  0  0
  -15.7433  -15.4268  -16.1908 C   0  0  1  0  0  0  0  0  0  0  0  0
  -14.8272  -16.4651  -15.9078 O   0  0  0  0  0  0  0  0  0  0  0  0
  -23.7129  -11.9998  -19.1790 C   0  0  2  0  0  0  0  0  0  0  0  0
  -22.4020  -11.9880  -18.6042 O   0  0  0  0  0  0  0  0  0  0  0  0
  -20.8861  -13.6487  -15.4936 C   0  0  2  0  0  0  0  0  0  0  0  0
  -20.0054  -12.9787  -16.4108 O   0  0  0  0  0  0  0  0  0  0  0  0
  -17.0372  -16.0611  -16.8012 C   0  0  0  0  0  0  0  0  0  0  0  0
  -17.7774  -16.8747  -15.7413 O   0  0  0  0  0  0  0  0  0  0  0  0
  -23.8780  -12.9163  -20.3905 C   0  0  0  0  0  0  0  0  0  0  0  0
  -23.6971  -14.2712  -19.9502 O   0  0  0  0  0  0  0  0  0  0  0  0
  -20.3472  -15.1148  -15.2544 C   0  0  1  0  0  0  0  0  0  0  0  0
  -19.0553  -15.0160  -14.6800 O   0  0  0  0  0  0  0  0  0  0  0  0
  -15.0650  -14.6081  -17.3101 C   0  0  0  0  0  0  0  0  0  0  0  0
  -15.0606  -12.6013  -13.7045 C   0  0  0  0  0  0  0  0  0  0  0  0
  1  2  1  1  0  0  0
  1  6  1  0  0  0  0
  1 21  1  0  0  0  0
  3  4  1  6  0  0  0
  3  8  1  0  0  0  0
  3 28  1  0  0  0  0
  5  9  1  0  0  0  0
  5 25  1  0  0  0  0
  5 29  1  6  0  0  0
  6  7  1  1  0  0  0
  6 11  1  0  0  0  0
  8 12  1  0  0  0  0
  9 10  1  1  0  0  0
  9 14  1  0  0  0  0
 11 16  1  0  0  0  0
 12 13  1  6  0  0  0
 12 17  1  0  0  0  0
 14 15  1  1  0  0  0
 14 18  1  0  0  0  0
 15 31  1  0  0  0  0
 16 20  1  0  0  0  0
 17  2  1  1  0  0  0
 17 22  1  0  0  0  0
 18 19  1  1  0  0  0
 18 24  1  0  0  0  0
 18 30  1  0  0  0  0
 20 21  1  0  0  0  0
 20 26  1  6  0  0  0
 22 23  1  6  0  0  0
 22 28  1  0  0  0  0
 24 25  1  0  0  0  0
 26 27  1  0  0  0  0
 28 29  1  1  0  0  0
M  END
>  <CHROM.1>
-175.67399665,179.46249742,-97.05086214,-175.01277256,-114.97079578,69.95673846
-20.22948037,-13.94241059,-16.08521009,-2.62852586,0.09151184,2.55743359

>  <Name>
ligand

>  <RI>
0

>  <Rbt.Current_Directory>
/home/itssahil/PROJECTS/Mol_Feturizer/New_Systems/rnas/4GPW

>  <Rbt.Executable>
rbdock ($Id: //depot/dev/client3/rdock/2013.1/src/exe/rbdock.cxx#4 $)

>  <Rbt.Library>
libRbt.so (2013.1, Build901 2013/11/27)

>  <Rbt.Parameter_File>
/export/apps/rDock/src/rDock_2013.1_src/data/scripts/dock_solv.prm

>  <Rbt.Receptor>
prm/pocket_docking_8.prm

>  <SCORE>
-13.5279

>  <SCORE.INTER>
-5.41209

>  <SCORE.INTER.CONST>
1

>  <SCORE.INTER.POLAR>
0

>  <SCORE.INTER.ROT>
6

>  <SCORE.INTER.SOLV>
8.55117

>  <SCORE.INTER.VDW>
-14.0585

>  <SCORE.INTER.norm>
-0.174584

>  <SCORE.INTRA>
-8.11584

>  <SCORE.INTRA.DIHEDRAL>
-16.0158

>  <SCORE.INTRA.DIHEDRAL.0>
19.2558

>  <SCORE.INTRA.POLAR>
0

>  <SCORE.INTRA.POLAR.0>
0

>  <SCORE.INTRA.REPUL>
0

>  <SCORE.INTRA.REPUL.0>
0

>  <SCORE.INTRA.SOLV>
-2.44835

>  <SCORE.INTRA.SOLV.lig_0>
-64.5929

>  <SCORE.INTRA.VDW>
1.11625

>  <SCORE.INTRA.VDW.0>
-4.40538

>  <SCORE.INTRA.norm>
-0.261801

>  <SCORE.RESTR>
0

>  <SCORE.RESTR.CAVITY>
0

>  <SCORE.RESTR.norm>
0

>  <SCORE.SYSTEM>
0

>  <SCORE.SYSTEM.CONST>
0

>  <SCORE.SYSTEM.DIHEDRAL>
0

>  <SCORE.SYSTEM.SOLV>
0

>  <SCORE.SYSTEM.norm>
0

>  <SCORE.heavy>
31

>  <SCORE.norm>
-0.436385

>  <RMSD>
8.202

$$$$
ligand
 OpenBabel11021811493D
libRbt.so/2013.1/901 2013/11/27
 31 33  0  0  0  0  0  0  0  0999 V2000
  -24.2365  -13.0445  -17.4599 C   0  0  2  0  0  0  0  0  0  0  0  0
  -22.9069  -13.1448  -16.9715 O   0  0  0  0  0  0  0  0  0  0  0  0
  -21.3353  -15.7269  -13.9652 C   0  0  2  0  0  0  0  0  0  0  0  0
  -20.8543  -16.9147  -13.3368 N   0  0  0  0  0  0  0  0  0  0  0  0
  -18.1041  -16.1422  -14.3738 C   0  0  2  0  0  0  0  0  0  0  0  0
  -24.1802  -12.1667  -18.7785 C   0  0  2  0  0  0  0  0  0  0  0  0
  -23.2937  -12.8161  -19.7554 N   0  0  0  0  0  0  0  0  0  0  0  0
  -22.8182  -15.9935  -14.4750 C   0  0  0  0  0  0  0  0  0  0  0  0
  -16.8942  -15.3677  -13.7536 C   0  0  2  0  0  0  0  0  0  0  0  0
  -17.3738  -14.6026  -12.6732 O   0  0  0  0  0  0  0  0  0  0  0  0
  -23.6685  -10.7127  -18.4313 C   0  0  0  0  0  0  0  0  0  0  0  0
  -23.3596  -14.6646  -15.1716 C   0  0  2  0  0  0  0  0  0  0  0  0
  -24.7413  -14.8894  -15.6489 N   0  0  0  0  0  0  0  0  0  0  0  0
  -16.2352  -14.4483  -14.8643 C   0  0  1  0  0  0  0  0  0  0  0  0
  -15.0689  -13.6908  -14.2843 N   0  0  0  0  0  0  0  0  0  0  0  0
  -24.2678  -10.1697  -17.0680 C   0  0  0  0  0  0  0  0  0  0  0  0
  -22.4211  -14.3066  -16.3964 C   0  0  2  0  0  0  0  0  0  0  0  0
  -15.7029  -15.3849  -16.0837 C   0  0  1  0  0  0  0  0  0  0  0  0
  -14.7193  -16.3164  -15.6810 O   0  0  0  0  0  0  0  0  0  0  0  0
  -24.9208  -10.9922  -16.2161 C   0  0  2  0  0  0  0  0  0  0  0  0
  -25.1125  -12.3846  -16.4868 O   0  0  0  0  0  0  0  0  0  0  0  0
  -20.9460  -14.0638  -15.8739 C   0  0  2  0  0  0  0  0  0  0  0  0
  -20.0980  -13.7495  -16.9911 O   0  0  0  0  0  0  0  0  0  0  0  0
  -16.9189  -16.1732  -16.6743 C   0  0  0  0  0  0  0  0  0  0  0  0
  -17.6323  -16.9498  -15.5692 O   0  0  0  0  0  0  0  0  0  0  0  0
  -25.5134  -10.5041  -14.8949 C   0  0  0  0  0  0  0  0  0  0  0  0
  -24.8316   -9.2965  -14.5218 O   0  0  0  0  0  0  0  0  0  0  0  0
  -20.4052  -15.3776  -15.1822 C   0  0  1  0  0  0  0  0  0  0  0  0
  -19.0918  -15.1167  -14.7180 O   0  0  0  0  0  0  0  0  0  0  0  0
  -15.0494  -14.6135  -17.2502 C   0  0  0  0  0  0  0  0  0  0  0  0
  -15.3765  -12.3866  -13.6627 C   0  0  0  0  0  0  0  0  0  0  0  0
  1  2  1  1  0  0  0
  1  6  1  0  0  0  0
  1 21  1  0  0  0  0
  3  4  1  6  0  0  0
  3  8  1  0  0  0  0
  3 28  1  0  0  0  0
  5  9  1  0  0  0  0
  5 25  1  0  0  0  0
  5 29  1  6  0  0  0
  6  7  1  6  0  0  0
  6 11  1  0  0  0  0
  8 12  1  0  0  0  0
  9 10  1  1  0  0  0
  9 14  1  0  0  0  0
 11 16  1  0  0  0  0
 12 13  1  6  0  0  0
 12 17  1  0  0  0  0
 14 15  1  1  0  0  0
 14 18  1  0  0  0  0
 15 31  1  0  0  0  0
 16 20  1  0  0  0  0
 17  2  1  1  0  0  0
 17 22  1  0  0  0  0
 18 19  1  1  0  0  0
 18 24  1  0  0  0  0
 18 30  1  0  0  0  0
 20 21  1  0  0  0  0
 20 26  1  6  0  0  0
 22 23  1  6  0  0  0
 22 28  1  0  0  0  0
 24 25  1  0  0  0  0
 26 27  1  0  0  0  0
 28 29  1  1  0  0  0
M  END
>  <CHROM.1>
-142.48121440,-173.15700558,-88.49228233,-57.52214464,-22.03531272,80.23837316
-20.55263722,-13.92371232,-15.70610130,-2.70988818,-0.04681300,2.57888387

>  <Name>
ligand

>  <RI>
0

>  <Rbt.Current_Directory>
/home/itssahil/PROJECTS/Mol_Feturizer/New_Systems/rnas/4GPW

>  <Rbt.Executable>
rbdock ($Id: //depot/dev/client3/rdock/2013.1/src/exe/rbdock.cxx#4 $)

>  <Rbt.Library>
libRbt.so (2013.1, Build901 2013/11/27)

>  <Rbt.Parameter_File>
/export/apps/rDock/src/rDock_2013.1_src/data/scripts/dock_solv.prm

>  <Rbt.Receptor>
prm/pocket_docking_7.prm

>  <SCORE>
-9.38977

>  <SCORE.INTER>
-7.56093

>  <SCORE.INTER.CONST>
1

>  <SCORE.INTER.POLAR>
0

>  <SCORE.INTER.ROT>
6

>  <SCORE.INTER.SOLV>
10.5042

>  <SCORE.INTER.VDW>
-16.142

>  <SCORE.INTER.norm>
-0.243901

>  <SCORE.INTRA>
-1.82884

>  <SCORE.INTRA.DIHEDRAL>
-9.36443

>  <SCORE.INTRA.DIHEDRAL.0>
19.2558

>  <SCORE.INTRA.POLAR>
0

>  <SCORE.INTRA.POLAR.0>
0

>  <SCORE.INTRA.REPUL>
0

>  <SCORE.INTRA.REPUL.0>
0

>  <SCORE.INTRA.SOLV>
-0.586498

>  <SCORE.INTRA.SOLV.lig_0>
-64.5929

>  <SCORE.INTRA.VDW>
3.14663

>  <SCORE.INTRA.VDW.0>
-4.40538

>  <SCORE.INTRA.norm>
-0.0589947

>  <SCORE.RESTR>
0

>  <SCORE.RESTR.CAVITY>
0

>  <SCORE.RESTR.norm>
0

>  <SCORE.SYSTEM>
0

>  <SCORE.SYSTEM.CONST>
0

>  <SCORE.SYSTEM.DIHEDRAL>
0

>  <SCORE.SYSTEM.SOLV>
0

>  <SCORE.SYSTEM.norm>
0

>  <SCORE.heavy>
31

>  <SCORE.norm>
-0.302896

>  <RMSD>
8.207

$$$$
ligand
 OpenBabel11021811493D
libRbt.so/2013.1/901 2013/11/27
 31 33  0  0  0  0  0  0  0  0999 V2000
  -22.2030  -10.0478  -15.3317 C   0  0  2  0  0  0  0  0  0  0  0  0
  -22.7535  -11.1073  -14.5629 O   0  0  0  0  0  0  0  0  0  0  0  0
  -21.8236  -15.2435  -14.1137 C   0  0  2  0  0  0  0  0  0  0  0  0
  -21.6641  -16.6240  -14.4393 N   0  0  0  0  0  0  0  0  0  0  0  0
  -18.9979  -15.1829  -13.5248 C   0  0  2  0  0  0  0  0  0  0  0  0
  -22.8852   -8.7083  -14.8289 C   0  0  2  0  0  0  0  0  0  0  0  0
  -22.6114   -8.5337  -13.3949 N   0  0  0  0  0  0  0  0  0  0  0  0
  -23.3446  -14.8437  -14.3520 C   0  0  0  0  0  0  0  0  0  0  0  0
  -17.4650  -14.8745  -13.5820 C   0  0  2  0  0  0  0  0  0  0  0  0
  -17.3060  -13.5022  -13.8546 O   0  0  0  0  0  0  0  0  0  0  0  0
  -24.4401   -8.7644  -15.1038 C   0  0  0  0  0  0  0  0  0  0  0  0
  -23.5260  -13.3028  -13.9820 C   0  0  2  0  0  0  0  0  0  0  0  0
  -24.9367  -12.9111  -14.1916 N   0  0  0  0  0  0  0  0  0  0  0  0
  -16.7920  -15.7678  -14.7055 C   0  0  1  0  0  0  0  0  0  0  0  0
  -15.3143  -15.4820  -14.7782 N   0  0  0  0  0  0  0  0  0  0  0  0
  -24.7839   -9.4258  -16.5027 C   0  0  0  0  0  0  0  0  0  0  0  0
  -22.5846  -12.4354  -14.9151 C   0  0  2  0  0  0  0  0  0  0  0  0
  -17.0089  -17.3380  -14.3383 C   0  0  1  0  0  0  0  0  0  0  0  0
  -16.4199  -17.7079  -13.1080 O   0  0  0  0  0  0  0  0  0  0  0  0
  -23.8406  -10.0834  -17.2144 C   0  0  2  0  0  0  0  0  0  0  0  0
  -22.4905  -10.2208  -16.7590 O   0  0  0  0  0  0  0  0  0  0  0  0
  -21.0771  -12.8595  -14.6797 C   0  0  2  0  0  0  0  0  0  0  0  0
  -20.2297  -12.0761  -15.5363 O   0  0  0  0  0  0  0  0  0  0  0  0
  -18.5454  -17.6235  -14.2572 C   0  0  0  0  0  0  0  0  0  0  0  0
  -19.2098  -16.6643  -13.2714 O   0  0  0  0  0  0  0  0  0  0  0  0
  -24.1346  -10.7311  -18.5667 C   0  0  0  0  0  0  0  0  0  0  0  0
  -23.9034  -12.1430  -18.4424 O   0  0  0  0  0  0  0  0  0  0  0  0
  -20.8924  -14.3860  -15.0443 C   0  0  1  0  0  0  0  0  0  0  0  0
  -19.5378  -14.7295  -14.8087 O   0  0  0  0  0  0  0  0  0  0  0  0
  -16.4146  -18.3273  -15.3636 C   0  0  0  0  0  0  0  0  0  0  0  0
  -14.7233  -15.4188  -16.1305 C   0  0  0  0  0  0  0  0  0  0  0  0
  1  2  1  1  0  0  0
  1  6  1  0  0  0  0
  1 21  1  0  0  0  0
  3  4  1  6  0  0  0
  3  8  1  0  0  0  0
  3 28  1  0  0  0  0
  5  9  1  0  0  0  0
  5 25  1  0  0  0  0
  5 29  1  6  0  0  0
  6  7  1  1  0  0  0
  6 11  1  0  0  0  0
  8 12  1  0  0  0  0
  9 10  1  6  0  0  0
  9 14  1  0  0  0  0
 11 16  1  0  0  0  0
 12 13  1  6  0  0  0
 12 17  1  0  0  0  0
 14 15  1  1  0  0  0
 14 18  1  0  0  0  0
 15 31  1  0  0  0  0
 16 20  1  0  0  0  0
 17  2  1  1  0  0  0
 17 22  1  0  0  0  0
 18 19  1  1  0  0  0
 18 24  1  0  0  0  0
 18 30  1  0  0  0  0
 20 21  1  0  0  0  0
 20 26  1  6  0  0  0
 22 23  1  6  0  0  0
 22 28  1  0  0  0  0
 24 25  1  0  0  0  0
 26 27  1  0  0  0  0
 28 29  1  1  0  0  0
M  END
>  <CHROM.1>
166.74096223,-157.41795496,-139.72150775,-170.66831447,-118.16943351,-30.94417276
-20.67152302,-13.46566598,-14.97320764,-2.37530760,-0.01311940,2.88972291

>  <Name>
ligand

>  <RI>
0

>  <Rbt.Current_Directory>
/home/itssahil/PROJECTS/Mol_Feturizer/New_Systems/rnas/4GPW

>  <Rbt.Executable>
rbdock ($Id: //depot/dev/client3/rdock/2013.1/src/exe/rbdock.cxx#4 $)

>  <Rbt.Library>
libRbt.so (2013.1, Build901 2013/11/27)

>  <Rbt.Parameter_File>
/export/apps/rDock/src/rDock_2013.1_src/data/scripts/dock_solv.prm

>  <Rbt.Receptor>
prm/pocket_docking_8.prm

>  <SCORE>
-7.77003

>  <SCORE.INTER>
-3.86535

>  <SCORE.INTER.CONST>
1

>  <SCORE.INTER.POLAR>
0

>  <SCORE.INTER.ROT>
6

>  <SCORE.INTER.SOLV>
14.4196

>  <SCORE.INTER.VDW>
-14.9834

>  <SCORE.INTER.norm>
-0.124689

>  <SCORE.INTRA>
-3.90468

>  <SCORE.INTRA.DIHEDRAL>
-9.74299

>  <SCORE.INTRA.DIHEDRAL.0>
19.2558

>  <SCORE.INTRA.POLAR>
0

>  <SCORE.INTRA.POLAR.0>
0

>  <SCORE.INTRA.REPUL>
0

>  <SCORE.INTRA.REPUL.0>
0

>  <SCORE.INTRA.SOLV>
-0.785229

>  <SCORE.INTRA.SOLV.lig_0>
-64.5929

>  <SCORE.INTRA.VDW>
1.35943

>  <SCORE.INTRA.VDW.0>
-4.40538

>  <SCORE.INTRA.norm>
-0.125957

>  <SCORE.RESTR>
0

>  <SCORE.RESTR.CAVITY>
0

>  <SCORE.RESTR.norm>
0

>  <SCORE.SYSTEM>
0

>  <SCORE.SYSTEM.CONST>
0

>  <SCORE.SYSTEM.DIHEDRAL>
0

>  <SCORE.SYSTEM.SOLV>
0

>  <SCORE.SYSTEM.norm>
0

>  <SCORE.heavy>
31

>  <SCORE.norm>
-0.250646

>  <RMSD>
8.225

$$$$
ligand
 OpenBabel11021811493D
libRbt.so/2013.1/901 2013/11/27
 31 33  0  0  0  0  0  0  0  0999 V2000
  -23.0390  -13.2222  -15.4484 C   0  0  2  0  0  0  0  0  0  0  0  0
  -22.8236  -12.6201  -16.7164 O   0  0  0  0  0  0  0  0  0  0  0  0
  -19.4298  -10.7664  -18.5108 C   0  0  2  0  0  0  0  0  0  0  0  0
  -18.4078   -9.8032  -18.7662 N   0  0  0  0  0  0  0  0  0  0  0  0
  -16.7211  -11.2855  -16.9046 C   0  0  2  0  0  0  0  0  0  0  0  0
  -24.2363  -14.2465  -15.6199 C   0  0  2  0  0  0  0  0  0  0  0  0
  -23.8778  -15.2451  -16.6378 N   0  0  0  0  0  0  0  0  0  0  0  0
  -20.8429  -10.0563  -18.6807 C   0  0  0  0  0  0  0  0  0  0  0  0
  -15.6753  -12.3996  -16.5680 C   0  0  2  0  0  0  0  0  0  0  0  0
  -15.8218  -13.4346  -17.5114 O   0  0  0  0  0  0  0  0  0  0  0  0
  -25.5499  -13.4697  -16.0293 C   0  0  0  0  0  0  0  0  0  0  0  0
  -21.9862  -11.1331  -18.4022 C   0  0  2  0  0  0  0  0  0  0  0  0
  -23.3105  -10.4940  -18.5604 N   0  0  0  0  0  0  0  0  0  0  0  0
  -15.9239  -12.9238  -15.0927 C   0  0  1  0  0  0  0  0  0  0  0  0
  -14.9273  -14.0012  -14.7511 N   0  0  0  0  0  0  0  0  0  0  0  0
  -25.7055  -12.0946  -15.2565 C   0  0  0  0  0  0  0  0  0  0  0  0
  -21.8285  -11.6805  -16.9242 C   0  0  2  0  0  0  0  0  0  0  0  0
  -15.7430  -11.6873  -14.0507 C   0  0  1  0  0  0  0  0  0  0  0  0
  -14.4473  -11.1235  -14.0763 O   0  0  0  0  0  0  0  0  0  0  0  0
  -24.6806  -11.5746  -14.5440 C   0  0  2  0  0  0  0  0  0  0  0  0
  -23.4087  -12.2232  -14.4409 O   0  0  0  0  0  0  0  0  0  0  0  0
  -20.4097  -12.3662  -16.7670 C   0  0  2  0  0  0  0  0  0  0  0  0
  -20.2692  -12.8515  -15.4214 O   0  0  0  0  0  0  0  0  0  0  0  0
  -16.7761  -10.5706  -14.4178 C   0  0  0  0  0  0  0  0  0  0  0  0
  -16.6202  -10.1675  -15.8830 O   0  0  0  0  0  0  0  0  0  0  0  0
  -24.7945  -10.2533  -13.7849 C   0  0  0  0  0  0  0  0  0  0  0  0
  -24.6049  -10.5261  -12.3878 O   0  0  0  0  0  0  0  0  0  0  0  0
  -19.2733  -11.3033  -17.0427 C   0  0  1  0  0  0  0  0  0  0  0  0
  -18.0231  -11.9566  -16.9055 O   0  0  0  0  0  0  0  0  0  0  0  0
  -15.9752  -12.0542  -12.5693 C   0  0  0  0  0  0  0  0  0  0  0  0
  -15.2789  -15.3754  -15.1628 C   0  0  0  0  0  0  0  0  0  0  0  0
  1  2  1  6  0  0  0
  1  6  1  0  0  0  0
  1 21  1  0  0  0  0
  3  4  1  1  0  0  0
  3  8  1  0  0  0  0
  3 28  1  0  0  0  0
  5  9  1  0  0  0  0
  5 25  1  0  0  0  0
  5 29  1  1  0  0  0
  6  7  1  6  0  0  0
  6 11  1  0  0  0  0
  8 12  1  0  0  0  0
  9 10  1  6  0  0  0
  9 14  1  0  0  0  0
 11 16  1  0  0  0  0
 12 13  1  1  0  0  0
 12 17  1  0  0  0  0
 14 15  1  1  0  0  0
 14 18  1  0  0  0  0
 15 31  1  0  0  0  0
 16 20  1  0  0  0  0
 17  2  1  6  0  0  0
 17 22  1  0  0  0  0
 18 19  1  6  0  0  0
 18 24  1  0  0  0  0
 18 30  1  0  0  0  0
 20 21  1  0  0  0  0
 20 26  1  1  0  0  0
 22 23  1  1  0  0  0
 22 28  1  0  0  0  0
 24 25  1  0  0  0  0
 26 27  1  0  0  0  0
 28 29  1  6  0  0  0
M  END
>  <CHROM.1>
-179.13499463,173.86384252,-85.42006028,-174.34293998,117.75575949,70.32665871
-19.98736813,-12.03127528,-15.89554949,3.12221933,0.00602240,-1.25611591

>  <Name>
ligand

>  <RI>
0

>  <Rbt.Current_Directory>
/home/itssahil/PROJECTS/Mol_Feturizer/New_Systems/rnas/4GPW

>  <Rbt.Executable>
rbdock ($Id: //depot/dev/client3/rdock/2013.1/src/exe/rbdock.cxx#4 $)

>  <Rbt.Library>
libRbt.so (2013.1, Build901 2013/11/27)

>  <Rbt.Parameter_File>
/export/apps/rDock/src/rDock_2013.1_src/data/scripts/dock_solv.prm

>  <Rbt.Receptor>
prm/pocket_docking_6.prm

>  <SCORE>
-12.7363

>  <SCORE.INTER>
-4.77978

>  <SCORE.INTER.CONST>
1

>  <SCORE.INTER.POLAR>
0

>  <SCORE.INTER.ROT>
6

>  <SCORE.INTER.SOLV>
8.03673

>  <SCORE.INTER.VDW>
-13.4654

>  <SCORE.INTER.norm>
-0.154187

>  <SCORE.INTRA>
-7.95652

>  <SCORE.INTRA.DIHEDRAL>
-16.2363

>  <SCORE.INTRA.DIHEDRAL.0>
19.2558

>  <SCORE.INTRA.POLAR>
0

>  <SCORE.INTRA.POLAR.0>
0

>  <SCORE.INTRA.REPUL>
0

>  <SCORE.INTRA.REPUL.0>
0

>  <SCORE.INTRA.SOLV>
-2.45376

>  <SCORE.INTRA.SOLV.lig_0>
-64.5929

>  <SCORE.INTRA.VDW>
1.38849

>  <SCORE.INTRA.VDW.0>
-4.40538

>  <SCORE.INTRA.norm>
-0.256662

>  <SCORE.RESTR>
0

>  <SCORE.RESTR.CAVITY>
0

>  <SCORE.RESTR.norm>
0

>  <SCORE.SYSTEM>
0

>  <SCORE.SYSTEM.CONST>
0

>  <SCORE.SYSTEM.DIHEDRAL>
0

>  <SCORE.SYSTEM.SOLV>
0

>  <SCORE.SYSTEM.norm>
0

>  <SCORE.heavy>
31

>  <SCORE.norm>
-0.410849

>  <RMSD>
8.233

$$$$
ligand
 OpenBabel11021811493D
libRbt.so/2013.1/901 2013/11/27
 31 33  0  0  0  0  0  0  0  0999 V2000
  -23.5254  -11.3533  -15.4653 C   0  0  2  0  0  0  0  0  0  0  0  0
  -24.1228  -11.3752  -16.7534 O   0  0  0  0  0  0  0  0  0  0  0  0
  -23.7266  -14.0030  -20.0869 C   0  0  2  0  0  0  0  0  0  0  0  0
  -23.1486  -14.6569  -21.2163 N   0  0  0  0  0  0  0  0  0  0  0  0
  -22.1631  -16.7028  -19.3637 C   0  0  2  0  0  0  0  0  0  0  0  0
  -24.6684  -10.9835  -14.4313 C   0  0  2  0  0  0  0  0  0  0  0  0
  -25.7391  -11.9878  -14.5129 N   0  0  0  0  0  0  0  0  0  0  0  0
  -23.7519  -12.4382  -20.3711 C   0  0  0  0  0  0  0  0  0  0  0  0
  -22.1166  -17.9917  -18.4778 C   0  0  2  0  0  0  0  0  0  0  0  0
  -23.4363  -18.3142  -18.1074 O   0  0  0  0  0  0  0  0  0  0  0  0
  -25.2251   -9.5382  -14.7442 C   0  0  0  0  0  0  0  0  0  0  0  0
  -24.4039  -11.7066  -19.1126 C   0  0  2  0  0  0  0  0  0  0  0  0
  -24.4420  -10.2487  -19.3586 N   0  0  0  0  0  0  0  0  0  0  0  0
  -21.2098  -17.7214  -17.2059 C   0  0  1  0  0  0  0  0  0  0  0  0
  -21.1556  -18.9518  -16.3376 N   0  0  0  0  0  0  0  0  0  0  0  0
  -24.0778   -8.5224  -15.1496 C   0  0  0  0  0  0  0  0  0  0  0  0
  -23.5267  -12.0107  -17.8291 C   0  0  2  0  0  0  0  0  0  0  0  0
  -19.7023  -17.3534  -17.6952 C   0  0  1  0  0  0  0  0  0  0  0  0
  -19.0864  -18.3926  -18.4287 O   0  0  0  0  0  0  0  0  0  0  0  0
  -22.8293   -8.9571  -15.4343 C   0  0  2  0  0  0  0  0  0  0  0  0
  -22.4675  -10.3412  -15.3865 O   0  0  0  0  0  0  0  0  0  0  0  0
  -23.4961  -13.5731  -17.5724 C   0  0  2  0  0  0  0  0  0  0  0  0
  -22.6906  -13.8427  -16.4130 O   0  0  0  0  0  0  0  0  0  0  0  0
  -19.7694  -16.0798  -18.6021 C   0  0  0  0  0  0  0  0  0  0  0  0
  -20.7518  -16.3003  -19.7508 O   0  0  0  0  0  0  0  0  0  0  0  0
  -21.6981   -8.0075  -15.8264 C   0  0  0  0  0  0  0  0  0  0  0  0
  -20.6392   -8.1590  -14.8683 O   0  0  0  0  0  0  0  0  0  0  0  0
  -22.8514  -14.3027  -18.8171 C   0  0  1  0  0  0  0  0  0  0  0  0
  -22.8540  -15.6955  -18.5552 O   0  0  0  0  0  0  0  0  0  0  0  0
  -18.7109  -17.0476  -16.5521 C   0  0  0  0  0  0  0  0  0  0  0  0
  -21.5547  -18.7777  -14.9262 C   0  0  0  0  0  0  0  0  0  0  0  0
  1  2  1  6  0  0  0
  1  6  1  0  0  0  0
  1 21  1  0  0  0  0
  3  4  1  6  0  0  0
  3  8  1  0  0  0  0
  3 28  1  0  0  0  0
  5  9  1  0  0  0  0
  5 25  1  0  0  0  0
  5 29  1  1  0  0  0
  6  7  1  6  0  0  0
  6 11  1  0  0  0  0
  8 12  1  0  0  0  0
  9 10  1  1  0  0  0
  9 14  1  0  0  0  0
 11 16  1  0  0  0  0
 12 13  1  6  0  0  0
 12 17  1  0  0  0  0
 14 15  1  1  0  0  0
 14 18  1  0  0  0  0
 15 31  1  0  0  0  0
 16 20  1  0  0  0  0
 17  2  1  1  0  0  0
 17 22  1  0  0  0  0
 18 19  1  6  0  0  0
 18 24  1  0  0  0  0
 18 30  1  0  0  0  0
 20 21  1  0  0  0  0
 20 26  1  1  0  0  0
 22 23  1  1  0  0  0
 22 28  1  0  0  0  0
 24 25  1  0  0  0  0
 26 27  1  0  0  0  0
 28 29  1  1  0  0  0
M  END
>  <CHROM.1>
-161.69862533,164.41987635,-124.74959964,-174.62345675,120.59001246,71.52623525
-22.53309903,-13.73868904,-17.31587222,-2.14139259,1.00561888,-2.37688880

>  <Name>
ligand

>  <RI>
0

>  <Rbt.Current_Directory>
/home/itssahil/PROJECTS/Mol_Feturizer/New_Systems/rnas/4GPW

>  <Rbt.Executable>
rbdock ($Id: //depot/dev/client3/rdock/2013.1/src/exe/rbdock.cxx#4 $)

>  <Rbt.Library>
libRbt.so (2013.1, Build901 2013/11/27)

>  <Rbt.Parameter_File>
/export/apps/rDock/src/rDock_2013.1_src/data/scripts/dock_solv.prm

>  <Rbt.Receptor>
prm/pocket_docking_6.prm

>  <SCORE>
-7.30732

>  <SCORE.INTER>
-0.8773

>  <SCORE.INTER.CONST>
1

>  <SCORE.INTER.POLAR>
0

>  <SCORE.INTER.ROT>
6

>  <SCORE.INTER.SOLV>
17.9668

>  <SCORE.INTER.VDW>
-14.1738

>  <SCORE.INTER.norm>
-0.0283

>  <SCORE.INTRA>
-6.43002

>  <SCORE.INTRA.DIHEDRAL>
-12.9383

>  <SCORE.INTRA.DIHEDRAL.0>
19.2558

>  <SCORE.INTRA.POLAR>
0

>  <SCORE.INTRA.POLAR.0>
0

>  <SCORE.INTRA.REPUL>
0

>  <SCORE.INTRA.REPUL.0>
0

>  <SCORE.INTRA.SOLV>
-2.13412

>  <SCORE.INTRA.SOLV.lig_0>
-64.5929

>  <SCORE.INTRA.VDW>
1.10619

>  <SCORE.INTRA.VDW.0>
-4.40538

>  <SCORE.INTRA.norm>
-0.20742

>  <SCORE.RESTR>
0

>  <SCORE.RESTR.CAVITY>
0

>  <SCORE.RESTR.norm>
0

>  <SCORE.SYSTEM>
0

>  <SCORE.SYSTEM.CONST>
0

>  <SCORE.SYSTEM.DIHEDRAL>
0

>  <SCORE.SYSTEM.SOLV>
0

>  <SCORE.SYSTEM.norm>
0

>  <SCORE.heavy>
31

>  <SCORE.norm>
-0.23572

>  <RMSD>
8.244

$$$$
ligand
 OpenBabel11021811493D
libRbt.so/2013.1/901 2013/11/27
 31 33  0  0  0  0  0  0  0  0999 V2000
  -22.7049  -13.7064  -19.2183 C   0  0  2  0  0  0  0  0  0  0  0  0
  -21.8679  -13.8143  -18.0763 O   0  0  0  0  0  0  0  0  0  0  0  0
  -18.1679  -15.7699  -17.2638 C   0  0  2  0  0  0  0  0  0  0  0  0
  -16.7882  -16.1218  -17.3633 N   0  0  0  0  0  0  0  0  0  0  0  0
  -16.2685  -14.2027  -15.3173 C   0  0  2  0  0  0  0  0  0  0  0  0
  -22.2888  -12.3762  -19.9731 C   0  0  2  0  0  0  0  0  0  0  0  0
  -20.8697  -12.4562  -20.3494 N   0  0  0  0  0  0  0  0  0  0  0  0
  -18.8569  -16.0354  -18.6726 C   0  0  0  0  0  0  0  0  0  0  0  0
  -16.1421  -13.9987  -13.7712 C   0  0  2  0  0  0  0  0  0  0  0  0
  -17.0151  -14.9048  -13.1390 O   0  0  0  0  0  0  0  0  0  0  0  0
  -22.5565  -11.1276  -19.0426 C   0  0  0  0  0  0  0  0  0  0  0  0
  -20.4004  -15.6489  -18.5610 C   0  0  2  0  0  0  0  0  0  0  0  0
  -21.0622  -15.8937  -19.8608 N   0  0  0  0  0  0  0  0  0  0  0  0
  -16.5053  -12.4988  -13.4086 C   0  0  1  0  0  0  0  0  0  0  0  0
  -16.3926  -12.2837  -11.9215 N   0  0  0  0  0  0  0  0  0  0  0  0
  -23.9087  -11.2598  -18.2263 C   0  0  0  0  0  0  0  0  0  0  0  0
  -20.5208  -14.1165  -18.1785 C   0  0  2  0  0  0  0  0  0  0  0  0
  -15.4672  -11.5014  -14.1668 C   0  0  1  0  0  0  0  0  0  0  0  0
  -14.1216  -11.7048  -13.7855 O   0  0  0  0  0  0  0  0  0  0  0  0
  -24.5781  -12.4335  -18.1703 C   0  0  2  0  0  0  0  0  0  0  0  0
  -24.1175  -13.6140  -18.8360 O   0  0  0  0  0  0  0  0  0  0  0  0
  -19.8132  -13.8664  -16.7840 C   0  0  2  0  0  0  0  0  0  0  0  0
  -19.9173  -12.4728  -16.4480 O   0  0  0  0  0  0  0  0  0  0  0  0
  -15.5855  -11.7374  -15.7094 C   0  0  0  0  0  0  0  0  0  0  0  0
  -15.3691  -13.2138  -16.0362 O   0  0  0  0  0  0  0  0  0  0  0  0
  -25.8850  -12.5979  -17.3956 C   0  0  0  0  0  0  0  0  0  0  0  0
  -25.6458  -13.5058  -16.3091 O   0  0  0  0  0  0  0  0  0  0  0  0
  -18.2835  -14.2485  -16.8893 C   0  0  1  0  0  0  0  0  0  0  0  0
  -17.6900  -14.0238  -15.6220 O   0  0  0  0  0  0  0  0  0  0  0  0
  -15.7170   -9.9991  -13.9148 C   0  0  0  0  0  0  0  0  0  0  0  0
  -17.6411  -12.4124  -11.1428 C   0  0  0  0  0  0  0  0  0  0  0  0
  1  2  1  1  0  0  0
  1  6  1  0  0  0  0
  1 21  1  0  0  0  0
  3  4  1  6  0  0  0
  3  8  1  0  0  0  0
  3 28  1  0  0  0  0
  5  9  1  0  0  0  0
  5 25  1  0  0  0  0
  5 29  1  6  0  0  0
  6  7  1  1  0  0  0
  6 11  1  0  0  0  0
  8 12  1  0  0  0  0
  9 10  1  1  0  0  0
  9 14  1  0  0  0  0
 11 16  1  0  0  0  0
 12 13  1  6  0  0  0
 12 17  1  0  0  0  0
 14 15  1  1  0  0  0
 14 18  1  0  0  0  0
 15 31  1  0  0  0  0
 16 20  1  0  0  0  0
 17  2  1  1  0  0  0
 17 22  1  0  0  0  0
 18 19  1  1  0  0  0
 18 24  1  0  0  0  0
 18 30  1  0  0  0  0
 20 21  1  0  0  0  0
 20 26  1  6  0  0  0
 22 23  1  6  0  0  0
 22 28  1  0  0  0  0
 24 25  1  0  0  0  0
 26 27  1  0  0  0  0
 28 29  1  1  0  0  0
M  END
>  <CHROM.1>
-71.11490881,-173.50604564,-95.38767428,-72.95465470,-114.41551411,64.48424673
-19.42679456,-13.32705610,-16.52719866,-2.67977388,-0.32583809,0.90206755

>  <Name>
ligand

>  <RI>
0

>  <Rbt.Current_Directory>
/home/itssahil/PROJECTS/Mol_Feturizer/New_Systems/rnas/4GPW

>  <Rbt.Executable>
rbdock ($Id: //depot/dev/client3/rdock/2013.1/src/exe/rbdock.cxx#4 $)

>  <Rbt.Library>
libRbt.so (2013.1, Build901 2013/11/27)

>  <Rbt.Parameter_File>
/export/apps/rDock/src/rDock_2013.1_src/data/scripts/dock_solv.prm

>  <Rbt.Receptor>
prm/pocket_docking_7.prm

>  <SCORE>
-7.24183

>  <SCORE.INTER>
-2.46438

>  <SCORE.INTER.CONST>
1

>  <SCORE.INTER.POLAR>
0

>  <SCORE.INTER.ROT>
6

>  <SCORE.INTER.SOLV>
8.26342

>  <SCORE.INTER.VDW>
-11.9974

>  <SCORE.INTER.norm>
-0.079496

>  <SCORE.INTRA>
-4.77745

>  <SCORE.INTRA.DIHEDRAL>
-15.0573

>  <SCORE.INTRA.DIHEDRAL.0>
19.2558

>  <SCORE.INTRA.POLAR>
0

>  <SCORE.INTRA.POLAR.0>
0

>  <SCORE.INTRA.REPUL>
0

>  <SCORE.INTRA.REPUL.0>
0

>  <SCORE.INTRA.SOLV>
1.69753

>  <SCORE.INTRA.SOLV.lig_0>
-64.5929

>  <SCORE.INTRA.VDW>
1.90245

>  <SCORE.INTRA.VDW.0>
-4.40538

>  <SCORE.INTRA.norm>
-0.154111

>  <SCORE.RESTR>
0

>  <SCORE.RESTR.CAVITY>
0

>  <SCORE.RESTR.norm>
0

>  <SCORE.SYSTEM>
0

>  <SCORE.SYSTEM.CONST>
0

>  <SCORE.SYSTEM.DIHEDRAL>
0

>  <SCORE.SYSTEM.SOLV>
0

>  <SCORE.SYSTEM.norm>
0

>  <SCORE.heavy>
31

>  <SCORE.norm>
-0.233607

>  <RMSD>
8.262

$$$$
ligand
 OpenBabel11021811493D
libRbt.so/2013.1/901 2013/11/27
 31 33  0  0  0  0  0  0  0  0999 V2000
  -22.8500  -14.4639  -20.3147 C   0  0  2  0  0  0  0  0  0  0  0  0
  -23.0446  -13.2836  -19.5495 O   0  0  0  0  0  0  0  0  0  0  0  0
  -22.5824  -12.4134  -15.4017 C   0  0  2  0  0  0  0  0  0  0  0  0
  -22.8330  -12.4137  -13.9965 N   0  0  0  0  0  0  0  0  0  0  0  0
  -20.9660  -14.5024  -13.7784 C   0  0  2  0  0  0  0  0  0  0  0  0
  -22.6138  -14.0092  -21.8147 C   0  0  2  0  0  0  0  0  0  0  0  0
  -21.4390  -13.1272  -21.8743 N   0  0  0  0  0  0  0  0  0  0  0  0
  -23.8724  -11.8492  -16.1417 C   0  0  0  0  0  0  0  0  0  0  0  0
  -19.5146  -15.0482  -13.5690 C   0  0  2  0  0  0  0  0  0  0  0  0
  -18.6206  -14.1639  -14.2026 O   0  0  0  0  0  0  0  0  0  0  0  0
  -23.9012  -13.2721  -22.3588 C   0  0  0  0  0  0  0  0  0  0  0  0
  -23.5915  -11.8418  -17.7119 C   0  0  2  0  0  0  0  0  0  0  0  0
  -24.7784  -11.3149  -18.4197 N   0  0  0  0  0  0  0  0  0  0  0  0
  -19.4106  -16.5084  -14.1773 C   0  0  1  0  0  0  0  0  0  0  0  0
  -18.0173  -17.0501  -13.9882 N   0  0  0  0  0  0  0  0  0  0  0  0
  -25.2436  -13.9633  -21.8765 C   0  0  0  0  0  0  0  0  0  0  0  0
  -23.2969  -13.3233  -18.1889 C   0  0  2  0  0  0  0  0  0  0  0  0
  -20.4645  -17.4815  -13.4093 C   0  0  1  0  0  0  0  0  0  0  0  0
  -20.2111  -17.5920  -12.0234 O   0  0  0  0  0  0  0  0  0  0  0  0
  -25.2342  -14.9045  -20.9056 C   0  0  2  0  0  0  0  0  0  0  0  0
  -24.0298  -15.3330  -20.2617 O   0  0  0  0  0  0  0  0  0  0  0  0
  -22.0225  -13.8760  -17.4285 C   0  0  2  0  0  0  0  0  0  0  0  0
  -21.7670  -15.2235  -17.8583 O   0  0  0  0  0  0  0  0  0  0  0  0
  -21.9071  -16.9070  -13.6045 C   0  0  0  0  0  0  0  0  0  0  0  0
  -21.9637  -15.4524  -13.1414 O   0  0  0  0  0  0  0  0  0  0  0  0
  -26.5075  -15.5936  -20.4169 C   0  0  0  0  0  0  0  0  0  0  0  0
  -26.6239  -15.3613  -19.0046 O   0  0  0  0  0  0  0  0  0  0  0  0
  -22.2957  -13.8847  -15.8721 C   0  0  1  0  0  0  0  0  0  0  0  0
  -21.1311  -14.3719  -15.2280 O   0  0  0  0  0  0  0  0  0  0  0  0
  -20.4818  -18.9395  -13.9160 C   0  0  0  0  0  0  0  0  0  0  0  0
  -17.1540  -17.0749  -15.1865 C   0  0  0  0  0  0  0  0  0  0  0  0
  1  2  1  1  0  0  0
  1  6  1  0  0  0  0
  1 21  1  0  0  0  0
  3  4  1  1  0  0  0
  3  8  1  0  0  0  0
  3 28  1  0  0  0  0
  5  9  1  0  0  0  0
  5 25  1  0  0  0  0
  5 29  1  6  0  0  0
  6  7  1  1  0  0  0
  6 11  1  0  0  0  0
  8 12  1  0  0  0  0
  9 10  1  6  0  0  0
  9 14  1  0  0  0  0
 11 16  1  0  0  0  0
 12 13  1  6  0  0  0
 12 17  1  0  0  0  0
 14 15  1  1  0  0  0
 14 18  1  0  0  0  0
 15 31  1  0  0  0  0
 16 20  1  0  0  0  0
 17  2  1  6  0  0  0
 17 22  1  0  0  0  0
 18 19  1  1  0  0  0
 18 24  1  0  0  0  0
 18 30  1  0  0  0  0
 20 21  1  0  0  0  0
 20 26  1  6  0  0  0
 22 23  1  6  0  0  0
 22 28  1  0  0  0  0
 24 25  1  0  0  0  0
 26 27  1  0  0  0  0
 28 29  1  1  0  0  0
M  END
>  <CHROM.1>
179.11294849,-178.78167785,-104.61905572,-174.75258465,-122.15700605,60.10827766
-22.19660602,-14.69592248,-16.93502389,-2.50174134,-0.86343699,1.12236270

>  <Name>
ligand

>  <RI>
0

>  <Rbt.Current_Directory>
/home/itssahil/PROJECTS/Mol_Feturizer/New_Systems/rnas/4GPW

>  <Rbt.Executable>
rbdock ($Id: //depot/dev/client3/rdock/2013.1/src/exe/rbdock.cxx#4 $)

>  <Rbt.Library>
libRbt.so (2013.1, Build901 2013/11/27)

>  <Rbt.Parameter_File>
/export/apps/rDock/src/rDock_2013.1_src/data/scripts/dock_solv.prm

>  <Rbt.Receptor>
prm/pocket_docking_6.prm

>  <SCORE>
-10.8732

>  <SCORE.INTER>
-2.91818

>  <SCORE.INTER.CONST>
1

>  <SCORE.INTER.POLAR>
0

>  <SCORE.INTER.ROT>
6

>  <SCORE.INTER.SOLV>
10.7606

>  <SCORE.INTER.VDW>
-13.1323

>  <SCORE.INTER.norm>
-0.0941349

>  <SCORE.INTRA>
-7.95499

>  <SCORE.INTRA.DIHEDRAL>
-16.3891

>  <SCORE.INTRA.DIHEDRAL.0>
19.2558

>  <SCORE.INTRA.POLAR>
0

>  <SCORE.INTRA.POLAR.0>
0

>  <SCORE.INTRA.REPUL>
0

>  <SCORE.INTRA.REPUL.0>
0

>  <SCORE.INTRA.SOLV>
-2.16507

>  <SCORE.INTRA.SOLV.lig_0>
-64.5929

>  <SCORE.INTRA.VDW>
1.32212

>  <SCORE.INTRA.VDW.0>
-4.40538

>  <SCORE.INTRA.norm>
-0.256613

>  <SCORE.RESTR>
0

>  <SCORE.RESTR.CAVITY>
0

>  <SCORE.RESTR.norm>
0

>  <SCORE.SYSTEM>
0

>  <SCORE.SYSTEM.CONST>
0

>  <SCORE.SYSTEM.DIHEDRAL>
0

>  <SCORE.SYSTEM.SOLV>
0

>  <SCORE.SYSTEM.norm>
0

>  <SCORE.heavy>
31

>  <SCORE.norm>
-0.350747

>  <RMSD>
8.273

$$$$
ligand
 OpenBabel11021811493D
libRbt.so/2013.1/901 2013/11/27
 31 33  0  0  0  0  0  0  0  0999 V2000
  -21.2109  -13.0393  -21.5021 C   0  0  2  0  0  0  0  0  0  0  0  0
  -20.3146  -12.5072  -20.5377 O   0  0  0  0  0  0  0  0  0  0  0  0
  -20.3380   -9.4574  -17.5590 C   0  0  2  0  0  0  0  0  0  0  0  0
  -20.4906   -8.1710  -16.9596 N   0  0  0  0  0  0  0  0  0  0  0  0
  -24.1057  -10.1990  -17.2460 C   0  0  2  0  0  0  0  0  0  0  0  0
  -20.8167  -14.5603  -21.7107 C   0  0  2  0  0  0  0  0  0  0  0  0
  -20.9224  -15.2687  -20.4267 N   0  0  0  0  0  0  0  0  0  0  0  0
  -19.2757   -9.3397  -18.7370 C   0  0  0  0  0  0  0  0  0  0  0  0
  -24.7364   -9.7644  -15.8816 C   0  0  2  0  0  0  0  0  0  0  0  0
  -24.2918   -8.4602  -15.5915 O   0  0  0  0  0  0  0  0  0  0  0  0
  -19.3499  -14.6578  -22.2901 C   0  0  0  0  0  0  0  0  0  0  0  0
  -19.0989  -10.7780  -19.4036 C   0  0  2  0  0  0  0  0  0  0  0  0
  -18.1097  -10.6920  -20.4997 N   0  0  0  0  0  0  0  0  0  0  0  0
  -24.2997  -10.7877  -14.7524 C   0  0  1  0  0  0  0  0  0  0  0  0
  -24.8952  -10.3833  -13.4286 N   0  0  0  0  0  0  0  0  0  0  0  0
  -19.0523  -13.5411  -23.3750 C   0  0  0  0  0  0  0  0  0  0  0  0
  -20.4961  -11.2539  -19.9786 C   0  0  2  0  0  0  0  0  0  0  0  0
  -24.8383  -12.2727  -15.1423 C   0  0  1  0  0  0  0  0  0  0  0  0
  -26.2461  -12.3448  -15.2436 O   0  0  0  0  0  0  0  0  0  0  0  0
  -19.8941  -12.4977  -23.5516 C   0  0  2  0  0  0  0  0  0  0  0  0
  -21.0915  -12.3373  -22.7839 O   0  0  0  0  0  0  0  0  0  0  0  0
  -21.5460  -11.3466  -18.7967 C   0  0  2  0  0  0  0  0  0  0  0  0
  -22.8135  -11.7690  -19.3268 O   0  0  0  0  0  0  0  0  0  0  0  0
  -24.2212  -12.6808  -16.5213 C   0  0  0  0  0  0  0  0  0  0  0  0
  -24.5314  -11.6184  -17.5742 O   0  0  0  0  0  0  0  0  0  0  0  0
  -19.6411  -11.4042  -24.5885 C   0  0  0  0  0  0  0  0  0  0  0  0
  -19.6115  -10.1419  -23.9045 O   0  0  0  0  0  0  0  0  0  0  0  0
  -21.7242   -9.9239  -18.1325 C   0  0  1  0  0  0  0  0  0  0  0  0
  -22.6586  -10.0508  -17.0745 O   0  0  0  0  0  0  0  0  0  0  0  0
  -24.4669  -13.3785  -14.1313 C   0  0  0  0  0  0  0  0  0  0  0  0
  -24.0338  -10.5548  -12.2411 C   0  0  0  0  0  0  0  0  0  0  0  0
  1  2  1  1  0  0  0
  1  6  1  0  0  0  0
  1 21  1  0  0  0  0
  3  4  1  6  0  0  0
  3  8  1  0  0  0  0
  3 28  1  0  0  0  0
  5  9  1  0  0  0  0
  5 25  1  0  0  0  0
  5 29  1  1  0  0  0
  6  7  1  1  0  0  0
  6 11  1  0  0  0  0
  8 12  1  0  0  0  0
  9 10  1  1  0  0  0
  9 14  1  0  0  0  0
 11 16  1  0  0  0  0
 12 13  1  6  0  0  0
 12 17  1  0  0  0  0
 14 15  1  1  0  0  0
 14 18  1  0  0  0  0
 15 31  1  0  0  0  0
 16 20  1  0  0  0  0
 17  2  1  1  0  0  0
 17 22  1  0  0  0  0
 18 19  1  6  0  0  0
 18 24  1  0  0  0  0
 18 30  1  0  0  0  0
 20 21  1  0  0  0  0
 20 26  1  6  0  0  0
 22 23  1  6  0  0  0
 22 28  1  0  0  0  0
 24 25  1  0  0  0  0
 26 27  1  0  0  0  0
 28 29  1  1  0  0  0
M  END
>  <CHROM.1>
-170.55028665,-159.23039306,-141.20161356,-159.18851709,-123.02492792,166.97112636
-21.93915406,-11.45080404,-18.66989622,0.70707137,-0.82566558,-2.47707791

>  <Name>
ligand

>  <RI>
0

>  <Rbt.Current_Directory>
/home/itssahil/PROJECTS/Mol_Feturizer/New_Systems/rnas/4GPW

>  <Rbt.Executable>
rbdock ($Id: //depot/dev/client3/rdock/2013.1/src/exe/rbdock.cxx#4 $)

>  <Rbt.Library>
libRbt.so (2013.1, Build901 2013/11/27)

>  <Rbt.Parameter_File>
/export/apps/rDock/src/rDock_2013.1_src/data/scripts/dock_solv.prm

>  <Rbt.Receptor>
prm/pocket_docking_8.prm

>  <SCORE>
-13.221

>  <SCORE.INTER>
-7.8549

>  <SCORE.INTER.CONST>
1

>  <SCORE.INTER.POLAR>
0

>  <SCORE.INTER.ROT>
6

>  <SCORE.INTER.SOLV>
10.2464

>  <SCORE.INTER.VDW>
-16.2521

>  <SCORE.INTER.norm>
-0.253384

>  <SCORE.INTRA>
-5.36607

>  <SCORE.INTRA.DIHEDRAL>
-11.5848

>  <SCORE.INTRA.DIHEDRAL.0>
19.2558

>  <SCORE.INTRA.POLAR>
0

>  <SCORE.INTRA.POLAR.0>
0

>  <SCORE.INTRA.REPUL>
0

>  <SCORE.INTRA.REPUL.0>
0

>  <SCORE.INTRA.SOLV>
-1.81268

>  <SCORE.INTRA.SOLV.lig_0>
-64.5929

>  <SCORE.INTRA.VDW>
1.33268

>  <SCORE.INTRA.VDW.0>
-4.40538

>  <SCORE.INTRA.norm>
-0.173099

>  <SCORE.RESTR>
0

>  <SCORE.RESTR.CAVITY>
0

>  <SCORE.RESTR.norm>
0

>  <SCORE.SYSTEM>
0

>  <SCORE.SYSTEM.CONST>
0

>  <SCORE.SYSTEM.DIHEDRAL>
0

>  <SCORE.SYSTEM.SOLV>
0

>  <SCORE.SYSTEM.norm>
0

>  <SCORE.heavy>
31

>  <SCORE.norm>
-0.426483

>  <RMSD>
8.277

$$$$
ligand
 OpenBabel11021811493D
libRbt.so/2013.1/901 2013/11/27
 31 33  0  0  0  0  0  0  0  0999 V2000
  -24.2317  -16.7786  -19.7337 C   0  0  2  0  0  0  0  0  0  0  0  0
  -23.1917  -16.5005  -18.8076 O   0  0  0  0  0  0  0  0  0  0  0  0
  -23.1489  -14.4811  -15.0533 C   0  0  2  0  0  0  0  0  0  0  0  0
  -23.4147  -14.2018  -13.6790 N   0  0  0  0  0  0  0  0  0  0  0  0
  -20.9480  -15.4691  -13.0613 C   0  0  2  0  0  0  0  0  0  0  0  0
  -23.6564  -17.8261  -20.7749 C   0  0  2  0  0  0  0  0  0  0  0  0
  -23.2326  -19.0383  -20.0588 N   0  0  0  0  0  0  0  0  0  0  0  0
  -24.5378  -14.5993  -15.8195 C   0  0  0  0  0  0  0  0  0  0  0  0
  -19.4242  -15.1750  -12.8616 C   0  0  2  0  0  0  0  0  0  0  0  0
  -19.0725  -14.1041  -13.7055 O   0  0  0  0  0  0  0  0  0  0  0  0
  -22.4472  -17.1855  -21.5649 C   0  0  0  0  0  0  0  0  0  0  0  0
  -24.2422  -14.9048  -17.3569 C   0  0  2  0  0  0  0  0  0  0  0  0
  -25.5222  -15.0133  -18.0900 N   0  0  0  0  0  0  0  0  0  0  0  0
  -18.5893  -16.4783  -13.2044 C   0  0  1  0  0  0  0  0  0  0  0  0
  -17.1173  -16.2133  -13.0212 N   0  0  0  0  0  0  0  0  0  0  0  0
  -22.7030  -15.6654  -21.9344 C   0  0  0  0  0  0  0  0  0  0  0  0
  -23.4446  -16.2689  -17.4664 C   0  0  2  0  0  0  0  0  0  0  0  0
  -19.0389  -17.6779  -12.2014 C   0  0  1  0  0  0  0  0  0  0  0  0
  -18.8030  -17.3820  -10.8397 O   0  0  0  0  0  0  0  0  0  0  0  0
  -23.7303  -14.9774  -21.3865 C   0  0  2  0  0  0  0  0  0  0  0  0
  -24.6408  -15.5685  -20.4536 O   0  0  0  0  0  0  0  0  0  0  0  0
  -22.0747  -16.1404  -16.6823 C   0  0  2  0  0  0  0  0  0  0  0  0
  -21.3610  -17.3843  -16.7771 O   0  0  0  0  0  0  0  0  0  0  0  0
  -20.5697  -17.9406  -12.3928 C   0  0  0  0  0  0  0  0  0  0  0  0
  -21.3567  -16.6464  -12.1949 O   0  0  0  0  0  0  0  0  0  0  0  0
  -24.0088  -13.5125  -21.7204 C   0  0  0  0  0  0  0  0  0  0  0  0
  -25.2069  -13.4573  -22.5102 O   0  0  0  0  0  0  0  0  0  0  0  0
  -22.3622  -15.8370  -15.1583 C   0  0  1  0  0  0  0  0  0  0  0  0
  -21.1155  -15.7165  -14.4952 O   0  0  0  0  0  0  0  0  0  0  0  0
  -18.3130  -19.0199  -12.4362 C   0  0  0  0  0  0  0  0  0  0  0  0
  -16.3961  -15.6751  -14.1925 C   0  0  0  0  0  0  0  0  0  0  0  0
  1  2  1  1  0  0  0
  1  6  1  0  0  0  0
  1 21  1  0  0  0  0
  3  4  1  1  0  0  0
  3  8  1  0  0  0  0
  3 28  1  0  0  0  0
  5  9  1  0  0  0  0
  5 25  1  0  0  0  0
  5 29  1  6  0  0  0
  6  7  1  1  0  0  0
  6 11  1  0  0  0  0
  8 12  1  0  0  0  0
  9 10  1  6  0  0  0
  9 14  1  0  0  0  0
 11 16  1  0  0  0  0
 12 13  1  6  0  0  0
 12 17  1  0  0  0  0
 14 15  1  1  0  0  0
 14 18  1  0  0  0  0
 15 31  1  0  0  0  0
 16 20  1  0  0  0  0
 17  2  1  6  0  0  0
 17 22  1  0  0  0  0
 18 19  1  1  0  0  0
 18 24  1  0  0  0  0
 18 30  1  0  0  0  0
 20 21  1  0  0  0  0
 20 26  1  6  0  0  0
 22 23  1  1  0  0  0
 22 28  1  0  0  0  0
 24 25  1  0  0  0  0
 26 27  1  0  0  0  0
 28 29  1  1  0  0  0
M  END
>  <CHROM.1>
-144.30665894,-170.52417152,-88.38400679,-66.97308639,109.24601062,63.33958115
-21.84695039,-16.02349161,-16.43281750,-2.25824076,-0.61432566,1.25315781

>  <Name>
ligand

>  <RI>
0

>  <Rbt.Current_Directory>
/home/itssahil/PROJECTS/Mol_Feturizer/New_Systems/rnas/4GPW

>  <Rbt.Executable>
rbdock ($Id: //depot/dev/client3/rdock/2013.1/src/exe/rbdock.cxx#4 $)

>  <Rbt.Library>
libRbt.so (2013.1, Build901 2013/11/27)

>  <Rbt.Parameter_File>
/export/apps/rDock/src/rDock_2013.1_src/data/scripts/dock_solv.prm

>  <Rbt.Receptor>
prm/pocket_docking_7.prm

>  <SCORE>
-7.24319

>  <SCORE.INTER>
-3.58515

>  <SCORE.INTER.CONST>
1

>  <SCORE.INTER.POLAR>
0

>  <SCORE.INTER.ROT>
6

>  <SCORE.INTER.SOLV>
10.7659

>  <SCORE.INTER.VDW>
-13.5787

>  <SCORE.INTER.norm>
-0.11565

>  <SCORE.INTRA>
-3.65803

>  <SCORE.INTRA.DIHEDRAL>
-11.4814

>  <SCORE.INTRA.DIHEDRAL.0>
19.2558

>  <SCORE.INTRA.POLAR>
0

>  <SCORE.INTRA.POLAR.0>
0

>  <SCORE.INTRA.REPUL>
0

>  <SCORE.INTRA.REPUL.0>
0

>  <SCORE.INTRA.SOLV>
0.0162653

>  <SCORE.INTRA.SOLV.lig_0>
-64.5929

>  <SCORE.INTRA.VDW>
2.07455

>  <SCORE.INTRA.VDW.0>
-4.40538

>  <SCORE.INTRA.norm>
-0.118001

>  <SCORE.RESTR>
0

>  <SCORE.RESTR.CAVITY>
0

>  <SCORE.RESTR.norm>
0

>  <SCORE.SYSTEM>
0

>  <SCORE.SYSTEM.CONST>
0

>  <SCORE.SYSTEM.DIHEDRAL>
0

>  <SCORE.SYSTEM.SOLV>
0

>  <SCORE.SYSTEM.norm>
0

>  <SCORE.heavy>
31

>  <SCORE.norm>
-0.233651

>  <RMSD>
8.301

$$$$
ligand
 OpenBabel11021811493D
libRbt.so/2013.1/901 2013/11/27
 31 33  0  0  0  0  0  0  0  0999 V2000
  -22.9717  -14.3791  -20.5019 C   0  0  2  0  0  0  0  0  0  0  0  0
  -23.2346  -13.2625  -19.6649 O   0  0  0  0  0  0  0  0  0  0  0  0
  -23.0524  -12.6076  -15.4563 C   0  0  2  0  0  0  0  0  0  0  0  0
  -23.3686  -12.7153  -14.0686 N   0  0  0  0  0  0  0  0  0  0  0  0
  -21.3356  -14.6557  -13.8711 C   0  0  2  0  0  0  0  0  0  0  0  0
  -22.6515  -13.8097  -21.9461 C   0  0  2  0  0  0  0  0  0  0  0  0
  -21.4914  -12.9099  -21.8659 N   0  0  0  0  0  0  0  0  0  0  0  0
  -24.3517  -12.1160  -16.2308 C   0  0  0  0  0  0  0  0  0  0  0  0
  -19.8812  -15.1792  -13.6283 C   0  0  2  0  0  0  0  0  0  0  0  0
  -18.9832  -14.2354  -14.1626 O   0  0  0  0  0  0  0  0  0  0  0  0
  -23.9159  -13.0511  -22.5140 C   0  0  0  0  0  0  0  0  0  0  0  0
  -23.9980  -11.9887  -17.7810 C   0  0  2  0  0  0  0  0  0  0  0  0
  -25.1929  -11.5268  -18.5201 N   0  0  0  0  0  0  0  0  0  0  0  0
  -19.7108  -16.5948  -14.3213 C   0  0  1  0  0  0  0  0  0  0  0  0
  -18.3136  -17.1143  -14.1011 N   0  0  0  0  0  0  0  0  0  0  0  0
  -25.2729  -13.7947  -22.1699 C   0  0  0  0  0  0  0  0  0  0  0  0
  -23.5469  -13.4067  -18.3240 C   0  0  2  0  0  0  0  0  0  0  0  0
  -20.7722  -17.6395  -13.6661 C   0  0  1  0  0  0  0  0  0  0  0  0
  -20.5792  -17.8322  -12.2794 O   0  0  0  0  0  0  0  0  0  0  0  0
  -25.3064  -14.8061  -21.2729 C   0  0  2  0  0  0  0  0  0  0  0  0
  -24.1365  -15.2655  -20.5881 O   0  0  0  0  0  0  0  0  0  0  0  0
  -22.2650  -13.8895  -17.5293 C   0  0  2  0  0  0  0  0  0  0  0  0
  -21.8672  -15.1807  -18.0198 O   0  0  0  0  0  0  0  0  0  0  0  0
  -22.2192  -17.0882  -13.8926 C   0  0  0  0  0  0  0  0  0  0  0  0
  -22.3356  -15.6678  -13.3426 O   0  0  0  0  0  0  0  0  0  0  0  0
  -26.5948  -15.5470  -20.9179 C   0  0  0  0  0  0  0  0  0  0  0  0
  -26.8389  -15.3657  -19.5145 O   0  0  0  0  0  0  0  0  0  0  0  0
  -22.6102  -14.0166  -15.9925 C   0  0  1  0  0  0  0  0  0  0  0  0
  -21.4380  -14.4370  -15.3159 O   0  0  0  0  0  0  0  0  0  0  0  0
  -20.7276  -19.0623  -14.2634 C   0  0  0  0  0  0  0  0  0  0  0  0
  -17.3576  -16.9180  -15.2098 C   0  0  0  0  0  0  0  0  0  0  0  0
  1  2  1  1  0  0  0
  1  6  1  0  0  0  0
  1 21  1  0  0  0  0
  3  4  1  1  0  0  0
  3  8  1  0  0  0  0
  3 28  1  0  0  0  0
  5  9  1  0  0  0  0
  5 25  1  0  0  0  0
  5 29  1  6  0  0  0
  6  7  1  1  0  0  0
  6 11  1  0  0  0  0
  8 12  1  0  0  0  0
  9 10  1  6  0  0  0
  9 14  1  0  0  0  0
 11 16  1  0  0  0  0
 12 13  1  6  0  0  0
 12 17  1  0  0  0  0
 14 15  1  1  0  0  0
 14 18  1  0  0  0  0
 15 31  1  0  0  0  0
 16 20  1  0  0  0  0
 17  2  1  6  0  0  0
 17 22  1  0  0  0  0
 18 19  1  1  0  0  0
 18 24  1  0  0  0  0
 18 30  1  0  0  0  0
 20 21  1  0  0  0  0
 20 26  1  6  0  0  0
 22 23  1  6  0  0  0
 22 28  1  0  0  0  0
 24 25  1  0  0  0  0
 26 27  1  0  0  0  0
 28 29  1  1  0  0  0
M  END
>  <CHROM.1>
-179.73318213,177.08663387,-98.63150294,-171.06209435,-119.25157613,60.89586524
-22.45228378,-14.74439385,-17.10812717,-2.33337167,-0.76115031,1.35234818

>  <Name>
ligand

>  <RI>
0

>  <Rbt.Current_Directory>
/home/itssahil/PROJECTS/Mol_Feturizer/New_Systems/rnas/4GPW

>  <Rbt.Executable>
rbdock ($Id: //depot/dev/client3/rdock/2013.1/src/exe/rbdock.cxx#4 $)

>  <Rbt.Library>
libRbt.so (2013.1, Build901 2013/11/27)

>  <Rbt.Parameter_File>
/export/apps/rDock/src/rDock_2013.1_src/data/scripts/dock_solv.prm

>  <Rbt.Receptor>
prm/pocket_docking_6.prm

>  <SCORE>
-11.2747

>  <SCORE.INTER>
-3.36203

>  <SCORE.INTER.CONST>
1

>  <SCORE.INTER.POLAR>
0

>  <SCORE.INTER.ROT>
6

>  <SCORE.INTER.SOLV>
13.4457

>  <SCORE.INTER.VDW>
-14.3232

>  <SCORE.INTER.norm>
-0.108453

>  <SCORE.INTRA>
-7.91263

>  <SCORE.INTRA.DIHEDRAL>
-16.2618

>  <SCORE.INTRA.DIHEDRAL.0>
19.2558

>  <SCORE.INTRA.POLAR>
0

>  <SCORE.INTRA.POLAR.0>
0

>  <SCORE.INTRA.REPUL>
0

>  <SCORE.INTRA.REPUL.0>
0

>  <SCORE.INTRA.SOLV>
-1.92438

>  <SCORE.INTRA.SOLV.lig_0>
-64.5929

>  <SCORE.INTRA.VDW>
1.18046

>  <SCORE.INTRA.VDW.0>
-4.40538

>  <SCORE.INTRA.norm>
-0.255246

>  <SCORE.RESTR>
0

>  <SCORE.RESTR.CAVITY>
0

>  <SCORE.RESTR.norm>
0

>  <SCORE.SYSTEM>
0

>  <SCORE.SYSTEM.CONST>
0

>  <SCORE.SYSTEM.DIHEDRAL>
0

>  <SCORE.SYSTEM.SOLV>
0

>  <SCORE.SYSTEM.norm>
0

>  <SCORE.heavy>
31

>  <SCORE.norm>
-0.363699

>  <RMSD>
8.336

$$$$
ligand
 OpenBabel11021811493D
libRbt.so/2013.1/901 2013/11/27
 31 33  0  0  0  0  0  0  0  0999 V2000
  -22.1751  -12.1814  -17.7013 C   0  0  2  0  0  0  0  0  0  0  0  0
  -22.1044  -11.3550  -16.5486 O   0  0  0  0  0  0  0  0  0  0  0  0
  -20.5191  -12.0660  -12.6556 C   0  0  2  0  0  0  0  0  0  0  0  0
  -20.4091  -12.5721  -11.3255 N   0  0  0  0  0  0  0  0  0  0  0  0
  -18.7030  -14.4433  -12.3273 C   0  0  2  0  0  0  0  0  0  0  0  0
  -22.1837  -11.2191  -18.9608 C   0  0  2  0  0  0  0  0  0  0  0  0
  -20.9605  -10.4032  -18.9556 N   0  0  0  0  0  0  0  0  0  0  0  0
  -21.8743  -11.2410  -12.7685 C   0  0  0  0  0  0  0  0  0  0  0  0
  -17.4280  -15.2416  -12.7577 C   0  0  2  0  0  0  0  0  0  0  0  0
  -16.6314  -14.3954  -13.5527 O   0  0  0  0  0  0  0  0  0  0  0  0
  -23.4720  -10.3050  -18.9263 C   0  0  0  0  0  0  0  0  0  0  0  0
  -21.9954  -10.6689  -14.2526 C   0  0  2  0  0  0  0  0  0  0  0  0
  -23.2480   -9.8926  -14.3780 N   0  0  0  0  0  0  0  0  0  0  0  0
  -17.8664  -16.5393  -13.5560 C   0  0  1  0  0  0  0  0  0  0  0  0
  -16.6504  -17.3203  -13.9825 N   0  0  0  0  0  0  0  0  0  0  0  0
  -24.7601  -11.0925  -18.4435 C   0  0  0  0  0  0  0  0  0  0  0  0
  -22.0120  -11.8815  -15.2717 C   0  0  2  0  0  0  0  0  0  0  0  0
  -18.7828  -17.4744  -12.5900 C   0  0  1  0  0  0  0  0  0  0  0  0
  -18.1023  -17.9120  -11.4313 O   0  0  0  0  0  0  0  0  0  0  0  0
  -24.6596  -12.3218  -17.8892 C   0  0  2  0  0  0  0  0  0  0  0  0
  -23.4030  -12.9827  -17.7071 O   0  0  0  0  0  0  0  0  0  0  0  0
  -20.6653  -12.7030  -15.1321 C   0  0  2  0  0  0  0  0  0  0  0  0
  -20.6914  -13.8071  -16.0520 O   0  0  0  0  0  0  0  0  0  0  0  0
  -20.0385  -16.6527  -12.1460 C   0  0  0  0  0  0  0  0  0  0  0  0
  -19.6078  -15.3375  -11.4994 O   0  0  0  0  0  0  0  0  0  0  0  0
  -25.8787  -13.1113  -17.4145 C   0  0  0  0  0  0  0  0  0  0  0  0
  -25.9035  -14.3592  -18.1246 O   0  0  0  0  0  0  0  0  0  0  0  0
  -20.5404  -13.2714  -13.6630 C   0  0  1  0  0  0  0  0  0  0  0  0
  -19.3202  -13.9869  -13.5749 O   0  0  0  0  0  0  0  0  0  0  0  0
  -19.2967  -18.7722  -13.2491 C   0  0  0  0  0  0  0  0  0  0  0  0
  -16.5194  -17.5939  -15.4280 C   0  0  0  0  0  0  0  0  0  0  0  0
  1  2  1  1  0  0  0
  1  6  1  0  0  0  0
  1 21  1  0  0  0  0
  3  4  1  1  0  0  0
  3  8  1  0  0  0  0
  3 28  1  0  0  0  0
  5  9  1  0  0  0  0
  5 25  1  0  0  0  0
  5 29  1  6  0  0  0
  6  7  1  1  0  0  0
  6 11  1  0  0  0  0
  8 12  1  0  0  0  0
  9 10  1  6  0  0  0
  9 14  1  0  0  0  0
 11 16  1  0  0  0  0
 12 13  1  1  0  0  0
 12 17  1  0  0  0  0
 14 15  1  1  0  0  0
 14 18  1  0  0  0  0
 15 31  1  0  0  0  0
 16 20  1  0  0  0  0
 17  2  1  6  0  0  0
 17 22  1  0  0  0  0
 18 19  1  1  0  0  0
 18 24  1  0  0  0  0
 18 30  1  0  0  0  0
 20 21  1  0  0  0  0
 20 26  1  6  0  0  0
 22 23  1  6  0  0  0
 22 28  1  0  0  0  0
 24 25  1  0  0  0  0
 26 27  1  0  0  0  0
 28 29  1  6  0  0  0
M  END
>  <CHROM.1>
-176.72428542,176.99180089,-123.73035645,-178.43946062,121.56466213,49.11974753
-20.84449338,-13.69162140,-14.91592800,3.06595025,-0.88836487,0.69197065

>  <Name>
ligand

>  <RI>
0

>  <Rbt.Current_Directory>
/home/itssahil/PROJECTS/Mol_Feturizer/New_Systems/rnas/4GPW

>  <Rbt.Executable>
rbdock ($Id: //depot/dev/client3/rdock/2013.1/src/exe/rbdock.cxx#4 $)

>  <Rbt.Library>
libRbt.so (2013.1, Build901 2013/11/27)

>  <Rbt.Parameter_File>
/export/apps/rDock/src/rDock_2013.1_src/data/scripts/dock_solv.prm

>  <Rbt.Receptor>
prm/pocket_docking_7.prm

>  <SCORE>
-13.5726

>  <SCORE.INTER>
-6.80298

>  <SCORE.INTER.CONST>
1

>  <SCORE.INTER.POLAR>
0

>  <SCORE.INTER.ROT>
6

>  <SCORE.INTER.SOLV>
11.2269

>  <SCORE.INTER.VDW>
-15.8776

>  <SCORE.INTER.norm>
-0.219451

>  <SCORE.INTRA>
-6.76966

>  <SCORE.INTRA.DIHEDRAL>
-15.6892

>  <SCORE.INTRA.DIHEDRAL.0>
19.2558

>  <SCORE.INTRA.POLAR>
0

>  <SCORE.INTRA.POLAR.0>
0

>  <SCORE.INTRA.REPUL>
0

>  <SCORE.INTRA.REPUL.0>
0

>  <SCORE.INTRA.SOLV>
-1.93294

>  <SCORE.INTRA.SOLV.lig_0>
-64.5929

>  <SCORE.INTRA.VDW>
2.04143

>  <SCORE.INTRA.VDW.0>
-4.40538

>  <SCORE.INTRA.norm>
-0.218376

>  <SCORE.RESTR>
0

>  <SCORE.RESTR.CAVITY>
0

>  <SCORE.RESTR.norm>
0

>  <SCORE.SYSTEM>
0

>  <SCORE.SYSTEM.CONST>
0

>  <SCORE.SYSTEM.DIHEDRAL>
0

>  <SCORE.SYSTEM.SOLV>
0

>  <SCORE.SYSTEM.norm>
0

>  <SCORE.heavy>
31

>  <SCORE.norm>
-0.437827

>  <RMSD>
8.359

$$$$
ligand
 OpenBabel11021811493D
libRbt.so/2013.1/901 2013/11/27
 31 33  0  0  0  0  0  0  0  0999 V2000
  -24.0179  -12.6826  -15.9646 C   0  0  2  0  0  0  0  0  0  0  0  0
  -22.6108  -12.4984  -16.0163 O   0  0  0  0  0  0  0  0  0  0  0  0
  -19.2018  -12.7582  -13.4695 C   0  0  2  0  0  0  0  0  0  0  0  0
  -18.3791  -12.6094  -12.3126 N   0  0  0  0  0  0  0  0  0  0  0  0
  -18.8438  -15.6145  -13.2169 C   0  0  2  0  0  0  0  0  0  0  0  0
  -24.5206  -12.8302  -17.4605 C   0  0  2  0  0  0  0  0  0  0  0  0
  -23.8484  -13.9783  -18.0865 N   0  0  0  0  0  0  0  0  0  0  0  0
  -19.6700  -11.3133  -13.9420 C   0  0  0  0  0  0  0  0  0  0  0  0
  -19.3821  -16.6861  -14.2218 C   0  0  2  0  0  0  0  0  0  0  0  0
  -20.1627  -16.0239  -15.1888 O   0  0  0  0  0  0  0  0  0  0  0  0
  -24.2237  -11.4988  -18.2580 C   0  0  0  0  0  0  0  0  0  0  0  0
  -20.5841  -11.4774  -15.2389 C   0  0  2  0  0  0  0  0  0  0  0  0
  -21.0266  -10.1432  -15.6986 N   0  0  0  0  0  0  0  0  0  0  0  0
  -20.2343  -17.7645  -13.4319 C   0  0  1  0  0  0  0  0  0  0  0  0
  -20.7649  -18.8043  -14.3846 N   0  0  0  0  0  0  0  0  0  0  0  0
  -24.4935  -10.2004  -17.3899 C   0  0  0  0  0  0  0  0  0  0  0  0
  -21.8449  -12.3629  -14.8711 C   0  0  2  0  0  0  0  0  0  0  0  0
  -19.2828  -18.4929  -12.3313 C   0  0  1  0  0  0  0  0  0  0  0  0
  -18.1865  -19.1736  -12.9075 O   0  0  0  0  0  0  0  0  0  0  0  0
  -24.6965  -10.2828  -16.0555 C   0  0  2  0  0  0  0  0  0  0  0  0
  -24.6834  -11.5289  -15.3512 O   0  0  0  0  0  0  0  0  0  0  0  0
  -21.3603  -13.7898  -14.3844 C   0  0  2  0  0  0  0  0  0  0  0  0
  -22.5083  -14.5843  -14.0428 O   0  0  0  0  0  0  0  0  0  0  0  0
  -18.7304  -17.4048  -11.3515 C   0  0  0  0  0  0  0  0  0  0  0  0
  -18.0280  -16.2968  -12.1340 O   0  0  0  0  0  0  0  0  0  0  0  0
  -24.9615   -9.0536  -15.1872 C   0  0  0  0  0  0  0  0  0  0  0  0
  -26.1463   -9.3027  -14.4150 O   0  0  0  0  0  0  0  0  0  0  0  0
  -20.4536  -13.6326  -13.0998 C   0  0  1  0  0  0  0  0  0  0  0  0
  -20.0306  -14.9260  -12.7040 O   0  0  0  0  0  0  0  0  0  0  0  0
  -19.9927  -19.5616  -11.4727 C   0  0  0  0  0  0  0  0  0  0  0  0
  -22.0448  -18.4913  -15.0521 C   0  0  0  0  0  0  0  0  0  0  0  0
  1  2  1  6  0  0  0
  1  6  1  0  0  0  0
  1 21  1  0  0  0  0
  3  4  1  1  0  0  0
  3  8  1  0  0  0  0
  3 28  1  0  0  0  0
  5  9  1  0  0  0  0
  5 25  1  0  0  0  0
  5 29  1  1  0  0  0
  6  7  1  6  0  0  0
  6 11  1  0  0  0  0
  8 12  1  0  0  0  0
  9 10  1  6  0  0  0
  9 14  1  0  0  0  0
 11 16  1  0  0  0  0
 12 13  1  1  0  0  0
 12 17  1  0  0  0  0
 14 15  1  6  0  0  0
 14 18  1  0  0  0  0
 15 31  1  0  0  0  0
 16 20  1  0  0  0  0
 17  2  1  6  0  0  0
 17 22  1  0  0  0  0
 18 19  1  6  0  0  0
 18 24  1  0  0  0  0
 18 30  1  0  0  0  0
 20 21  1  0  0  0  0
 20 26  1  6  0  0  0
 22 23  1  1  0  0  0
 22 28  1  0  0  0  0
 24 25  1  0  0  0  0
 26 27  1  0  0  0  0
 28 29  1  6  0  0  0
M  END
>  <CHROM.1>
-178.64206936,-103.87925560,-86.15843440,-151.35641057,128.46810535,-31.41289910
-21.46217644,-14.07883470,-14.48974053,2.30757282,-0.64517257,0.05059816

>  <Name>
ligand

>  <RI>
0

>  <Rbt.Current_Directory>
/home/itssahil/PROJECTS/Mol_Feturizer/New_Systems/rnas/4GPW

>  <Rbt.Executable>
rbdock ($Id: //depot/dev/client3/rdock/2013.1/src/exe/rbdock.cxx#4 $)

>  <Rbt.Library>
libRbt.so (2013.1, Build901 2013/11/27)

>  <Rbt.Parameter_File>
/export/apps/rDock/src/rDock_2013.1_src/data/scripts/dock_solv.prm

>  <Rbt.Receptor>
prm/pocket_docking_4.prm

>  <SCORE>
-10.1666

>  <SCORE.INTER>
-9.32658

>  <SCORE.INTER.CONST>
1

>  <SCORE.INTER.POLAR>
0

>  <SCORE.INTER.ROT>
6

>  <SCORE.INTER.SOLV>
10.1281

>  <SCORE.INTER.VDW>
-17.1937

>  <SCORE.INTER.norm>
-0.300857

>  <SCORE.INTRA>
-0.840052

>  <SCORE.INTRA.DIHEDRAL>
-4.31851

>  <SCORE.INTRA.DIHEDRAL.0>
19.2558

>  <SCORE.INTRA.POLAR>
0

>  <SCORE.INTRA.POLAR.0>
0

>  <SCORE.INTRA.REPUL>
0

>  <SCORE.INTRA.REPUL.0>
0

>  <SCORE.INTRA.SOLV>
-0.420663

>  <SCORE.INTRA.SOLV.lig_0>
-64.5929

>  <SCORE.INTRA.VDW>
1.52953

>  <SCORE.INTRA.VDW.0>
-4.40538

>  <SCORE.INTRA.norm>
-0.0270985

>  <SCORE.RESTR>
0

>  <SCORE.RESTR.CAVITY>
0

>  <SCORE.RESTR.norm>
0

>  <SCORE.SYSTEM>
0

>  <SCORE.SYSTEM.CONST>
0

>  <SCORE.SYSTEM.DIHEDRAL>
0

>  <SCORE.SYSTEM.SOLV>
0

>  <SCORE.SYSTEM.norm>
0

>  <SCORE.heavy>
31

>  <SCORE.norm>
-0.327956

>  <RMSD>
8.362

$$$$
ligand
 OpenBabel11021811493D
libRbt.so/2013.1/901 2013/11/27
 31 33  0  0  0  0  0  0  0  0999 V2000
  -15.7834  -23.4740  -10.3092 C   0  0  2  0  0  0  0  0  0  0  0  0
  -16.7886  -22.9972   -9.4267 O   0  0  0  0  0  0  0  0  0  0  0  0
  -20.1881  -22.9031  -11.9976 C   0  0  2  0  0  0  0  0  0  0  0  0
  -21.5527  -22.8541  -12.4133 N   0  0  0  0  0  0  0  0  0  0  0  0
  -20.5619  -19.1791  -11.6116 C   0  0  2  0  0  0  0  0  0  0  0  0
  -14.3912  -22.9795   -9.7351 C   0  0  2  0  0  0  0  0  0  0  0  0
  -14.2118  -23.5097   -8.3755 N   0  0  0  0  0  0  0  0  0  0  0  0
  -19.9913  -24.1799  -11.0696 C   0  0  0  0  0  0  0  0  0  0  0  0
  -20.7055  -18.3370  -12.9225 C   0  0  2  0  0  0  0  0  0  0  0  0
  -21.4935  -19.0721  -13.8289 O   0  0  0  0  0  0  0  0  0  0  0  0
  -14.3432  -21.4002   -9.7359 C   0  0  0  0  0  0  0  0  0  0  0  0
  -18.4652  -24.2399  -10.6096 C   0  0  2  0  0  0  0  0  0  0  0  0
  -18.2589  -25.4247   -9.7487 N   0  0  0  0  0  0  0  0  0  0  0  0
  -19.2656  -18.0423  -13.5168 C   0  0  1  0  0  0  0  0  0  0  0  0
  -19.3836  -17.2342  -14.7831 N   0  0  0  0  0  0  0  0  0  0  0  0
  -15.0026  -20.7753  -11.0348 C   0  0  0  0  0  0  0  0  0  0  0  0
  -18.1195  -22.9227   -9.8005 C   0  0  2  0  0  0  0  0  0  0  0  0
  -18.4035  -17.1948  -12.4278 C   0  0  1  0  0  0  0  0  0  0  0  0
  -18.9832  -15.9457  -12.1099 O   0  0  0  0  0  0  0  0  0  0  0  0
  -15.7365  -21.5349  -11.8793 C   0  0  2  0  0  0  0  0  0  0  0  0
  -15.9602  -22.9316  -11.6599 O   0  0  0  0  0  0  0  0  0  0  0  0
  -18.3394  -21.6613  -10.7323 C   0  0  2  0  0  0  0  0  0  0  0  0
  -18.0339  -20.4696   -9.9891 O   0  0  0  0  0  0  0  0  0  0  0  0
  -18.2930  -18.0379  -11.1140 C   0  0  0  0  0  0  0  0  0  0  0  0
  -19.6837  -18.4349  -10.6224 O   0  0  0  0  0  0  0  0  0  0  0  0
  -16.3850  -20.9680  -13.1414 C   0  0  0  0  0  0  0  0  0  0  0  0
  -16.8844  -19.6573  -12.8335 O   0  0  0  0  0  0  0  0  0  0  0  0
  -19.8502  -21.5978  -11.1913 C   0  0  1  0  0  0  0  0  0  0  0  0
  -20.0033  -20.4665  -12.0312 O   0  0  0  0  0  0  0  0  0  0  0  0
  -16.9654  -16.8512  -12.8715 C   0  0  0  0  0  0  0  0  0  0  0  0
  -20.2682  -17.7819  -15.8316 C   0  0  0  0  0  0  0  0  0  0  0  0
  1  2  1  1  0  0  0
  1  6  1  0  0  0  0
  1 21  1  0  0  0  0
  3  4  1  1  0  0  0
  3  8  1  0  0  0  0
  3 28  1  0  0  0  0
  5  9  1  0  0  0  0
  5 25  1  0  0  0  0
  5 29  1  6  0  0  0
  6  7  1  1  0  0  0
  6 11  1  0  0  0  0
  8 12  1  0  0  0  0
  9 10  1  6  0  0  0
  9 14  1  0  0  0  0
 11 16  1  0  0  0  0
 12 13  1  1  0  0  0
 12 17  1  0  0  0  0
 14 15  1  6  0  0  0
 14 18  1  0  0  0  0
 15 31  1  0  0  0  0
 16 20  1  0  0  0  0
 17  2  1  6  0  0  0
 17 22  1  0  0  0  0
 18 19  1  1  0  0  0
 18 24  1  0  0  0  0
 18 30  1  0  0  0  0
 20 21  1  0  0  0  0
 20 26  1  6  0  0  0
 22 23  1  1  0  0  0
 22 28  1  0  0  0  0
 24 25  1  0  0  0  0
 26 27  1  0  0  0  0
 28 29  1  6  0  0  0
M  END
>  <CHROM.1>
161.89547950,-172.28652132,-53.56002339,41.70858587,-38.89007467,141.34483120
-18.14743975,-20.69734928,-11.60725601,-1.06861149,-0.30636194,-0.37567311

>  <Name>
ligand

>  <RI>
0

>  <Rbt.Current_Directory>
/home/itssahil/PROJECTS/Mol_Feturizer/New_Systems/rnas/4GPW

>  <Rbt.Executable>
rbdock ($Id: //depot/dev/client3/rdock/2013.1/src/exe/rbdock.cxx#4 $)

>  <Rbt.Library>
libRbt.so (2013.1, Build901 2013/11/27)

>  <Rbt.Parameter_File>
/export/apps/rDock/src/rDock_2013.1_src/data/scripts/dock_solv.prm

>  <Rbt.Receptor>
prm/blind_docking_100.prm

>  <SCORE>
71.114

>  <SCORE.INTER>
47.8353

>  <SCORE.INTER.CONST>
1

>  <SCORE.INTER.POLAR>
0

>  <SCORE.INTER.ROT>
6

>  <SCORE.INTER.SOLV>
19.5299

>  <SCORE.INTER.VDW>
17.7802

>  <SCORE.INTER.norm>
1.54307

>  <SCORE.INTRA>
2.55

>  <SCORE.INTRA.DIHEDRAL>
-7.65481

>  <SCORE.INTRA.DIHEDRAL.0>
19.2558

>  <SCORE.INTRA.POLAR>
0

>  <SCORE.INTRA.POLAR.0>
0

>  <SCORE.INTRA.REPUL>
0

>  <SCORE.INTRA.REPUL.0>
0

>  <SCORE.INTRA.SOLV>
0.0142041

>  <SCORE.INTRA.SOLV.lig_0>
-64.5929

>  <SCORE.INTRA.VDW>
6.3703

>  <SCORE.INTRA.VDW.0>
-4.40538

>  <SCORE.INTRA.norm>
0.0822579

>  <SCORE.RESTR>
20.7287

>  <SCORE.RESTR.CAVITY>
20.7287

>  <SCORE.RESTR.norm>
0.668669

>  <SCORE.SYSTEM>
0

>  <SCORE.SYSTEM.CONST>
0

>  <SCORE.SYSTEM.DIHEDRAL>
0

>  <SCORE.SYSTEM.SOLV>
0

>  <SCORE.SYSTEM.norm>
0

>  <SCORE.heavy>
31

>  <SCORE.norm>
2.294

>  <RMSD>
8.389

$$$$
ligand
 OpenBabel11021811493D
libRbt.so/2013.1/901 2013/11/27
 31 33  0  0  0  0  0  0  0  0999 V2000
  -21.9247  -10.6170  -15.7392 C   0  0  2  0  0  0  0  0  0  0  0  0
  -21.5103  -10.6847  -14.3826 O   0  0  0  0  0  0  0  0  0  0  0  0
  -19.2860  -13.4488  -12.0189 C   0  0  2  0  0  0  0  0  0  0  0  0
  -18.9271  -14.6629  -11.3596 N   0  0  0  0  0  0  0  0  0  0  0  0
  -17.2995  -15.2269  -13.5371 C   0  0  2  0  0  0  0  0  0  0  0  0
  -22.1054   -9.0823  -16.0918 C   0  0  2  0  0  0  0  0  0  0  0  0
  -20.8291   -8.3833  -15.8816 N   0  0  0  0  0  0  0  0  0  0  0  0
  -20.7110  -12.9885  -11.4827 C   0  0  0  0  0  0  0  0  0  0  0  0
  -15.9739  -15.2317  -14.3683 C   0  0  2  0  0  0  0  0  0  0  0  0
  -15.3645  -13.9704  -14.2247 O   0  0  0  0  0  0  0  0  0  0  0  0
  -23.2455   -8.4581  -15.1934 C   0  0  0  0  0  0  0  0  0  0  0  0
  -21.1105  -11.6281  -12.2136 C   0  0  2  0  0  0  0  0  0  0  0  0
  -22.4322  -11.1789  -11.7248 N   0  0  0  0  0  0  0  0  0  0  0  0
  -16.3081  -15.5417  -15.8867 C   0  0  1  0  0  0  0  0  0  0  0  0
  -15.0426  -15.5470  -16.7047 N   0  0  0  0  0  0  0  0  0  0  0  0
  -24.4737   -9.4419  -15.0040 C   0  0  0  0  0  0  0  0  0  0  0  0
  -21.1751  -11.8829  -13.7757 C   0  0  2  0  0  0  0  0  0  0  0  0
  -17.0095  -17.0062  -15.9892 C   0  0  1  0  0  0  0  0  0  0  0  0
  -16.1811  -18.0533  -15.5260 O   0  0  0  0  0  0  0  0  0  0  0  0
  -24.3891  -10.7418  -15.3672 C   0  0  2  0  0  0  0  0  0  0  0  0
  -23.2041  -11.3046  -15.9397 O   0  0  0  0  0  0  0  0  0  0  0  0
  -19.7546  -12.3590  -14.2890 C   0  0  2  0  0  0  0  0  0  0  0  0
  -19.8229  -12.5980  -15.7046 O   0  0  0  0  0  0  0  0  0  0  0  0
  -18.3180  -16.9936  -15.1307 C   0  0  0  0  0  0  0  0  0  0  0  0
  -18.0067  -16.5600  -13.6994 O   0  0  0  0  0  0  0  0  0  0  0  0
  -25.5526  -11.7185  -15.2018 C   0  0  0  0  0  0  0  0  0  0  0  0
  -25.1306  -12.7652  -14.3138 O   0  0  0  0  0  0  0  0  0  0  0  0
  -19.3539  -13.7064  -13.5672 C   0  0  1  0  0  0  0  0  0  0  0  0
  -18.0754  -14.0917  -14.0421 O   0  0  0  0  0  0  0  0  0  0  0  0
  -17.4064  -17.4315  -17.4191 C   0  0  0  0  0  0  0  0  0  0  0  0
  -14.8786  -14.4394  -17.6679 C   0  0  0  0  0  0  0  0  0  0  0  0
  1  2  1  1  0  0  0
  1  6  1  0  0  0  0
  1 21  1  0  0  0  0
  3  4  1  1  0  0  0
  3  8  1  0  0  0  0
  3 28  1  0  0  0  0
  5  9  1  0  0  0  0
  5 25  1  0  0  0  0
  5 29  1  6  0  0  0
  6  7  1  1  0  0  0
  6 11  1  0  0  0  0
  8 12  1  0  0  0  0
  9 10  1  6  0  0  0
  9 14  1  0  0  0  0
 11 16  1  0  0  0  0
 12 13  1  1  0  0  0
 12 17  1  0  0  0  0
 14 15  1  6  0  0  0
 14 18  1  0  0  0  0
 15 31  1  0  0  0  0
 16 20  1  0  0  0  0
 17  2  1  6  0  0  0
 17 22  1  0  0  0  0
 18 19  1  1  0  0  0
 18 24  1  0  0  0  0
 18 30  1  0  0  0  0
 20 21  1  0  0  0  0
 20 26  1  6  0  0  0
 22 23  1  6  0  0  0
 22 28  1  0  0  0  0
 24 25  1  0  0  0  0
 26 27  1  0  0  0  0
 28 29  1  6  0  0  0
M  END
>  <CHROM.1>
-175.62564777,-179.77917815,-111.02163510,-166.52266798,-118.83046284,56.32741407
-19.82113748,-13.18179286,-14.64752170,-2.89995115,-0.65148926,2.07147067

>  <Name>
ligand

>  <RI>
0

>  <Rbt.Current_Directory>
/home/itssahil/PROJECTS/Mol_Feturizer/New_Systems/rnas/4GPW

>  <Rbt.Executable>
rbdock ($Id: //depot/dev/client3/rdock/2013.1/src/exe/rbdock.cxx#4 $)

>  <Rbt.Library>
libRbt.so (2013.1, Build901 2013/11/27)

>  <Rbt.Parameter_File>
/export/apps/rDock/src/rDock_2013.1_src/data/scripts/dock_solv.prm

>  <Rbt.Receptor>
prm/pocket_docking_7.prm

>  <SCORE>
-11.8177

>  <SCORE.INTER>
-4.50448

>  <SCORE.INTER.CONST>
1

>  <SCORE.INTER.POLAR>
0

>  <SCORE.INTER.ROT>
6

>  <SCORE.INTER.SOLV>
11.6155

>  <SCORE.INTER.VDW>
-14.4748

>  <SCORE.INTER.norm>
-0.145306

>  <SCORE.INTRA>
-7.31325

>  <SCORE.INTRA.DIHEDRAL>
-15.4016

>  <SCORE.INTRA.DIHEDRAL.0>
19.2558

>  <SCORE.INTRA.POLAR>
0

>  <SCORE.INTRA.POLAR.0>
0

>  <SCORE.INTRA.REPUL>
0

>  <SCORE.INTRA.REPUL.0>
0

>  <SCORE.INTRA.SOLV>
-1.50916

>  <SCORE.INTRA.SOLV.lig_0>
-64.5929

>  <SCORE.INTRA.VDW>
1.14213

>  <SCORE.INTRA.VDW.0>
-4.40538

>  <SCORE.INTRA.norm>
-0.235911

>  <SCORE.RESTR>
0

>  <SCORE.RESTR.CAVITY>
0

>  <SCORE.RESTR.norm>
0

>  <SCORE.SYSTEM>
0

>  <SCORE.SYSTEM.CONST>
0

>  <SCORE.SYSTEM.DIHEDRAL>
0

>  <SCORE.SYSTEM.SOLV>
0

>  <SCORE.SYSTEM.norm>
0

>  <SCORE.heavy>
31

>  <SCORE.norm>
-0.381217

>  <RMSD>
8.399

$$$$
ligand
 OpenBabel11021811493D
libRbt.so/2013.1/901 2013/11/27
 31 33  0  0  0  0  0  0  0  0999 V2000
  -22.0181  -10.9202  -15.7920 C   0  0  2  0  0  0  0  0  0  0  0  0
  -21.5774  -10.9219  -14.4421 O   0  0  0  0  0  0  0  0  0  0  0  0
  -19.0983  -13.5070  -12.1300 C   0  0  2  0  0  0  0  0  0  0  0  0
  -18.6546  -14.6771  -11.4433 N   0  0  0  0  0  0  0  0  0  0  0  0
  -17.1796  -15.3023  -13.7061 C   0  0  2  0  0  0  0  0  0  0  0  0
  -22.3788   -9.4210  -16.1591 C   0  0  2  0  0  0  0  0  0  0  0  0
  -21.1877   -8.5780  -15.9788 N   0  0  0  0  0  0  0  0  0  0  0  0
  -20.4904  -13.0563  -11.5064 C   0  0  0  0  0  0  0  0  0  0  0  0
  -15.8705  -15.2388  -14.5607 C   0  0  2  0  0  0  0  0  0  0  0  0
  -15.3337  -13.9426  -14.4408 O   0  0  0  0  0  0  0  0  0  0  0  0
  -23.5685   -8.9191  -15.2484 C   0  0  0  0  0  0  0  0  0  0  0  0
  -20.9844  -11.7449  -12.2682 C   0  0  2  0  0  0  0  0  0  0  0  0
  -22.2768  -11.3050  -11.6994 N   0  0  0  0  0  0  0  0  0  0  0  0
  -16.2119  -15.5848  -16.0697 C   0  0  1  0  0  0  0  0  0  0  0  0
  -14.9626  -15.5253  -16.9100 N   0  0  0  0  0  0  0  0  0  0  0  0
  -24.6730  -10.0341  -15.0267 C   0  0  0  0  0  0  0  0  0  0  0  0
  -21.1618  -12.0793  -13.8063 C   0  0  2  0  0  0  0  0  0  0  0  0
  -16.8280  -17.0888  -16.1448 C   0  0  1  0  0  0  0  0  0  0  0  0
  -15.9317  -18.0805  -15.6859 O   0  0  0  0  0  0  0  0  0  0  0  0
  -24.4460  -11.3206  -15.3764 C   0  0  2  0  0  0  0  0  0  0  0  0
  -23.2135  -11.7520  -15.9626 O   0  0  0  0  0  0  0  0  0  0  0  0
  -19.7720  -12.5447  -14.4061 C   0  0  2  0  0  0  0  0  0  0  0  0
  -19.9424  -12.8562  -15.7988 O   0  0  0  0  0  0  0  0  0  0  0  0
  -18.1199  -17.1431  -15.2633 C   0  0  0  0  0  0  0  0  0  0  0  0
  -17.8101  -16.6761  -13.8423 O   0  0  0  0  0  0  0  0  0  0  0  0
  -25.4873  -12.4215  -15.1798 C   0  0  0  0  0  0  0  0  0  0  0  0
  -25.7158  -13.0486  -16.4513 O   0  0  0  0  0  0  0  0  0  0  0  0
  -19.2780  -13.8437  -13.6540 C   0  0  1  0  0  0  0  0  0  0  0  0
  -18.0293  -14.2201  -14.2087 O   0  0  0  0  0  0  0  0  0  0  0  0
  -17.2237  -17.5526  -17.5630 C   0  0  0  0  0  0  0  0  0  0  0  0
  -14.8064  -14.3354  -17.7711 C   0  0  0  0  0  0  0  0  0  0  0  0
  1  2  1  1  0  0  0
  1  6  1  0  0  0  0
  1 21  1  0  0  0  0
  3  4  1  1  0  0  0
  3  8  1  0  0  0  0
  3 28  1  0  0  0  0
  5  9  1  0  0  0  0
  5 25  1  0  0  0  0
  5 29  1  6  0  0  0
  6  7  1  1  0  0  0
  6 11  1  0  0  0  0
  8 12  1  0  0  0  0
  9 10  1  6  0  0  0
  9 14  1  0  0  0  0
 11 16  1  0  0  0  0
 12 13  1  1  0  0  0
 12 17  1  0  0  0  0
 14 15  1  6  0  0  0
 14 18  1  0  0  0  0
 15 31  1  0  0  0  0
 16 20  1  0  0  0  0
 17  2  1  6  0  0  0
 17 22  1  0  0  0  0
 18 19  1  1  0  0  0
 18 24  1  0  0  0  0
 18 30  1  0  0  0  0
 20 21  1  0  0  0  0
 20 26  1  6  0  0  0
 22 23  1  6  0  0  0
 22 28  1  0  0  0  0
 24 25  1  0  0  0  0
 26 27  1  0  0  0  0
 28 29  1  6  0  0  0
M  END
>  <CHROM.1>
-178.97937439,-175.04035351,-104.00225430,-170.56135135,124.26518275,55.85598612
-19.80498912,-13.37160180,-14.81952284,2.99822769,-0.61983789,1.42419367

>  <Name>
ligand

>  <RI>
0

>  <Rbt.Current_Directory>
/home/itssahil/PROJECTS/Mol_Feturizer/New_Systems/rnas/4GPW

>  <Rbt.Executable>
rbdock ($Id: //depot/dev/client3/rdock/2013.1/src/exe/rbdock.cxx#4 $)

>  <Rbt.Library>
libRbt.so (2013.1, Build901 2013/11/27)

>  <Rbt.Parameter_File>
/export/apps/rDock/src/rDock_2013.1_src/data/scripts/dock_solv.prm

>  <Rbt.Receptor>
prm/pocket_docking_7.prm

>  <SCORE>
-11.7789

>  <SCORE.INTER>
-4.27732

>  <SCORE.INTER.CONST>
1

>  <SCORE.INTER.POLAR>
0

>  <SCORE.INTER.ROT>
6

>  <SCORE.INTER.SOLV>
11.2703

>  <SCORE.INTER.VDW>
-14.2083

>  <SCORE.INTER.norm>
-0.137978

>  <SCORE.INTRA>
-7.50163

>  <SCORE.INTRA.DIHEDRAL>
-15.8919

>  <SCORE.INTRA.DIHEDRAL.0>
19.2558

>  <SCORE.INTRA.POLAR>
0

>  <SCORE.INTRA.POLAR.0>
0

>  <SCORE.INTRA.REPUL>
0

>  <SCORE.INTRA.REPUL.0>
0

>  <SCORE.INTRA.SOLV>
-2.03458

>  <SCORE.INTRA.SOLV.lig_0>
-64.5929

>  <SCORE.INTRA.VDW>
1.46161

>  <SCORE.INTRA.VDW.0>
-4.40538

>  <SCORE.INTRA.norm>
-0.241988

>  <SCORE.RESTR>
0

>  <SCORE.RESTR.CAVITY>
0

>  <SCORE.RESTR.norm>
0

>  <SCORE.SYSTEM>
0

>  <SCORE.SYSTEM.CONST>
0

>  <SCORE.SYSTEM.DIHEDRAL>
0

>  <SCORE.SYSTEM.SOLV>
0

>  <SCORE.SYSTEM.norm>
0

>  <SCORE.heavy>
31

>  <SCORE.norm>
-0.379966

>  <RMSD>
8.414

$$$$
ligand
 OpenBabel11021811493D
libRbt.so/2013.1/901 2013/11/27
 31 33  0  0  0  0  0  0  0  0999 V2000
  -17.7816  -24.2734  -10.6458 C   0  0  2  0  0  0  0  0  0  0  0  0
  -18.8411  -23.5940   -9.9881 O   0  0  0  0  0  0  0  0  0  0  0  0
  -20.1474  -20.5963  -12.7233 C   0  0  2  0  0  0  0  0  0  0  0  0
  -21.0253  -19.7442  -13.4586 N   0  0  0  0  0  0  0  0  0  0  0  0
  -18.5669  -18.5061  -10.6797 C   0  0  2  0  0  0  0  0  0  0  0  0
  -16.7886  -24.7820   -9.5199 C   0  0  2  0  0  0  0  0  0  0  0  0
  -17.5129  -25.6726   -8.6012 N   0  0  0  0  0  0  0  0  0  0  0  0
  -20.5392  -22.1069  -13.0311 C   0  0  0  0  0  0  0  0  0  0  0  0
  -18.5978  -16.9561  -10.8915 C   0  0  2  0  0  0  0  0  0  0  0  0
  -19.5731  -16.4177  -10.0303 O   0  0  0  0  0  0  0  0  0  0  0  0
  -16.1802  -23.5463   -8.7457 C   0  0  0  0  0  0  0  0  0  0  0  0
  -19.5545  -23.0605  -12.2154 C   0  0  2  0  0  0  0  0  0  0  0  0
  -19.8985  -24.4720  -12.4919 N   0  0  0  0  0  0  0  0  0  0  0  0
  -18.9305  -16.6407  -12.4090 C   0  0  1  0  0  0  0  0  0  0  0  0
  -18.9682  -15.1509  -12.6321 N   0  0  0  0  0  0  0  0  0  0  0  0
  -15.8308  -22.3391   -9.7118 C   0  0  0  0  0  0  0  0  0  0  0  0
  -19.7150  -22.7630  -10.6678 C   0  0  2  0  0  0  0  0  0  0  0  0
  -17.7737  -17.2870  -13.3532 C   0  0  1  0  0  0  0  0  0  0  0  0
  -16.4871  -16.7626  -13.0943 O   0  0  0  0  0  0  0  0  0  0  0  0
  -16.2655  -22.3217  -10.9922 C   0  0  2  0  0  0  0  0  0  0  0  0
  -17.0552  -23.3769  -11.5506 O   0  0  0  0  0  0  0  0  0  0  0  0
  -19.3403  -21.2510  -10.3823 C   0  0  2  0  0  0  0  0  0  0  0  0
  -19.4978  -20.9854   -8.9786 O   0  0  0  0  0  0  0  0  0  0  0  0
  -17.7366  -18.8324  -13.1091 C   0  0  0  0  0  0  0  0  0  0  0  0
  -17.5525  -19.1282  -11.6218 O   0  0  0  0  0  0  0  0  0  0  0  0
  -15.9468  -21.1766  -11.9525 C   0  0  0  0  0  0  0  0  0  0  0  0
  -14.5198  -21.0227  -12.0017 O   0  0  0  0  0  0  0  0  0  0  0  0
  -20.3129  -20.3021  -11.1890 C   0  0  1  0  0  0  0  0  0  0  0  0
  -19.9383  -18.9623  -10.9182 O   0  0  0  0  0  0  0  0  0  0  0  0
  -17.9818  -17.0693  -14.8672 C   0  0  0  0  0  0  0  0  0  0  0  0
  -20.1780  -14.4467  -12.1609 C   0  0  0  0  0  0  0  0  0  0  0  0
  1  2  1  1  0  0  0
  1  6  1  0  0  0  0
  1 21  1  0  0  0  0
  3  4  1  6  0  0  0
  3  8  1  0  0  0  0
  3 28  1  0  0  0  0
  5  9  1  0  0  0  0
  5 25  1  0  0  0  0
  5 29  1  6  0  0  0
  6  7  1  1  0  0  0
  6 11  1  0  0  0  0
  8 12  1  0  0  0  0
  9 10  1  1  0  0  0
  9 14  1  0  0  0  0
 11 16  1  0  0  0  0
 12 13  1  1  0  0  0
 12 17  1  0  0  0  0
 14 15  1  1  0  0  0
 14 18  1  0  0  0  0
 15 31  1  0  0  0  0
 16 20  1  0  0  0  0
 17  2  1  1  0  0  0
 17 22  1  0  0  0  0
 18 19  1  1  0  0  0
 18 24  1  0  0  0  0
 18 30  1  0  0  0  0
 20 21  1  0  0  0  0
 20 26  1  6  0  0  0
 22 23  1  1  0  0  0
 22 28  1  0  0  0  0
 24 25  1  0  0  0  0
 26 27  1  0  0  0  0
 28 29  1  6  0  0  0
M  END
>  <CHROM.1>
164.72201467,162.20029786,-76.84498731,15.38685941,55.70509552,-84.52200896
-18.33731138,-20.40000833,-11.43296503,1.41669767,0.08489733,2.86413839

>  <Name>
ligand

>  <RI>
0

>  <Rbt.Current_Directory>
/home/itssahil/PROJECTS/Mol_Feturizer/New_Systems/rnas/4GPW

>  <Rbt.Executable>
rbdock ($Id: //depot/dev/client3/rdock/2013.1/src/exe/rbdock.cxx#4 $)

>  <Rbt.Library>
libRbt.so (2013.1, Build901 2013/11/27)

>  <Rbt.Parameter_File>
/export/apps/rDock/src/rDock_2013.1_src/data/scripts/dock_solv.prm

>  <Rbt.Receptor>
prm/blind_docking_100.prm

>  <SCORE>
45.0111

>  <SCORE.INTER>
22.1741

>  <SCORE.INTER.CONST>
1

>  <SCORE.INTER.POLAR>
0

>  <SCORE.INTER.ROT>
6

>  <SCORE.INTER.SOLV>
24.699

>  <SCORE.INTER.VDW>
-1.0503

>  <SCORE.INTER.norm>
0.715293

>  <SCORE.INTRA>
4.48638

>  <SCORE.INTRA.DIHEDRAL>
-4.23866

>  <SCORE.INTRA.DIHEDRAL.0>
19.2558

>  <SCORE.INTRA.POLAR>
0

>  <SCORE.INTRA.POLAR.0>
0

>  <SCORE.INTRA.REPUL>
0

>  <SCORE.INTRA.REPUL.0>
0

>  <SCORE.INTRA.SOLV>
0.78413

>  <SCORE.INTRA.SOLV.lig_0>
-64.5929

>  <SCORE.INTRA.VDW>
6.21364

>  <SCORE.INTRA.VDW.0>
-4.40538

>  <SCORE.INTRA.norm>
0.144722

>  <SCORE.RESTR>
18.3507

>  <SCORE.RESTR.CAVITY>
18.3507

>  <SCORE.RESTR.norm>
0.591957

>  <SCORE.SYSTEM>
0

>  <SCORE.SYSTEM.CONST>
0

>  <SCORE.SYSTEM.DIHEDRAL>
0

>  <SCORE.SYSTEM.SOLV>
0

>  <SCORE.SYSTEM.norm>
0

>  <SCORE.heavy>
31

>  <SCORE.norm>
1.45197

>  <RMSD>
8.432

$$$$
ligand
 OpenBabel11021811493D
libRbt.so/2013.1/901 2013/11/27
 31 33  0  0  0  0  0  0  0  0999 V2000
  -21.4179  -10.4278  -15.4456 C   0  0  2  0  0  0  0  0  0  0  0  0
  -20.8588  -10.1911  -14.1619 O   0  0  0  0  0  0  0  0  0  0  0  0
  -19.4850  -12.7310  -11.0256 C   0  0  2  0  0  0  0  0  0  0  0  0
  -19.5142  -13.6821   -9.9616 N   0  0  0  0  0  0  0  0  0  0  0  0
  -18.8005  -15.6098  -11.8228 C   0  0  2  0  0  0  0  0  0  0  0  0
  -21.1428   -9.1322  -16.3162 C   0  0  2  0  0  0  0  0  0  0  0  0
  -19.6931   -8.8990  -16.3933 N   0  0  0  0  0  0  0  0  0  0  0  0
  -20.4319  -11.5135  -10.6370 C   0  0  0  0  0  0  0  0  0  0  0  0
  -17.8501  -16.5206  -12.6687 C   0  0  2  0  0  0  0  0  0  0  0  0
  -16.7630  -15.7359  -13.0989 O   0  0  0  0  0  0  0  0  0  0  0  0
  -21.8808   -7.8908  -15.6752 C   0  0  0  0  0  0  0  0  0  0  0  0
  -20.3950  -10.4465  -11.8222 C   0  0  2  0  0  0  0  0  0  0  0  0
  -21.2660   -9.3017  -11.4784 N   0  0  0  0  0  0  0  0  0  0  0  0
  -18.6533  -17.1177  -13.8981 C   0  0  1  0  0  0  0  0  0  0  0  0
  -17.7527  -17.9959  -14.7277 N   0  0  0  0  0  0  0  0  0  0  0  0
  -23.3204   -8.2607  -15.1245 C   0  0  0  0  0  0  0  0  0  0  0  0
  -20.9144  -11.1351  -13.1508 C   0  0  2  0  0  0  0  0  0  0  0  0
  -19.8940  -18.0105  -13.3406 C   0  0  1  0  0  0  0  0  0  0  0  0
  -19.4798  -19.1040  -12.5470 O   0  0  0  0  0  0  0  0  0  0  0  0
  -23.7117   -9.5496  -15.0044 C   0  0  2  0  0  0  0  0  0  0  0  0
  -22.8654  -10.6467  -15.3635 O   0  0  0  0  0  0  0  0  0  0  0  0
  -19.9728  -12.3561  -13.5119 C   0  0  2  0  0  0  0  0  0  0  0  0
  -20.4554  -12.9822  -14.7123 O   0  0  0  0  0  0  0  0  0  0  0  0
  -20.8192  -17.0925  -12.4742 C   0  0  0  0  0  0  0  0  0  0  0  0
  -20.0075  -16.4127  -11.3731 O   0  0  0  0  0  0  0  0  0  0  0  0
  -25.0917   -9.9438  -14.4799 C   0  0  0  0  0  0  0  0  0  0  0  0
  -24.9234  -10.5144  -13.1729 O   0  0  0  0  0  0  0  0  0  0  0  0
  -20.0054  -13.4159  -12.3403 C   0  0  1  0  0  0  0  0  0  0  0  0
  -19.1431  -14.4835  -12.6942 O   0  0  0  0  0  0  0  0  0  0  0  0
  -20.7771  -18.6423  -14.4379 C   0  0  0  0  0  0  0  0  0  0  0  0
  -16.8903  -17.3095  -15.7110 C   0  0  0  0  0  0  0  0  0  0  0  0
  1  2  1  1  0  0  0
  1  6  1  0  0  0  0
  1 21  1  0  0  0  0
  3  4  1  1  0  0  0
  3  8  1  0  0  0  0
  3 28  1  0  0  0  0
  5  9  1  0  0  0  0
  5 25  1  0  0  0  0
  5 29  1  6  0  0  0
  6  7  1  1  0  0  0
  6 11  1  0  0  0  0
  8 12  1  0  0  0  0
  9 10  1  6  0  0  0
  9 14  1  0  0  0  0
 11 16  1  0  0  0  0
 12 13  1  1  0  0  0
 12 17  1  0  0  0  0
 14 15  1  1  0  0  0
 14 18  1  0  0  0  0
 15 31  1  0  0  0  0
 16 20  1  0  0  0  0
 17  2  1  6  0  0  0
 17 22  1  0  0  0  0
 18 19  1  1  0  0  0
 18 24  1  0  0  0  0
 18 30  1  0  0  0  0
 20 21  1  0  0  0  0
 20 26  1  6  0  0  0
 22 23  1  6  0  0  0
 22 28  1  0  0  0  0
 24 25  1  0  0  0  0
 26 27  1  0  0  0  0
 28 29  1  6  0  0  0
M  END
>  <CHROM.1>
-179.49375828,179.01754732,-82.66912328,-171.57538478,-108.87395819,55.91830162
-20.46252582,-13.16708264,-13.50979431,-2.98755538,-1.13924885,1.56767671

>  <Name>
ligand

>  <RI>
0

>  <Rbt.Current_Directory>
/home/itssahil/PROJECTS/Mol_Feturizer/New_Systems/rnas/4GPW

>  <Rbt.Executable>
rbdock ($Id: //depot/dev/client3/rdock/2013.1/src/exe/rbdock.cxx#4 $)

>  <Rbt.Library>
libRbt.so (2013.1, Build901 2013/11/27)

>  <Rbt.Parameter_File>
/export/apps/rDock/src/rDock_2013.1_src/data/scripts/dock_solv.prm

>  <Rbt.Receptor>
prm/pocket_docking_7.prm

>  <SCORE>
-12.7544

>  <SCORE.INTER>
-5.29468

>  <SCORE.INTER.CONST>
1

>  <SCORE.INTER.POLAR>
0

>  <SCORE.INTER.ROT>
6

>  <SCORE.INTER.SOLV>
13.2467

>  <SCORE.INTER.VDW>
-15.5454

>  <SCORE.INTER.norm>
-0.170796

>  <SCORE.INTRA>
-7.45971

>  <SCORE.INTRA.DIHEDRAL>
-16.5923

>  <SCORE.INTRA.DIHEDRAL.0>
19.2558

>  <SCORE.INTRA.POLAR>
0

>  <SCORE.INTRA.POLAR.0>
0

>  <SCORE.INTRA.REPUL>
0

>  <SCORE.INTRA.REPUL.0>
0

>  <SCORE.INTRA.SOLV>
-1.72015

>  <SCORE.INTRA.SOLV.lig_0>
-64.5929

>  <SCORE.INTRA.VDW>
1.69651

>  <SCORE.INTRA.VDW.0>
-4.40538

>  <SCORE.INTRA.norm>
-0.240636

>  <SCORE.RESTR>
0

>  <SCORE.RESTR.CAVITY>
0

>  <SCORE.RESTR.norm>
0

>  <SCORE.SYSTEM>
0

>  <SCORE.SYSTEM.CONST>
0

>  <SCORE.SYSTEM.DIHEDRAL>
0

>  <SCORE.SYSTEM.SOLV>
0

>  <SCORE.SYSTEM.norm>
0

>  <SCORE.heavy>
31

>  <SCORE.norm>
-0.411432

>  <RMSD>
8.447

$$$$
ligand
 OpenBabel11021811493D
libRbt.so/2013.1/901 2013/11/27
 31 33  0  0  0  0  0  0  0  0999 V2000
  -25.3815  -12.6600  -16.8846 C   0  0  2  0  0  0  0  0  0  0  0  0
  -24.0832  -13.2122  -16.7225 O   0  0  0  0  0  0  0  0  0  0  0  0
  -22.7383  -17.2071  -16.0853 C   0  0  2  0  0  0  0  0  0  0  0  0
  -22.4825  -18.4452  -15.4227 N   0  0  0  0  0  0  0  0  0  0  0  0
  -25.1147  -17.9605  -18.3347 C   0  0  2  0  0  0  0  0  0  0  0  0
  -25.3480  -11.7776  -18.2009 C   0  0  2  0  0  0  0  0  0  0  0  0
  -24.9752  -12.6251  -19.3431 N   0  0  0  0  0  0  0  0  0  0  0  0
  -22.0289  -16.0429  -15.2660 C   0  0  0  0  0  0  0  0  0  0  0  0
  -25.7992  -19.3224  -18.6883 C   0  0  2  0  0  0  0  0  0  0  0  0
  -26.9708  -19.4353  -17.9155 O   0  0  0  0  0  0  0  0  0  0  0  0
  -24.3225  -10.5890  -18.0217 C   0  0  0  0  0  0  0  0  0  0  0  0
  -22.3082  -14.6594  -16.0091 C   0  0  2  0  0  0  0  0  0  0  0  0
  -21.6517  -13.5624  -15.2655 N   0  0  0  0  0  0  0  0  0  0  0  0
  -24.7923  -20.5092  -18.3869 C   0  0  1  0  0  0  0  0  0  0  0  0
  -25.4357  -21.8309  -18.7183 N   0  0  0  0  0  0  0  0  0  0  0  0
  -24.3775   -9.9560  -16.5695 C   0  0  0  0  0  0  0  0  0  0  0  0
  -23.8716  -14.4104  -16.0623 C   0  0  2  0  0  0  0  0  0  0  0  0
  -23.4616  -20.3246  -19.3048 C   0  0  1  0  0  0  0  0  0  0  0  0
  -23.7337  -20.3553  -20.6913 O   0  0  0  0  0  0  0  0  0  0  0  0
  -25.0476  -10.5674  -15.5666 C   0  0  2  0  0  0  0  0  0  0  0  0
  -25.7421  -11.8057  -15.7488 O   0  0  0  0  0  0  0  0  0  0  0  0
  -24.5637  -15.5877  -16.8639 C   0  0  2  0  0  0  0  0  0  0  0  0
  -25.9825  -15.3609  -16.8996 O   0  0  0  0  0  0  0  0  0  0  0  0
  -22.8050  -18.9466  -18.9596 C   0  0  0  0  0  0  0  0  0  0  0  0
  -23.8242  -17.8203  -19.1211 O   0  0  0  0  0  0  0  0  0  0  0  0
  -25.1241   -9.9862  -14.1555 C   0  0  0  0  0  0  0  0  0  0  0  0
  -24.4680  -10.8999  -13.2628 O   0  0  0  0  0  0  0  0  0  0  0  0
  -24.2893  -16.9610  -16.1318 C   0  0  1  0  0  0  0  0  0  0  0  0
  -24.9118  -17.9880  -16.8844 O   0  0  0  0  0  0  0  0  0  0  0  0
  -22.3819  -21.4086  -19.0992 C   0  0  0  0  0  0  0  0  0  0  0  0
  -25.9946  -22.5923  -17.5827 C   0  0  0  0  0  0  0  0  0  0  0  0
  1  2  1  1  0  0  0
  1  6  1  0  0  0  0
  1 21  1  0  0  0  0
  3  4  1  1  0  0  0
  3  8  1  0  0  0  0
  3 28  1  0  0  0  0
  5  9  1  0  0  0  0
  5 25  1  0  0  0  0
  5 29  1  1  0  0  0
  6  7  1  6  0  0  0
  6 11  1  0  0  0  0
  8 12  1  0  0  0  0
  9 10  1  1  0  0  0
  9 14  1  0  0  0  0
 11 16  1  0  0  0  0
 12 13  1  1  0  0  0
 12 17  1  0  0  0  0
 14 15  1  6  0  0  0
 14 18  1  0  0  0  0
 15 31  1  0  0  0  0
 16 20  1  0  0  0  0
 17  2  1  6  0  0  0
 17 22  1  0  0  0  0
 18 19  1  6  0  0  0
 18 24  1  0  0  0  0
 18 30  1  0  0  0  0
 20 21  1  0  0  0  0
 20 26  1  6  0  0  0
 22 23  1  1  0  0  0
 22 28  1  0  0  0  0
 24 25  1  0  0  0  0
 26 27  1  0  0  0  0
 28 29  1  6  0  0  0
M  END
>  <CHROM.1>
-152.61000941,178.48633228,-99.51020896,-176.85699058,-116.36649100,-88.26035898
-24.34556520,-15.97459074,-17.16564851,1.58876714,-0.81694098,0.30111164

>  <Name>
ligand

>  <RI>
0

>  <Rbt.Current_Directory>
/home/itssahil/PROJECTS/Mol_Feturizer/New_Systems/rnas/4GPW

>  <Rbt.Executable>
rbdock ($Id: //depot/dev/client3/rdock/2013.1/src/exe/rbdock.cxx#4 $)

>  <Rbt.Library>
libRbt.so (2013.1, Build901 2013/11/27)

>  <Rbt.Parameter_File>
/export/apps/rDock/src/rDock_2013.1_src/data/scripts/dock_solv.prm

>  <Rbt.Receptor>
prm/pocket_docking_7.prm

>  <SCORE>
-9.79597

>  <SCORE.INTER>
-5.26191

>  <SCORE.INTER.CONST>
1

>  <SCORE.INTER.POLAR>
0

>  <SCORE.INTER.ROT>
6

>  <SCORE.INTER.SOLV>
11.5094

>  <SCORE.INTER.VDW>
-14.9444

>  <SCORE.INTER.norm>
-0.169739

>  <SCORE.INTRA>
-4.53405

>  <SCORE.INTRA.DIHEDRAL>
-10.2242

>  <SCORE.INTRA.DIHEDRAL.0>
19.2558

>  <SCORE.INTRA.POLAR>
0

>  <SCORE.INTRA.POLAR.0>
0

>  <SCORE.INTRA.REPUL>
0

>  <SCORE.INTRA.REPUL.0>
0

>  <SCORE.INTRA.SOLV>
-1.85352

>  <SCORE.INTRA.SOLV.lig_0>
-64.5929

>  <SCORE.INTRA.VDW>
1.50482

>  <SCORE.INTRA.VDW.0>
-4.40538

>  <SCORE.INTRA.norm>
-0.14626

>  <SCORE.RESTR>
0

>  <SCORE.RESTR.CAVITY>
0

>  <SCORE.RESTR.norm>
0

>  <SCORE.SYSTEM>
0

>  <SCORE.SYSTEM.CONST>
0

>  <SCORE.SYSTEM.DIHEDRAL>
0

>  <SCORE.SYSTEM.SOLV>
0

>  <SCORE.SYSTEM.norm>
0

>  <SCORE.heavy>
31

>  <SCORE.norm>
-0.315999

>  <RMSD>
8.480

$$$$
ligand
 OpenBabel11021811493D
libRbt.so/2013.1/901 2013/11/27
 31 33  0  0  0  0  0  0  0  0999 V2000
  -22.6857  -10.2207  -14.9907 C   0  0  2  0  0  0  0  0  0  0  0  0
  -22.6189  -10.0932  -13.5779 O   0  0  0  0  0  0  0  0  0  0  0  0
  -19.8799  -11.5540  -10.6558 C   0  0  2  0  0  0  0  0  0  0  0  0
  -19.1850  -12.4704   -9.8105 N   0  0  0  0  0  0  0  0  0  0  0  0
  -17.2076  -12.7860  -12.0340 C   0  0  2  0  0  0  0  0  0  0  0  0
  -23.5053   -8.9756  -15.5295 C   0  0  2  0  0  0  0  0  0  0  0  0
  -22.8217   -7.7364  -15.1310 N   0  0  0  0  0  0  0  0  0  0  0  0
  -21.4346  -11.6552  -10.3356 C   0  0  0  0  0  0  0  0  0  0  0  0
  -15.8613  -12.2351  -12.6104 C   0  0  2  0  0  0  0  0  0  0  0  0
  -15.6844  -10.9241  -12.1281 O   0  0  0  0  0  0  0  0  0  0  0  0
  -24.9777   -9.0169  -14.9577 C   0  0  0  0  0  0  0  0  0  0  0  0
  -22.2120  -10.6267  -11.2748 C   0  0  2  0  0  0  0  0  0  0  0  0
  -23.6612  -10.7009  -10.9890 N   0  0  0  0  0  0  0  0  0  0  0  0
  -15.9178  -12.2647  -14.1944 C   0  0  1  0  0  0  0  0  0  0  0  0
  -14.6298  -11.7339  -14.7685 N   0  0  0  0  0  0  0  0  0  0  0  0
  -25.5745  -10.4850  -14.9282 C   0  0  0  0  0  0  0  0  0  0  0  0
  -21.9440  -11.0085  -12.7886 C   0  0  2  0  0  0  0  0  0  0  0  0
  -16.1244  -13.8003  -14.6912 C   0  0  1  0  0  0  0  0  0  0  0  0
  -15.0720  -14.6580  -14.2990 O   0  0  0  0  0  0  0  0  0  0  0  0
  -24.7844  -11.5638  -15.1299 C   0  0  2  0  0  0  0  0  0  0  0  0
  -23.3798  -11.4518  -15.3816 O   0  0  0  0  0  0  0  0  0  0  0  0
  -20.3908  -10.9217  -13.0848 C   0  0  2  0  0  0  0  0  0  0  0  0
  -20.1537  -11.2791  -14.4566 O   0  0  0  0  0  0  0  0  0  0  0  0
  -17.4598  -14.3455  -14.0840 C   0  0  0  0  0  0  0  0  0  0  0  0
  -17.4530  -14.1866  -12.5647 O   0  0  0  0  0  0  0  0  0  0  0  0
  -25.3247  -12.9930  -15.1108 C   0  0  0  0  0  0  0  0  0  0  0  0
  -25.2893  -13.4989  -16.4543 O   0  0  0  0  0  0  0  0  0  0  0  0
  -19.6159  -11.9387  -12.1560 C   0  0  1  0  0  0  0  0  0  0  0  0
  -18.2325  -11.8220  -12.4410 O   0  0  0  0  0  0  0  0  0  0  0  0
  -16.2147  -13.9752  -16.2223 C   0  0  0  0  0  0  0  0  0  0  0  0
  -14.7452  -10.9089  -15.9883 C   0  0  0  0  0  0  0  0  0  0  0  0
  1  2  1  1  0  0  0
  1  6  1  0  0  0  0
  1 21  1  0  0  0  0
  3  4  1  1  0  0  0
  3  8  1  0  0  0  0
  3 28  1  0  0  0  0
  5  9  1  0  0  0  0
  5 25  1  0  0  0  0
  5 29  1  6  0  0  0
  6  7  1  1  0  0  0
  6 11  1  0  0  0  0
  8 12  1  0  0  0  0
  9 10  1  6  0  0  0
  9 14  1  0  0  0  0
 11 16  1  0  0  0  0
 12 13  1  1  0  0  0
 12 17  1  0  0  0  0
 14 15  1  6  0  0  0
 14 18  1  0  0  0  0
 15 31  1  0  0  0  0
 16 20  1  0  0  0  0
 17  2  1  6  0  0  0
 17 22  1  0  0  0  0
 18 19  1  1  0  0  0
 18 24  1  0  0  0  0
 18 30  1  0  0  0  0
 20 21  1  0  0  0  0
 20 26  1  6  0  0  0
 22 23  1  6  0  0  0
 22 28  1  0  0  0  0
 24 25  1  0  0  0  0
 26 27  1  0  0  0  0
 28 29  1  6  0  0  0
M  END
>  <CHROM.1>
-178.67313448,178.64499100,-142.20257312,-174.23622699,109.58226141,76.58958633
-20.10734552,-11.69613997,-13.66702525,-3.08709485,-0.25779832,1.43168240

>  <Name>
ligand

>  <RI>
0

>  <Rbt.Current_Directory>
/home/itssahil/PROJECTS/Mol_Feturizer/New_Systems/rnas/4GPW

>  <Rbt.Executable>
rbdock ($Id: //depot/dev/client3/rdock/2013.1/src/exe/rbdock.cxx#4 $)

>  <Rbt.Library>
libRbt.so (2013.1, Build901 2013/11/27)

>  <Rbt.Parameter_File>
/export/apps/rDock/src/rDock_2013.1_src/data/scripts/dock_solv.prm

>  <Rbt.Receptor>
prm/pocket_docking_6.prm

>  <SCORE>
-13.3287

>  <SCORE.INTER>
-5.64172

>  <SCORE.INTER.CONST>
1

>  <SCORE.INTER.POLAR>
0

>  <SCORE.INTER.ROT>
6

>  <SCORE.INTER.SOLV>
14.769

>  <SCORE.INTER.VDW>
-16.2841

>  <SCORE.INTER.norm>
-0.181991

>  <SCORE.INTRA>
-7.68699

>  <SCORE.INTRA.DIHEDRAL>
-15.1275

>  <SCORE.INTRA.DIHEDRAL.0>
19.2558

>  <SCORE.INTRA.POLAR>
0

>  <SCORE.INTRA.POLAR.0>
0

>  <SCORE.INTRA.REPUL>
0

>  <SCORE.INTRA.REPUL.0>
0

>  <SCORE.INTRA.SOLV>
-2.75708

>  <SCORE.INTRA.SOLV.lig_0>
-64.5929

>  <SCORE.INTRA.VDW>
1.25528

>  <SCORE.INTRA.VDW.0>
-4.40538

>  <SCORE.INTRA.norm>
-0.247967

>  <SCORE.RESTR>
0

>  <SCORE.RESTR.CAVITY>
0

>  <SCORE.RESTR.norm>
0

>  <SCORE.SYSTEM>
0

>  <SCORE.SYSTEM.CONST>
0

>  <SCORE.SYSTEM.DIHEDRAL>
0

>  <SCORE.SYSTEM.SOLV>
0

>  <SCORE.SYSTEM.norm>
0

>  <SCORE.heavy>
31

>  <SCORE.norm>
-0.429958

>  <RMSD>
8.481

$$$$
ligand
 OpenBabel11021811493D
libRbt.so/2013.1/901 2013/11/27
 31 33  0  0  0  0  0  0  0  0999 V2000
  -23.4140  -12.2648  -15.0823 C   0  0  2  0  0  0  0  0  0  0  0  0
  -22.2006  -11.5447  -15.2429 O   0  0  0  0  0  0  0  0  0  0  0  0
  -18.2422  -11.9779  -13.7204 C   0  0  2  0  0  0  0  0  0  0  0  0
  -17.1634  -12.0256  -12.7871 N   0  0  0  0  0  0  0  0  0  0  0  0
  -17.8587  -14.9962  -12.4257 C   0  0  2  0  0  0  0  0  0  0  0  0
  -24.4210  -11.7256  -16.1812 C   0  0  2  0  0  0  0  0  0  0  0  0
  -23.8405  -11.9365  -17.5155 N   0  0  0  0  0  0  0  0  0  0  0  0
  -18.9225  -10.5430  -13.6287 C   0  0  0  0  0  0  0  0  0  0  0  0
  -16.9907  -16.0636  -13.1710 C   0  0  2  0  0  0  0  0  0  0  0  0
  -16.2800  -15.4095  -14.1955 O   0  0  0  0  0  0  0  0  0  0  0  0
  -24.7165  -10.1939  -15.9298 C   0  0  0  0  0  0  0  0  0  0  0  0
  -20.1242  -10.4857  -14.6761 C   0  0  2  0  0  0  0  0  0  0  0  0
  -20.7681   -9.1559  -14.6110 N   0  0  0  0  0  0  0  0  0  0  0  0
  -17.9367  -17.1935  -13.7554 C   0  0  1  0  0  0  0  0  0  0  0  0
  -17.1183  -18.2301  -14.4808 N   0  0  0  0  0  0  0  0  0  0  0  0
  -24.8687   -9.8517  -14.3896 C   0  0  0  0  0  0  0  0  0  0  0  0
  -21.1786  -11.6102  -14.3115 C   0  0  2  0  0  0  0  0  0  0  0  0
  -18.7303  -17.9104  -12.5292 C   0  0  1  0  0  0  0  0  0  0  0  0
  -17.8689  -18.5332  -11.5979 O   0  0  0  0  0  0  0  0  0  0  0  0
  -24.5169  -10.7457  -13.4380 C   0  0  2  0  0  0  0  0  0  0  0  0
  -23.9944  -12.0402  -13.7547 O   0  0  0  0  0  0  0  0  0  0  0  0
  -20.4802  -13.0294  -14.3884 C   0  0  2  0  0  0  0  0  0  0  0  0
  -21.4394  -14.0438  -14.0467 O   0  0  0  0  0  0  0  0  0  0  0  0
  -19.5709  -16.8254  -11.7773 C   0  0  0  0  0  0  0  0  0  0  0  0
  -18.6717  -15.6720  -11.3365 O   0  0  0  0  0  0  0  0  0  0  0  0
  -24.6515  -10.4518  -11.9446 C   0  0  0  0  0  0  0  0  0  0  0  0
  -23.3310  -10.3898  -11.3835 O   0  0  0  0  0  0  0  0  0  0  0  0
  -19.2883  -13.0910  -13.3528 C   0  0  1  0  0  0  0  0  0  0  0  0
  -18.6825  -14.3677  -13.4609 O   0  0  0  0  0  0  0  0  0  0  0  0
  -19.7063  -19.0266  -12.9588 C   0  0  0  0  0  0  0  0  0  0  0  0
  -16.5877  -17.8405  -15.8031 C   0  0  0  0  0  0  0  0  0  0  0  0
  1  2  1  1  0  0  0
  1  6  1  0  0  0  0
  1 21  1  0  0  0  0
  3  4  1  1  0  0  0
  3  8  1  0  0  0  0
  3 28  1  0  0  0  0
  5  9  1  0  0  0  0
  5 25  1  0  0  0  0
  5 29  1  6  0  0  0
  6  7  1  6  0  0  0
  6 11  1  0  0  0  0
  8 12  1  0  0  0  0
  9 10  1  6  0  0  0
  9 14  1  0  0  0  0
 11 16  1  0  0  0  0
 12 13  1  1  0  0  0
 12 17  1  0  0  0  0
 14 15  1  1  0  0  0
 14 18  1  0  0  0  0
 15 31  1  0  0  0  0
 16 20  1  0  0  0  0
 17  2  1  6  0  0  0
 17 22  1  0  0  0  0
 18 19  1  1  0  0  0
 18 24  1  0  0  0  0
 18 30  1  0  0  0  0
 20 21  1  0  0  0  0
 20 26  1  6  0  0  0
 22 23  1  1  0  0  0
 22 28  1  0  0  0  0
 24 25  1  0  0  0  0
 26 27  1  0  0  0  0
 28 29  1  6  0  0  0
M  END
>  <CHROM.1>
169.35506107,-158.45098417,-74.47791164,-169.41665180,-113.47305760,82.74471677
-20.43122731,-13.55424021,-13.78039468,2.30991929,-0.11959215,-0.08286066

>  <Name>
ligand

>  <RI>
0

>  <Rbt.Current_Directory>
/home/itssahil/PROJECTS/Mol_Feturizer/New_Systems/rnas/4GPW

>  <Rbt.Executable>
rbdock ($Id: //depot/dev/client3/rdock/2013.1/src/exe/rbdock.cxx#4 $)

>  <Rbt.Library>
libRbt.so (2013.1, Build901 2013/11/27)

>  <Rbt.Parameter_File>
/export/apps/rDock/src/rDock_2013.1_src/data/scripts/dock_solv.prm

>  <Rbt.Receptor>
prm/pocket_docking_5.prm

>  <SCORE>
-15.4146

>  <SCORE.INTER>
-9.79392

>  <SCORE.INTER.CONST>
1

>  <SCORE.INTER.POLAR>
0

>  <SCORE.INTER.ROT>
6

>  <SCORE.INTER.SOLV>
9.68426

>  <SCORE.INTER.VDW>
-17.3574

>  <SCORE.INTER.norm>
-0.315933

>  <SCORE.INTRA>
-5.62067

>  <SCORE.INTRA.DIHEDRAL>
-11.938

>  <SCORE.INTRA.DIHEDRAL.0>
19.2558

>  <SCORE.INTRA.POLAR>
0

>  <SCORE.INTRA.POLAR.0>
0

>  <SCORE.INTRA.REPUL>
0

>  <SCORE.INTRA.REPUL.0>
0

>  <SCORE.INTRA.SOLV>
-1.92535

>  <SCORE.INTRA.SOLV.lig_0>
-64.5929

>  <SCORE.INTRA.VDW>
1.31102

>  <SCORE.INTRA.VDW.0>
-4.40538

>  <SCORE.INTRA.norm>
-0.181312

>  <SCORE.RESTR>
0

>  <SCORE.RESTR.CAVITY>
0

>  <SCORE.RESTR.norm>
0

>  <SCORE.SYSTEM>
0

>  <SCORE.SYSTEM.CONST>
0

>  <SCORE.SYSTEM.DIHEDRAL>
0

>  <SCORE.SYSTEM.SOLV>
0

>  <SCORE.SYSTEM.norm>
0

>  <SCORE.heavy>
31

>  <SCORE.norm>
-0.497245

>  <RMSD>
8.493

$$$$
ligand
 OpenBabel11021811493D
libRbt.so/2013.1/901 2013/11/27
 31 33  0  0  0  0  0  0  0  0999 V2000
  -23.4711  -12.3922  -15.3409 C   0  0  2  0  0  0  0  0  0  0  0  0
  -22.2076  -11.7476  -15.4105 O   0  0  0  0  0  0  0  0  0  0  0  0
  -18.3984  -12.0812  -13.5256 C   0  0  2  0  0  0  0  0  0  0  0  0
  -17.4160  -12.1488  -12.4923 N   0  0  0  0  0  0  0  0  0  0  0  0
  -17.7823  -15.0770  -12.5236 C   0  0  2  0  0  0  0  0  0  0  0  0
  -24.3727  -11.7680  -16.4854 C   0  0  2  0  0  0  0  0  0  0  0  0
  -23.7250  -11.9885  -17.7869 N   0  0  0  0  0  0  0  0  0  0  0  0
  -19.1802  -10.7031  -13.3860 C   0  0  0  0  0  0  0  0  0  0  0  0
  -16.8823  -16.0823  -13.3157 C   0  0  2  0  0  0  0  0  0  0  0  0
  -16.2710  -15.3810  -14.3727 O   0  0  0  0  0  0  0  0  0  0  0  0
  -24.5873  -10.2260  -16.2157 C   0  0  0  0  0  0  0  0  0  0  0  0
  -20.2739  -10.6230  -14.5443 C   0  0  2  0  0  0  0  0  0  0  0  0
  -21.0099   -9.3448  -14.4359 N   0  0  0  0  0  0  0  0  0  0  0  0
  -17.7771  -17.2745  -13.8552 C   0  0  1  0  0  0  0  0  0  0  0  0
  -16.9275  -18.2525  -14.6247 N   0  0  0  0  0  0  0  0  0  0  0  0
  -24.8128   -9.9059  -14.6798 C   0  0  0  0  0  0  0  0  0  0  0  0
  -21.2803  -11.8360  -14.3865 C   0  0  2  0  0  0  0  0  0  0  0  0
  -18.4563  -18.0441  -12.5927 C   0  0  1  0  0  0  0  0  0  0  0  0
  -17.5080  -18.6063  -11.7085 O   0  0  0  0  0  0  0  0  0  0  0  0
  -24.5769  -10.8395  -13.7304 C   0  0  2  0  0  0  0  0  0  0  0  0
  -24.1174  -12.1579  -14.0458 O   0  0  0  0  0  0  0  0  0  0  0  0
  -20.4830  -13.1988  -14.5083 C   0  0  2  0  0  0  0  0  0  0  0  0
  -21.4001  -14.2947  -14.3541 O   0  0  0  0  0  0  0  0  0  0  0  0
  -19.3299  -17.0193  -11.7954 C   0  0  0  0  0  0  0  0  0  0  0  0
  -18.4906  -15.8068  -11.3969 O   0  0  0  0  0  0  0  0  0  0  0  0
  -24.7851  -10.5677  -12.2412 C   0  0  0  0  0  0  0  0  0  0  0  0
  -23.4944  -10.5241  -11.6131 O   0  0  0  0  0  0  0  0  0  0  0  0
  -19.3975  -13.2827  -13.3630 C   0  0  1  0  0  0  0  0  0  0  0  0
  -18.6988  -14.5065  -13.5136 O   0  0  0  0  0  0  0  0  0  0  0  0
  -19.3741  -19.2247  -12.9761 C   0  0  0  0  0  0  0  0  0  0  0  0
  -16.4963  -17.8293  -15.9726 C   0  0  0  0  0  0  0  0  0  0  0  0
  1  2  1  1  0  0  0
  1  6  1  0  0  0  0
  1 21  1  0  0  0  0
  3  4  1  1  0  0  0
  3  8  1  0  0  0  0
  3 28  1  0  0  0  0
  5  9  1  0  0  0  0
  5 25  1  0  0  0  0
  5 29  1  6  0  0  0
  6  7  1  6  0  0  0
  6 11  1  0  0  0  0
  8 12  1  0  0  0  0
  9 10  1  6  0  0  0
  9 14  1  0  0  0  0
 11 16  1  0  0  0  0
 12 13  1  1  0  0  0
 12 17  1  0  0  0  0
 14 15  1  1  0  0  0
 14 18  1  0  0  0  0
 15 31  1  0  0  0  0
 16 20  1  0  0  0  0
 17  2  1  6  0  0  0
 17 22  1  0  0  0  0
 18 19  1  1  0  0  0
 18 24  1  0  0  0  0
 18 30  1  0  0  0  0
 20 21  1  0  0  0  0
 20 26  1  6  0  0  0
 22 23  1  1  0  0  0
 22 28  1  0  0  0  0
 24 25  1  0  0  0  0
 26 27  1  0  0  0  0
 28 29  1  6  0  0  0
M  END
>  <CHROM.1>
165.66480256,-159.30548918,-74.66150674,-159.57876987,-110.18443677,73.24398642
-20.41113492,-13.66932401,-13.89020031,2.39382368,-0.38284986,0.16940930

>  <Name>
ligand

>  <RI>
0

>  <Rbt.Current_Directory>
/home/itssahil/PROJECTS/Mol_Feturizer/New_Systems/rnas/4GPW

>  <Rbt.Executable>
rbdock ($Id: //depot/dev/client3/rdock/2013.1/src/exe/rbdock.cxx#4 $)

>  <Rbt.Library>
libRbt.so (2013.1, Build901 2013/11/27)

>  <Rbt.Parameter_File>
/export/apps/rDock/src/rDock_2013.1_src/data/scripts/dock_solv.prm

>  <Rbt.Receptor>
prm/pocket_docking_6.prm

>  <SCORE>
-14.6977

>  <SCORE.INTER>
-9.51726

>  <SCORE.INTER.CONST>
1

>  <SCORE.INTER.POLAR>
0

>  <SCORE.INTER.ROT>
6

>  <SCORE.INTER.SOLV>
9.87683

>  <SCORE.INTER.VDW>
-17.2371

>  <SCORE.INTER.norm>
-0.307008

>  <SCORE.INTRA>
-5.18047

>  <SCORE.INTRA.DIHEDRAL>
-11.6886

>  <SCORE.INTRA.DIHEDRAL.0>
19.2558

>  <SCORE.INTRA.POLAR>
0

>  <SCORE.INTRA.POLAR.0>
0

>  <SCORE.INTRA.REPUL>
0

>  <SCORE.INTRA.REPUL.0>
0

>  <SCORE.INTRA.SOLV>
-0.887921

>  <SCORE.INTRA.SOLV.lig_0>
-64.5929

>  <SCORE.INTRA.VDW>
1.1078

>  <SCORE.INTRA.VDW.0>
-4.40538

>  <SCORE.INTRA.norm>
-0.167112

>  <SCORE.RESTR>
0

>  <SCORE.RESTR.CAVITY>
0

>  <SCORE.RESTR.norm>
0

>  <SCORE.SYSTEM>
0

>  <SCORE.SYSTEM.CONST>
0

>  <SCORE.SYSTEM.DIHEDRAL>
0

>  <SCORE.SYSTEM.SOLV>
0

>  <SCORE.SYSTEM.norm>
0

>  <SCORE.heavy>
31

>  <SCORE.norm>
-0.47412

>  <RMSD>
8.517

$$$$
ligand
 OpenBabel11021811493D
libRbt.so/2013.1/901 2013/11/27
 31 33  0  0  0  0  0  0  0  0999 V2000
  -23.1085  -12.2998  -15.7468 C   0  0  2  0  0  0  0  0  0  0  0  0
  -21.9498  -11.4874  -15.8642 O   0  0  0  0  0  0  0  0  0  0  0  0
  -18.0027  -11.6427  -14.2606 C   0  0  2  0  0  0  0  0  0  0  0  0
  -16.9438  -11.6302  -13.3036 N   0  0  0  0  0  0  0  0  0  0  0  0
  -17.3206  -14.6050  -13.0829 C   0  0  2  0  0  0  0  0  0  0  0  0
  -24.1172  -11.8333  -16.8769 C   0  0  2  0  0  0  0  0  0  0  0  0
  -23.4784  -11.9907  -18.1918 N   0  0  0  0  0  0  0  0  0  0  0  0
  -18.7997  -10.2710  -14.1458 C   0  0  0  0  0  0  0  0  0  0  0  0
  -16.5520  -15.7583  -13.8089 C   0  0  2  0  0  0  0  0  0  0  0  0
  -15.9571  -15.2239  -14.9679 O   0  0  0  0  0  0  0  0  0  0  0  0
  -24.5384  -10.3305  -16.6303 C   0  0  0  0  0  0  0  0  0  0  0  0
  -19.9794  -10.2806  -15.2194 C   0  0  2  0  0  0  0  0  0  0  0  0
  -20.7311   -9.0098  -15.1331 N   0  0  0  0  0  0  0  0  0  0  0  0
  -17.5676  -16.9221  -14.1656 C   0  0  1  0  0  0  0  0  0  0  0  0
  -16.8456  -18.0419  -14.8694 N   0  0  0  0  0  0  0  0  0  0  0  0
  -24.7674  -10.0102  -15.0949 C   0  0  0  0  0  0  0  0  0  0  0  0
  -20.9460  -11.4971  -14.9109 C   0  0  2  0  0  0  0  0  0  0  0  0
  -18.2223  -17.4972  -12.7915 C   0  0  1  0  0  0  0  0  0  0  0  0
  -17.2656  -18.0407  -11.9046 O   0  0  0  0  0  0  0  0  0  0  0  0
  -24.3792  -10.8802  -14.1351 C   0  0  2  0  0  0  0  0  0  0  0  0
  -23.7482  -12.1286  -14.4386 O   0  0  0  0  0  0  0  0  0  0  0  0
  -20.1325  -12.8521  -15.0102 C   0  0  2  0  0  0  0  0  0  0  0  0
  -21.0127  -13.9505  -14.7194 O   0  0  0  0  0  0  0  0  0  0  0  0
  -18.9629  -16.3262  -12.0639 C   0  0  0  0  0  0  0  0  0  0  0  0
  -18.0098  -15.1524  -11.8464 O   0  0  0  0  0  0  0  0  0  0  0  0
  -24.5855  -10.6065  -12.6460 C   0  0  0  0  0  0  0  0  0  0  0  0
  -23.2954  -10.4033  -12.0491 O   0  0  0  0  0  0  0  0  0  0  0  0
  -18.9619  -12.8472  -13.9487 C   0  0  1  0  0  0  0  0  0  0  0  0
  -18.2518  -14.0669  -14.0774 O   0  0  0  0  0  0  0  0  0  0  0  0
  -19.2499  -18.6313  -12.9932 C   0  0  0  0  0  0  0  0  0  0  0  0
  -16.4708  -17.7990  -16.2774 C   0  0  0  0  0  0  0  0  0  0  0  0
  1  2  1  1  0  0  0
  1  6  1  0  0  0  0
  1 21  1  0  0  0  0
  3  4  1  1  0  0  0
  3  8  1  0  0  0  0
  3 28  1  0  0  0  0
  5  9  1  0  0  0  0
  5 25  1  0  0  0  0
  5 29  1  6  0  0  0
  6  7  1  6  0  0  0
  6 11  1  0  0  0  0
  8 12  1  0  0  0  0
  9 10  1  6  0  0  0
  9 14  1  0  0  0  0
 11 16  1  0  0  0  0
 12 13  1  1  0  0  0
 12 17  1  0  0  0  0
 14 15  1  1  0  0  0
 14 18  1  0  0  0  0
 15 31  1  0  0  0  0
 16 20  1  0  0  0  0
 17  2  1  6  0  0  0
 17 22  1  0  0  0  0
 18 19  1  1  0  0  0
 18 24  1  0  0  0  0
 18 30  1  0  0  0  0
 20 21  1  0  0  0  0
 20 26  1  6  0  0  0
 22 23  1  1  0  0  0
 22 28  1  0  0  0  0
 24 25  1  0  0  0  0
 26 27  1  0  0  0  0
 28 29  1  6  0  0  0
M  END
>  <CHROM.1>
170.51809893,-166.93192201,-74.72784372,-168.89224180,-111.63559255,77.72827532
-20.12628144,-13.38760376,-14.33887079,2.36781359,-0.18534864,-0.05755568

>  <Name>
ligand

>  <RI>
0

>  <Rbt.Current_Directory>
/home/itssahil/PROJECTS/Mol_Feturizer/New_Systems/rnas/4GPW

>  <Rbt.Executable>
rbdock ($Id: //depot/dev/client3/rdock/2013.1/src/exe/rbdock.cxx#4 $)

>  <Rbt.Library>
libRbt.so (2013.1, Build901 2013/11/27)

>  <Rbt.Parameter_File>
/export/apps/rDock/src/rDock_2013.1_src/data/scripts/dock_solv.prm

>  <Rbt.Receptor>
prm/pocket_docking_7.prm

>  <SCORE>
-14.7589

>  <SCORE.INTER>
-8.10742

>  <SCORE.INTER.CONST>
1

>  <SCORE.INTER.POLAR>
0

>  <SCORE.INTER.ROT>
6

>  <SCORE.INTER.SOLV>
8.43146

>  <SCORE.INTER.VDW>
-15.8154

>  <SCORE.INTER.norm>
-0.26153

>  <SCORE.INTRA>
-6.6515

>  <SCORE.INTRA.DIHEDRAL>
-14.0228

>  <SCORE.INTRA.DIHEDRAL.0>
19.2558

>  <SCORE.INTRA.POLAR>
0

>  <SCORE.INTRA.POLAR.0>
0

>  <SCORE.INTRA.REPUL>
0

>  <SCORE.INTRA.REPUL.0>
0

>  <SCORE.INTRA.SOLV>
-2.00916

>  <SCORE.INTRA.SOLV.lig_0>
-64.5929

>  <SCORE.INTRA.VDW>
1.3645

>  <SCORE.INTRA.VDW.0>
-4.40538

>  <SCORE.INTRA.norm>
-0.214564

>  <SCORE.RESTR>
0

>  <SCORE.RESTR.CAVITY>
0

>  <SCORE.RESTR.norm>
0

>  <SCORE.SYSTEM>
0

>  <SCORE.SYSTEM.CONST>
0

>  <SCORE.SYSTEM.DIHEDRAL>
0

>  <SCORE.SYSTEM.SOLV>
0

>  <SCORE.SYSTEM.norm>
0

>  <SCORE.heavy>
31

>  <SCORE.norm>
-0.476094

>  <RMSD>
8.543

$$$$
ligand
 OpenBabel11021811493D
libRbt.so/2013.1/901 2013/11/27
 31 33  0  0  0  0  0  0  0  0999 V2000
  -22.3408  -12.5626  -17.5120 C   0  0  2  0  0  0  0  0  0  0  0  0
  -21.5096  -11.6750  -16.7787 O   0  0  0  0  0  0  0  0  0  0  0  0
  -18.8682  -12.0316  -13.4514 C   0  0  2  0  0  0  0  0  0  0  0  0
  -18.4139  -12.2873  -12.1227 N   0  0  0  0  0  0  0  0  0  0  0  0
  -17.6066  -14.7708  -13.0075 C   0  0  2  0  0  0  0  0  0  0  0  0
  -22.6395  -11.8710  -18.9066 C   0  0  2  0  0  0  0  0  0  0  0  0
  -21.3701  -11.6193  -19.6044 N   0  0  0  0  0  0  0  0  0  0  0  0
  -19.9967  -10.9124  -13.3898 C   0  0  0  0  0  0  0  0  0  0  0  0
  -16.6637  -15.8769  -13.5868 C   0  0  2  0  0  0  0  0  0  0  0  0
  -15.9700  -15.3286  -14.6827 O   0  0  0  0  0  0  0  0  0  0  0  0
  -23.4335  -10.5245  -18.6762 C   0  0  0  0  0  0  0  0  0  0  0  0
  -20.5007  -10.6207  -14.8747 C   0  0  2  0  0  0  0  0  0  0  0  0
  -21.5483   -9.5772  -14.8407 N   0  0  0  0  0  0  0  0  0  0  0  0
  -17.5311  -17.1306  -14.0216 C   0  0  1  0  0  0  0  0  0  0  0  0
  -16.6397  -18.2064  -14.5860 N   0  0  0  0  0  0  0  0  0  0  0  0
  -24.5258  -10.6536  -17.5349 C   0  0  0  0  0  0  0  0  0  0  0  0
  -21.0933  -11.9553  -15.4885 C   0  0  2  0  0  0  0  0  0  0  0  0
  -18.3081  -17.7182  -12.7184 C   0  0  1  0  0  0  0  0  0  0  0  0
  -17.4323  -18.1549  -11.6988 O   0  0  0  0  0  0  0  0  0  0  0  0
  -24.5515  -11.7262  -16.7117 C   0  0  2  0  0  0  0  0  0  0  0  0
  -23.6101  -12.7993  -16.8173 O   0  0  0  0  0  0  0  0  0  0  0  0
  -19.9630  -13.0638  -15.5242 C   0  0  2  0  0  0  0  0  0  0  0  0
  -20.5100  -14.2746  -16.0725 O   0  0  0  0  0  0  0  0  0  0  0  0
  -19.2249  -16.5922  -12.1347 C   0  0  0  0  0  0  0  0  0  0  0  0
  -18.4024  -15.3377  -11.8461 O   0  0  0  0  0  0  0  0  0  0  0  0
  -25.5902  -11.8858  -15.6024 C   0  0  0  0  0  0  0  0  0  0  0  0
  -24.9264  -11.7002  -14.3426 O   0  0  0  0  0  0  0  0  0  0  0  0
  -19.4597  -13.3560  -14.0551 C   0  0  1  0  0  0  0  0  0  0  0  0
  -18.4430  -14.3404  -14.1304 O   0  0  0  0  0  0  0  0  0  0  0  0
  -19.2095  -18.9389  -13.0021 C   0  0  0  0  0  0  0  0  0  0  0  0
  -16.2487  -18.0590  -16.0027 C   0  0  0  0  0  0  0  0  0  0  0  0
  1  2  1  1  0  0  0
  1  6  1  0  0  0  0
  1 21  1  0  0  0  0
  3  4  1  1  0  0  0
  3  8  1  0  0  0  0
  3 28  1  0  0  0  0
  5  9  1  0  0  0  0
  5 25  1  0  0  0  0
  5 29  1  6  0  0  0
  6  7  1  1  0  0  0
  6 11  1  0  0  0  0
  8 12  1  0  0  0  0
  9 10  1  6  0  0  0
  9 14  1  0  0  0  0
 11 16  1  0  0  0  0
 12 13  1  1  0  0  0
 12 17  1  0  0  0  0
 14 15  1  1  0  0  0
 14 18  1  0  0  0  0
 15 31  1  0  0  0  0
 16 20  1  0  0  0  0
 17  2  1  6  0  0  0
 17 22  1  0  0  0  0
 18 19  1  1  0  0  0
 18 24  1  0  0  0  0
 18 30  1  0  0  0  0
 20 21  1  0  0  0  0
 20 26  1  6  0  0  0
 22 23  1  1  0  0  0
 22 28  1  0  0  0  0
 24 25  1  0  0  0  0
 26 27  1  0  0  0  0
 28 29  1  6  0  0  0
M  END
>  <CHROM.1>
177.86732086,179.19431602,-82.24371937,-166.35958705,-108.65204714,53.95099491
-20.20672838,-13.76204454,-14.94619421,3.08160054,-0.84911323,0.92553666

>  <Name>
ligand

>  <RI>
0

>  <Rbt.Current_Directory>
/home/itssahil/PROJECTS/Mol_Feturizer/New_Systems/rnas/4GPW

>  <Rbt.Executable>
rbdock ($Id: //depot/dev/client3/rdock/2013.1/src/exe/rbdock.cxx#4 $)

>  <Rbt.Library>
libRbt.so (2013.1, Build901 2013/11/27)

>  <Rbt.Parameter_File>
/export/apps/rDock/src/rDock_2013.1_src/data/scripts/dock_solv.prm

>  <Rbt.Receptor>
prm/pocket_docking_5.prm

>  <SCORE>
-15.2683

>  <SCORE.INTER>
-8.20019

>  <SCORE.INTER.CONST>
1

>  <SCORE.INTER.POLAR>
0

>  <SCORE.INTER.ROT>
6

>  <SCORE.INTER.SOLV>
10.6816

>  <SCORE.INTER.VDW>
-16.6273

>  <SCORE.INTER.norm>
-0.264522

>  <SCORE.INTRA>
-7.06809

>  <SCORE.INTRA.DIHEDRAL>
-15.9474

>  <SCORE.INTRA.DIHEDRAL.0>
19.2558

>  <SCORE.INTRA.POLAR>
0

>  <SCORE.INTRA.POLAR.0>
0

>  <SCORE.INTRA.REPUL>
0

>  <SCORE.INTRA.REPUL.0>
0

>  <SCORE.INTRA.SOLV>
-1.26707

>  <SCORE.INTRA.SOLV.lig_0>
-64.5929

>  <SCORE.INTRA.VDW>
1.53917

>  <SCORE.INTRA.VDW.0>
-4.40538

>  <SCORE.INTRA.norm>
-0.228003

>  <SCORE.RESTR>
0

>  <SCORE.RESTR.CAVITY>
0

>  <SCORE.RESTR.norm>
0

>  <SCORE.SYSTEM>
0

>  <SCORE.SYSTEM.CONST>
0

>  <SCORE.SYSTEM.DIHEDRAL>
0

>  <SCORE.SYSTEM.SOLV>
0

>  <SCORE.SYSTEM.norm>
0

>  <SCORE.heavy>
31

>  <SCORE.norm>
-0.492525

>  <RMSD>
8.564

$$$$
ligand
 OpenBabel11021811493D
libRbt.so/2013.1/901 2013/11/27
 31 33  0  0  0  0  0  0  0  0999 V2000
  -19.0690  -24.5089  -10.9520 C   0  0  2  0  0  0  0  0  0  0  0  0
  -19.2930  -23.7459  -12.1286 O   0  0  0  0  0  0  0  0  0  0  0  0
  -17.2754  -20.1042  -11.2114 C   0  0  2  0  0  0  0  0  0  0  0  0
  -16.6070  -18.8577  -11.4032 N   0  0  0  0  0  0  0  0  0  0  0  0
  -19.4545  -17.5813  -11.4117 C   0  0  2  0  0  0  0  0  0  0  0  0
  -20.3145  -25.4744  -10.7824 C   0  0  2  0  0  0  0  0  0  0  0  0
  -20.4267  -26.3339  -11.9701 N   0  0  0  0  0  0  0  0  0  0  0  0
  -16.4603  -21.2344  -11.9783 C   0  0  0  0  0  0  0  0  0  0  0  0
  -20.1825  -17.4578  -12.7912 C   0  0  2  0  0  0  0  0  0  0  0  0
  -21.4553  -18.0471  -12.6668 O   0  0  0  0  0  0  0  0  0  0  0  0
  -21.6283  -24.6210  -10.5771 C   0  0  0  0  0  0  0  0  0  0  0  0
  -17.2023  -22.6292  -11.7594 C   0  0  2  0  0  0  0  0  0  0  0  0
  -16.4567  -23.6966  -12.4609 N   0  0  0  0  0  0  0  0  0  0  0  0
  -19.3184  -18.1804  -13.9067 C   0  0  1  0  0  0  0  0  0  0  0  0
  -20.0060  -18.0751  -15.2434 N   0  0  0  0  0  0  0  0  0  0  0  0
  -21.3916  -23.3598   -9.6467 C   0  0  0  0  0  0  0  0  0  0  0  0
  -18.6710  -22.5282  -12.3442 C   0  0  2  0  0  0  0  0  0  0  0  0
  -17.8631  -17.4593  -14.0030 C   0  0  1  0  0  0  0  0  0  0  0  0
  -17.9413  -16.0942  -14.3603 O   0  0  0  0  0  0  0  0  0  0  0  0
  -20.1425  -22.9632   -9.3132 C   0  0  2  0  0  0  0  0  0  0  0  0
  -18.9710  -23.6473   -9.7697 O   0  0  0  0  0  0  0  0  0  0  0  0
  -19.4614  -21.3861  -11.5836 C   0  0  2  0  0  0  0  0  0  0  0  0
  -20.7893  -21.2930  -12.1258 O   0  0  0  0  0  0  0  0  0  0  0  0
  -17.1601  -17.5667  -12.6090 C   0  0  0  0  0  0  0  0  0  0  0  0
  -18.0603  -16.9907  -11.5175 O   0  0  0  0  0  0  0  0  0  0  0  0
  -19.8760  -21.7544   -8.4173 C   0  0  0  0  0  0  0  0  0  0  0  0
  -18.7130  -21.0777   -8.9191 O   0  0  0  0  0  0  0  0  0  0  0  0
  -18.7297  -20.0019  -11.7970 C   0  0  1  0  0  0  0  0  0  0  0  0
  -19.4578  -19.0109  -11.0926 O   0  0  0  0  0  0  0  0  0  0  0  0
  -16.9061  -18.0769  -15.0451 C   0  0  0  0  0  0  0  0  0  0  0  0
  -21.2394  -18.8701  -15.4119 C   0  0  0  0  0  0  0  0  0  0  0  0
  1  2  1  6  0  0  0
  1  6  1  0  0  0  0
  1 21  1  0  0  0  0
  3  4  1  6  0  0  0
  3  8  1  0  0  0  0
  3 28  1  0  0  0  0
  5  9  1  0  0  0  0
  5 25  1  0  0  0  0
  5 29  1  6  0  0  0
  6  7  1  6  0  0  0
  6 11  1  0  0  0  0
  8 12  1  0  0  0  0
  9 10  1  1  0  0  0
  9 14  1  0  0  0  0
 11 16  1  0  0  0  0
 12 13  1  6  0  0  0
 12 17  1  0  0  0  0
 14 15  1  6  0  0  0
 14 18  1  0  0  0  0
 15 31  1  0  0  0  0
 16 20  1  0  0  0  0
 17  2  1  1  0  0  0
 17 22  1  0  0  0  0
 18 19  1  6  0  0  0
 18 24  1  0  0  0  0
 18 30  1  0  0  0  0
 20 21  1  0  0  0  0
 20 26  1  1  0  0  0
 22 23  1  6  0  0  0
 22 28  1  0  0  0  0
 24 25  1  0  0  0  0
 26 27  1  0  0  0  0
 28 29  1  1  0  0  0
M  END
>  <CHROM.1>
157.83078552,67.85774004,-70.39027692,36.73259182,-142.23048729,86.30369329
-19.06444306,-20.69680348,-11.91023940,-1.73396072,-0.25421928,-0.45380751

>  <Name>
ligand

>  <RI>
0

>  <Rbt.Current_Directory>
/home/itssahil/PROJECTS/Mol_Feturizer/New_Systems/rnas/4GPW

>  <Rbt.Executable>
rbdock ($Id: //depot/dev/client3/rdock/2013.1/src/exe/rbdock.cxx#4 $)

>  <Rbt.Library>
libRbt.so (2013.1, Build901 2013/11/27)

>  <Rbt.Parameter_File>
/export/apps/rDock/src/rDock_2013.1_src/data/scripts/dock_solv.prm

>  <Rbt.Receptor>
prm/blind_docking_100.prm

>  <SCORE>
40.5493

>  <SCORE.INTER>
4.8274

>  <SCORE.INTER.CONST>
1

>  <SCORE.INTER.POLAR>
0

>  <SCORE.INTER.ROT>
6

>  <SCORE.INTER.SOLV>
22.2088

>  <SCORE.INTER.VDW>
-11.7847

>  <SCORE.INTER.norm>
0.155723

>  <SCORE.INTRA>
17.8328

>  <SCORE.INTRA.DIHEDRAL>
-9.17266

>  <SCORE.INTRA.DIHEDRAL.0>
19.2558

>  <SCORE.INTRA.POLAR>
0

>  <SCORE.INTRA.POLAR.0>
0

>  <SCORE.INTRA.REPUL>
0

>  <SCORE.INTRA.REPUL.0>
0

>  <SCORE.INTRA.SOLV>
5.21099

>  <SCORE.INTRA.SOLV.lig_0>
-64.5929

>  <SCORE.INTRA.VDW>
19.8136

>  <SCORE.INTRA.VDW.0>
-4.40538

>  <SCORE.INTRA.norm>
0.575252

>  <SCORE.RESTR>
17.8891

>  <SCORE.RESTR.CAVITY>
17.8891

>  <SCORE.RESTR.norm>
0.577068

>  <SCORE.SYSTEM>
0

>  <SCORE.SYSTEM.CONST>
0

>  <SCORE.SYSTEM.DIHEDRAL>
0

>  <SCORE.SYSTEM.SOLV>
0

>  <SCORE.SYSTEM.norm>
0

>  <SCORE.heavy>
31

>  <SCORE.norm>
1.30804

>  <RMSD>
8.576

$$$$
ligand
 OpenBabel11021811493D
libRbt.so/2013.1/901 2013/11/27
 31 33  0  0  0  0  0  0  0  0999 V2000
  -16.2406  -11.3358  -12.6879 C   0  0  2  0  0  0  0  0  0  0  0  0
  -17.5946  -11.5407  -13.0636 O   0  0  0  0  0  0  0  0  0  0  0  0
  -17.7109  -15.7959  -13.2979 C   0  0  2  0  0  0  0  0  0  0  0  0
  -18.2338  -17.1160  -13.4433 N   0  0  0  0  0  0  0  0  0  0  0  0
  -17.3878  -15.1646  -17.0961 C   0  0  2  0  0  0  0  0  0  0  0  0
  -16.1214   -9.8371  -12.1859 C   0  0  2  0  0  0  0  0  0  0  0  0
  -17.0336   -9.6321  -11.0512 N   0  0  0  0  0  0  0  0  0  0  0  0
  -18.4449  -15.0972  -12.0718 C   0  0  0  0  0  0  0  0  0  0  0  0
  -17.1081  -16.4439  -17.9525 C   0  0  2  0  0  0  0  0  0  0  0  0
  -18.0352  -17.4336  -17.5735 O   0  0  0  0  0  0  0  0  0  0  0  0
  -16.4624   -8.8481  -13.3701 C   0  0  0  0  0  0  0  0  0  0  0  0
  -17.8568  -13.6241  -11.9037 C   0  0  2  0  0  0  0  0  0  0  0  0
  -18.5229  -12.9575  -10.7638 N   0  0  0  0  0  0  0  0  0  0  0  0
  -15.6176  -16.9245  -17.7059 C   0  0  1  0  0  0  0  0  0  0  0  0
  -15.3303  -18.1591  -18.5205 N   0  0  0  0  0  0  0  0  0  0  0  0
  -15.8671   -9.3352  -14.7560 C   0  0  0  0  0  0  0  0  0  0  0  0
  -18.1262  -12.8075  -13.2340 C   0  0  2  0  0  0  0  0  0  0  0  0
  -14.5953  -15.7427  -18.1593 C   0  0  1  0  0  0  0  0  0  0  0  0
  -14.7014  -15.4106  -19.5288 O   0  0  0  0  0  0  0  0  0  0  0  0
  -15.3653  -10.5826  -14.9001 C   0  0  2  0  0  0  0  0  0  0  0  0
  -15.3373  -11.5290  -13.8265 O   0  0  0  0  0  0  0  0  0  0  0  0
  -17.4055  -13.5271  -14.4467 C   0  0  2  0  0  0  0  0  0  0  0  0
  -17.6624  -12.7869  -15.6517 O   0  0  0  0  0  0  0  0  0  0  0  0
  -14.9062  -14.4629  -17.3140 C   0  0  0  0  0  0  0  0  0  0  0  0
  -16.3803  -14.0857  -17.4491 O   0  0  0  0  0  0  0  0  0  0  0  0
  -14.7815  -11.0860  -16.2195 C   0  0  0  0  0  0  0  0  0  0  0  0
  -15.8648  -11.2634  -17.1453 O   0  0  0  0  0  0  0  0  0  0  0  0
  -17.9844  -14.9875  -14.6170 C   0  0  1  0  0  0  0  0  0  0  0  0
  -17.3072  -15.6012  -15.7002 O   0  0  0  0  0  0  0  0  0  0  0  0
  -13.1006  -16.0712  -17.9564 C   0  0  0  0  0  0  0  0  0  0  0  0
  -14.3912  -19.1331  -17.9279 C   0  0  0  0  0  0  0  0  0  0  0  0
  1  2  1  6  0  0  0
  1  6  1  0  0  0  0
  1 21  1  0  0  0  0
  3  4  1  6  0  0  0
  3  8  1  0  0  0  0
  3 28  1  0  0  0  0
  5  9  1  0  0  0  0
  5 25  1  0  0  0  0
  5 29  1  1  0  0  0
  6  7  1  1  0  0  0
  6 11  1  0  0  0  0
  8 12  1  0  0  0  0
  9 10  1  1  0  0  0
  9 14  1  0  0  0  0
 11 16  1  0  0  0  0
 12 13  1  1  0  0  0
 12 17  1  0  0  0  0
 14 15  1  6  0  0  0
 14 18  1  0  0  0  0
 15 31  1  0  0  0  0
 16 20  1  0  0  0  0
 17  2  1  1  0  0  0
 17 22  1  0  0  0  0
 18 19  1  6  0  0  0
 18 24  1  0  0  0  0
 18 30  1  0  0  0  0
 20 21  1  0  0  0  0
 20 26  1  1  0  0  0
 22 23  1  6  0  0  0
 22 28  1  0  0  0  0
 24 25  1  0  0  0  0
 26 27  1  0  0  0  0
 28 29  1  6  0  0  0
M  END
>  <CHROM.1>
-163.73977870,-153.10681742,-147.22417802,54.33873827,-70.81321509,176.66593071
-16.48676408,-13.82348919,-15.26343755,-1.85759738,-0.96045032,-2.66500627

>  <Name>
ligand

>  <RI>
0

>  <Rbt.Current_Directory>
/home/itssahil/PROJECTS/Mol_Feturizer/New_Systems/rnas/4GPW

>  <Rbt.Executable>
rbdock ($Id: //depot/dev/client3/rdock/2013.1/src/exe/rbdock.cxx#4 $)

>  <Rbt.Library>
libRbt.so (2013.1, Build901 2013/11/27)

>  <Rbt.Parameter_File>
/export/apps/rDock/src/rDock_2013.1_src/data/scripts/dock_solv.prm

>  <Rbt.Receptor>
prm/pocket_docking_8.prm

>  <SCORE>
-9.05586

>  <SCORE.INTER>
-4.62093

>  <SCORE.INTER.CONST>
1

>  <SCORE.INTER.POLAR>
0

>  <SCORE.INTER.ROT>
6

>  <SCORE.INTER.SOLV>
8.66682

>  <SCORE.INTER.VDW>
-13.5696

>  <SCORE.INTER.norm>
-0.149062

>  <SCORE.INTRA>
-4.43493

>  <SCORE.INTRA.DIHEDRAL>
-10.6463

>  <SCORE.INTRA.DIHEDRAL.0>
19.2558

>  <SCORE.INTRA.POLAR>
0

>  <SCORE.INTRA.POLAR.0>
0

>  <SCORE.INTRA.REPUL>
0

>  <SCORE.INTRA.REPUL.0>
0

>  <SCORE.INTRA.SOLV>
-0.583272

>  <SCORE.INTRA.SOLV.lig_0>
-64.5929

>  <SCORE.INTRA.VDW>
1.17983

>  <SCORE.INTRA.VDW.0>
-4.40538

>  <SCORE.INTRA.norm>
-0.143062

>  <SCORE.RESTR>
0

>  <SCORE.RESTR.CAVITY>
0

>  <SCORE.RESTR.norm>
0

>  <SCORE.SYSTEM>
0

>  <SCORE.SYSTEM.CONST>
0

>  <SCORE.SYSTEM.DIHEDRAL>
0

>  <SCORE.SYSTEM.SOLV>
0

>  <SCORE.SYSTEM.norm>
0

>  <SCORE.heavy>
31

>  <SCORE.norm>
-0.292124

>  <RMSD>
8.602

$$$$
ligand
 OpenBabel11021811493D
libRbt.so/2013.1/901 2013/11/27
 31 33  0  0  0  0  0  0  0  0999 V2000
  -22.7314  -12.5608  -17.0255 C   0  0  2  0  0  0  0  0  0  0  0  0
  -21.6555  -11.7059  -16.6674 O   0  0  0  0  0  0  0  0  0  0  0  0
  -18.5082  -11.8359  -13.7948 C   0  0  2  0  0  0  0  0  0  0  0  0
  -17.8506  -11.8776  -12.5287 N   0  0  0  0  0  0  0  0  0  0  0  0
  -17.8439  -14.7559  -12.7609 C   0  0  2  0  0  0  0  0  0  0  0  0
  -23.1454  -12.1871  -18.5091 C   0  0  2  0  0  0  0  0  0  0  0  0
  -21.9884  -12.3745  -19.3969 N   0  0  0  0  0  0  0  0  0  0  0  0
  -19.4154  -10.5305  -13.8469 C   0  0  0  0  0  0  0  0  0  0  0  0
  -16.9074  -15.8888  -13.2974 C   0  0  2  0  0  0  0  0  0  0  0  0
  -16.1219  -15.3505  -14.3346 O   0  0  0  0  0  0  0  0  0  0  0  0
  -23.6603  -10.6942  -18.5605 C   0  0  0  0  0  0  0  0  0  0  0  0
  -20.1458  -10.4789  -15.2640 C   0  0  2  0  0  0  0  0  0  0  0  0
  -20.9918   -9.2679  -15.3356 N   0  0  0  0  0  0  0  0  0  0  0  0
  -17.7912  -17.1001  -13.8118 C   0  0  1  0  0  0  0  0  0  0  0  0
  -16.9059  -18.2010  -14.3362 N   0  0  0  0  0  0  0  0  0  0  0  0
  -24.5503  -10.3174  -17.3041 C   0  0  0  0  0  0  0  0  0  0  0  0
  -21.0462  -11.7721  -15.4262 C   0  0  2  0  0  0  0  0  0  0  0  0
  -18.6752  -17.6777  -12.5739 C   0  0  1  0  0  0  0  0  0  0  0  0
  -17.8866  -18.1650  -11.5071 O   0  0  0  0  0  0  0  0  0  0  0  0
  -24.6100  -11.1275  -16.2230 C   0  0  2  0  0  0  0  0  0  0  0  0
  -23.8864  -12.3600  -16.1448 O   0  0  0  0  0  0  0  0  0  0  0  0
  -20.1304  -13.0619  -15.3524 C   0  0  2  0  0  0  0  0  0  0  0  0
  -20.9546  -14.2313  -15.4901 O   0  0  0  0  0  0  0  0  0  0  0  0
  -19.5851  -16.5261  -12.0309 C   0  0  0  0  0  0  0  0  0  0  0  0
  -18.7364  -15.3098  -11.6652 O   0  0  0  0  0  0  0  0  0  0  0  0
  -25.4582  -10.7981  -14.9954 C   0  0  0  0  0  0  0  0  0  0  0  0
  -24.5693  -10.4603  -13.9193 O   0  0  0  0  0  0  0  0  0  0  0  0
  -19.4039  -13.1173  -13.9502 C   0  0  1  0  0  0  0  0  0  0  0  0
  -18.5866  -14.2749  -13.9282 O   0  0  0  0  0  0  0  0  0  0  0  0
  -19.6016  -18.8572  -12.9392 C   0  0  0  0  0  0  0  0  0  0  0  0
  -16.4180  -18.0474  -15.7219 C   0  0  0  0  0  0  0  0  0  0  0  0
  1  2  1  1  0  0  0
  1  6  1  0  0  0  0
  1 21  1  0  0  0  0
  3  4  1  1  0  0  0
  3  8  1  0  0  0  0
  3 28  1  0  0  0  0
  5  9  1  0  0  0  0
  5 25  1  0  0  0  0
  5 29  1  6  0  0  0
  6  7  1  6  0  0  0
  6 11  1  0  0  0  0
  8 12  1  0  0  0  0
  9 10  1  6  0  0  0
  9 14  1  0  0  0  0
 11 16  1  0  0  0  0
 12 13  1  1  0  0  0
 12 17  1  0  0  0  0
 14 15  1  1  0  0  0
 14 18  1  0  0  0  0
 15 31  1  0  0  0  0
 16 20  1  0  0  0  0
 17  2  1  6  0  0  0
 17 22  1  0  0  0  0
 18 19  1  1  0  0  0
 18 24  1  0  0  0  0
 18 30  1  0  0  0  0
 20 21  1  0  0  0  0
 20 26  1  6  0  0  0
 22 23  1  1  0  0  0
 22 28  1  0  0  0  0
 24 25  1  0  0  0  0
 26 27  1  0  0  0  0
 28 29  1  6  0  0  0
M  END
>  <CHROM.1>
-179.72835375,-170.03846097,-82.35108148,-167.04120357,-109.27185506,67.73719398
-20.31421915,-13.60860562,-14.77561403,2.59944200,-0.72653271,0.31131017

>  <Name>
ligand

>  <RI>
0

>  <Rbt.Current_Directory>
/home/itssahil/PROJECTS/Mol_Feturizer/New_Systems/rnas/4GPW

>  <Rbt.Executable>
rbdock ($Id: //depot/dev/client3/rdock/2013.1/src/exe/rbdock.cxx#4 $)

>  <Rbt.Library>
libRbt.so (2013.1, Build901 2013/11/27)

>  <Rbt.Parameter_File>
/export/apps/rDock/src/rDock_2013.1_src/data/scripts/dock_solv.prm

>  <Rbt.Receptor>
prm/pocket_docking_5.prm

>  <SCORE>
-16.3754

>  <SCORE.INTER>
-8.93608

>  <SCORE.INTER.CONST>
1

>  <SCORE.INTER.POLAR>
0

>  <SCORE.INTER.ROT>
6

>  <SCORE.INTER.SOLV>
8.9668

>  <SCORE.INTER.VDW>
-16.5463

>  <SCORE.INTER.norm>
-0.288261

>  <SCORE.INTRA>
-7.43929

>  <SCORE.INTRA.DIHEDRAL>
-15.4782

>  <SCORE.INTRA.DIHEDRAL.0>
19.2558

>  <SCORE.INTRA.POLAR>
0

>  <SCORE.INTRA.POLAR.0>
0

>  <SCORE.INTRA.REPUL>
0

>  <SCORE.INTRA.REPUL.0>
0

>  <SCORE.INTRA.SOLV>
-1.84583

>  <SCORE.INTRA.SOLV.lig_0>
-64.5929

>  <SCORE.INTRA.VDW>
1.22269

>  <SCORE.INTRA.VDW.0>
-4.40538

>  <SCORE.INTRA.norm>
-0.239977

>  <SCORE.RESTR>
0

>  <SCORE.RESTR.CAVITY>
0

>  <SCORE.RESTR.norm>
0

>  <SCORE.SYSTEM>
0

>  <SCORE.SYSTEM.CONST>
0

>  <SCORE.SYSTEM.DIHEDRAL>
0

>  <SCORE.SYSTEM.SOLV>
0

>  <SCORE.SYSTEM.norm>
0

>  <SCORE.heavy>
31

>  <SCORE.norm>
-0.528238

>  <RMSD>
8.603

$$$$
ligand
 OpenBabel11021811493D
libRbt.so/2013.1/901 2013/11/27
 31 33  0  0  0  0  0  0  0  0999 V2000
  -25.2567  -12.3690  -15.6713 C   0  0  2  0  0  0  0  0  0  0  0  0
  -23.9175  -12.8410  -15.6561 O   0  0  0  0  0  0  0  0  0  0  0  0
  -20.7777  -14.1385  -13.0805 C   0  0  2  0  0  0  0  0  0  0  0  0
  -20.0970  -14.5238  -11.8866 N   0  0  0  0  0  0  0  0  0  0  0  0
  -20.5603  -16.8368  -14.6285 C   0  0  2  0  0  0  0  0  0  0  0  0
  -25.7454  -12.4120  -17.1785 C   0  0  2  0  0  0  0  0  0  0  0  0
  -25.6534  -13.7916  -17.6786 N   0  0  0  0  0  0  0  0  0  0  0  0
  -21.3405  -12.6638  -12.8842 C   0  0  0  0  0  0  0  0  0  0  0  0
  -20.4815  -18.3981  -14.5618 C   0  0  2  0  0  0  0  0  0  0  0  0
  -21.7929  -18.9048  -14.6406 O   0  0  0  0  0  0  0  0  0  0  0  0
  -24.8652  -11.4345  -18.0539 C   0  0  0  0  0  0  0  0  0  0  0  0
  -22.0958  -12.2292  -14.2202 C   0  0  2  0  0  0  0  0  0  0  0  0
  -22.6231  -10.8566  -14.0609 N   0  0  0  0  0  0  0  0  0  0  0  0
  -19.7760  -18.8302  -13.2095 C   0  0  1  0  0  0  0  0  0  0  0  0
  -19.6939  -20.3325  -13.1253 N   0  0  0  0  0  0  0  0  0  0  0  0
  -24.5346  -10.0794  -17.3009 C   0  0  0  0  0  0  0  0  0  0  0  0
  -23.2904  -13.2348  -14.4863 C   0  0  2  0  0  0  0  0  0  0  0  0
  -18.2697  -18.2161  -13.1748 C   0  0  1  0  0  0  0  0  0  0  0  0
  -17.4554  -18.6802  -14.2326 O   0  0  0  0  0  0  0  0  0  0  0  0
  -24.7764   -9.9394  -15.9777 C   0  0  2  0  0  0  0  0  0  0  0  0
  -25.3400  -10.9887  -15.1838 O   0  0  0  0  0  0  0  0  0  0  0  0
  -22.7147  -14.6998  -14.6597 C   0  0  2  0  0  0  0  0  0  0  0  0
  -23.8044  -15.6081  -14.8906 O   0  0  0  0  0  0  0  0  0  0  0  0
  -18.3645  -16.6570  -13.2706 C   0  0  0  0  0  0  0  0  0  0  0  0
  -19.1654  -16.2512  -14.5064 O   0  0  0  0  0  0  0  0  0  0  0  0
  -24.4729   -8.6481  -15.2192 C   0  0  0  0  0  0  0  0  0  0  0  0
  -23.0743   -8.3612  -15.3729 O   0  0  0  0  0  0  0  0  0  0  0  0
  -21.9647  -15.1348  -13.3386 C   0  0  1  0  0  0  0  0  0  0  0  0
  -21.4544  -16.4419  -13.5375 O   0  0  0  0  0  0  0  0  0  0  0  0
  -17.4686  -18.5467  -11.8973 C   0  0  0  0  0  0  0  0  0  0  0  0
  -19.9890  -20.9336  -11.8088 C   0  0  0  0  0  0  0  0  0  0  0  0
  1  2  1  6  0  0  0
  1  6  1  0  0  0  0
  1 21  1  0  0  0  0
  3  4  1  1  0  0  0
  3  8  1  0  0  0  0
  3 28  1  0  0  0  0
  5  9  1  0  0  0  0
  5 25  1  0  0  0  0
  5 29  1  1  0  0  0
  6  7  1  6  0  0  0
  6 11  1  0  0  0  0
  8 12  1  0  0  0  0
  9 10  1  1  0  0  0
  9 14  1  0  0  0  0
 11 16  1  0  0  0  0
 12 13  1  1  0  0  0
 12 17  1  0  0  0  0
 14 15  1  6  0  0  0
 14 18  1  0  0  0  0
 15 31  1  0  0  0  0
 16 20  1  0  0  0  0
 17  2  1  6  0  0  0
 17 22  1  0  0  0  0
 18 19  1  6  0  0  0
 18 24  1  0  0  0  0
 18 30  1  0  0  0  0
 20 21  1  0  0  0  0
 20 26  1  6  0  0  0
 22 23  1  1  0  0  0
 22 28  1  0  0  0  0
 24 25  1  0  0  0  0
 26 27  1  0  0  0  0
 28 29  1  6  0  0  0
M  END
>  <CHROM.1>
-164.32531910,-170.55355620,-138.45598919,-114.99140928,-58.04259646,-62.17922601
-21.95185653,-14.63037221,-14.49621497,2.27900371,-0.61244066,0.11535615

>  <Name>
ligand

>  <RI>
0

>  <Rbt.Current_Directory>
/home/itssahil/PROJECTS/Mol_Feturizer/New_Systems/rnas/4GPW

>  <Rbt.Executable>
rbdock ($Id: //depot/dev/client3/rdock/2013.1/src/exe/rbdock.cxx#4 $)

>  <Rbt.Library>
libRbt.so (2013.1, Build901 2013/11/27)

>  <Rbt.Parameter_File>
/export/apps/rDock/src/rDock_2013.1_src/data/scripts/dock_solv.prm

>  <Rbt.Receptor>
prm/pocket_docking_3.prm

>  <SCORE>
-13.3528

>  <SCORE.INTER>
-12.3458

>  <SCORE.INTER.CONST>
1

>  <SCORE.INTER.POLAR>
0

>  <SCORE.INTER.ROT>
6

>  <SCORE.INTER.SOLV>
16.3398

>  <SCORE.INTER.VDW>
-21.2771

>  <SCORE.INTER.norm>
-0.398252

>  <SCORE.INTRA>
-1.00699

>  <SCORE.INTRA.DIHEDRAL>
-6.03381

>  <SCORE.INTRA.DIHEDRAL.0>
19.2558

>  <SCORE.INTRA.POLAR>
0

>  <SCORE.INTRA.POLAR.0>
0

>  <SCORE.INTRA.REPUL>
0

>  <SCORE.INTRA.REPUL.0>
0

>  <SCORE.INTRA.SOLV>
2.93696

>  <SCORE.INTRA.SOLV.lig_0>
-64.5929

>  <SCORE.INTRA.VDW>
0.541434

>  <SCORE.INTRA.VDW.0>
-4.40538

>  <SCORE.INTRA.norm>
-0.0324836

>  <SCORE.RESTR>
0

>  <SCORE.RESTR.CAVITY>
0

>  <SCORE.RESTR.norm>
0

>  <SCORE.SYSTEM>
0

>  <SCORE.SYSTEM.CONST>
0

>  <SCORE.SYSTEM.DIHEDRAL>
0

>  <SCORE.SYSTEM.SOLV>
0

>  <SCORE.SYSTEM.norm>
0

>  <SCORE.heavy>
31

>  <SCORE.norm>
-0.430735

>  <RMSD>
8.604

$$$$
ligand
 OpenBabel11021811493D
libRbt.so/2013.1/901 2013/11/27
 31 33  0  0  0  0  0  0  0  0999 V2000
  -19.0512  -24.4870  -10.8840 C   0  0  2  0  0  0  0  0  0  0  0  0
  -19.2403  -23.7611  -12.0897 O   0  0  0  0  0  0  0  0  0  0  0  0
  -17.2052  -20.1189  -11.2137 C   0  0  2  0  0  0  0  0  0  0  0  0
  -16.5430  -18.8712  -11.4189 N   0  0  0  0  0  0  0  0  0  0  0  0
  -19.3946  -17.5987  -11.3587 C   0  0  2  0  0  0  0  0  0  0  0  0
  -20.3419  -25.3834  -10.6763 C   0  0  2  0  0  0  0  0  0  0  0  0
  -20.4980  -26.2825  -11.8290 N   0  0  0  0  0  0  0  0  0  0  0  0
  -16.4075  -21.2465  -12.0024 C   0  0  0  0  0  0  0  0  0  0  0  0
  -20.1614  -17.4768  -12.7172 C   0  0  2  0  0  0  0  0  0  0  0  0
  -21.4286  -18.0694  -12.5574 O   0  0  0  0  0  0  0  0  0  0  0  0
  -21.6123  -24.4596  -10.5048 C   0  0  0  0  0  0  0  0  0  0  0  0
  -17.1425  -22.6427  -11.7686 C   0  0  2  0  0  0  0  0  0  0  0  0
  -16.4128  -23.7077  -12.4901 N   0  0  0  0  0  0  0  0  0  0  0  0
  -19.3270  -18.1968  -13.8567 C   0  0  1  0  0  0  0  0  0  0  0  0
  -20.0520  -18.0929  -15.1736 N   0  0  0  0  0  0  0  0  0  0  0  0
  -21.3127  -23.1756   -9.6250 C   0  0  0  0  0  0  0  0  0  0  0  0
  -18.6249  -22.5422  -12.3177 C   0  0  2  0  0  0  0  0  0  0  0  0
  -17.8767  -17.4720  -13.9936 C   0  0  1  0  0  0  0  0  0  0  0  0
  -17.9684  -16.1070  -14.3480 O   0  0  0  0  0  0  0  0  0  0  0  0
  -20.0451  -22.8274   -9.3075 C   0  0  2  0  0  0  0  0  0  0  0  0
  -18.9091  -23.5852   -9.7366 O   0  0  0  0  0  0  0  0  0  0  0  0
  -19.3981  -21.4026  -11.5359 C   0  0  2  0  0  0  0  0  0  0  0  0
  -20.7387  -21.3099  -12.0458 O   0  0  0  0  0  0  0  0  0  0  0  0
  -17.1347  -17.5779  -12.6198 C   0  0  0  0  0  0  0  0  0  0  0  0
  -18.0055  -17.0046  -11.5033 O   0  0  0  0  0  0  0  0  0  0  0  0
  -19.7184  -21.5986   -8.4600 C   0  0  0  0  0  0  0  0  0  0  0  0
  -19.4805  -22.0382   -7.1138 O   0  0  0  0  0  0  0  0  0  0  0  0
  -18.6732  -20.0171  -11.7639 C   0  0  1  0  0  0  0  0  0  0  0  0
  -19.3853  -19.0284  -11.0401 O   0  0  0  0  0  0  0  0  0  0  0  0
  -16.9478  -18.0868  -15.0622 C   0  0  0  0  0  0  0  0  0  0  0  0
  -21.2045  -18.9974  -15.3619 C   0  0  0  0  0  0  0  0  0  0  0  0
  1  2  1  6  0  0  0
  1  6  1  0  0  0  0
  1 21  1  0  0  0  0
  3  4  1  6  0  0  0
  3  8  1  0  0  0  0
  3 28  1  0  0  0  0
  5  9  1  0  0  0  0
  5 25  1  0  0  0  0
  5 29  1  6  0  0  0
  6  7  1  6  0  0  0
  6 11  1  0  0  0  0
  8 12  1  0  0  0  0
  9 10  1  1  0  0  0
  9 14  1  0  0  0  0
 11 16  1  0  0  0  0
 12 13  1  6  0  0  0
 12 17  1  0  0  0  0
 14 15  1  6  0  0  0
 14 18  1  0  0  0  0
 15 31  1  0  0  0  0
 16 20  1  0  0  0  0
 17  2  1  1  0  0  0
 17 22  1  0  0  0  0
 18 19  1  6  0  0  0
 18 24  1  0  0  0  0
 18 30  1  0  0  0  0
 20 21  1  0  0  0  0
 20 26  1  1  0  0  0
 22 23  1  6  0  0  0
 22 28  1  0  0  0  0
 24 25  1  0  0  0  0
 26 27  1  0  0  0  0
 28 29  1  1  0  0  0
M  END
>  <CHROM.1>
153.66912151,67.94662123,-76.69162702,40.71312915,99.35618395,86.50452488
-19.05859335,-20.71898330,-11.81151572,1.89765591,1.05217488,2.39530022

>  <Name>
ligand

>  <RI>
0

>  <Rbt.Current_Directory>
/home/itssahil/PROJECTS/Mol_Feturizer/New_Systems/rnas/4GPW

>  <Rbt.Executable>
rbdock ($Id: //depot/dev/client3/rdock/2013.1/src/exe/rbdock.cxx#4 $)

>  <Rbt.Library>
libRbt.so (2013.1, Build901 2013/11/27)

>  <Rbt.Parameter_File>
/export/apps/rDock/src/rDock_2013.1_src/data/scripts/dock_solv.prm

>  <Rbt.Receptor>
prm/blind_docking_100.prm

>  <SCORE>
42.1605

>  <SCORE.INTER>
6.10096

>  <SCORE.INTER.CONST>
1

>  <SCORE.INTER.POLAR>
0

>  <SCORE.INTER.ROT>
6

>  <SCORE.INTER.SOLV>
23.0911

>  <SCORE.INTER.VDW>
-11.2297

>  <SCORE.INTER.norm>
0.196805

>  <SCORE.INTRA>
17.8166

>  <SCORE.INTRA.DIHEDRAL>
-8.99701

>  <SCORE.INTRA.DIHEDRAL.0>
19.2558

>  <SCORE.INTRA.POLAR>
0

>  <SCORE.INTRA.POLAR.0>
0

>  <SCORE.INTRA.REPUL>
0

>  <SCORE.INTRA.REPUL.0>
0

>  <SCORE.INTRA.SOLV>
3.6819

>  <SCORE.INTRA.SOLV.lig_0>
-64.5929

>  <SCORE.INTRA.VDW>
20.4741

>  <SCORE.INTRA.VDW.0>
-4.40538

>  <SCORE.INTRA.norm>
0.574728

>  <SCORE.RESTR>
18.243

>  <SCORE.RESTR.CAVITY>
18.243

>  <SCORE.RESTR.norm>
0.588482

>  <SCORE.SYSTEM>
0

>  <SCORE.SYSTEM.CONST>
0

>  <SCORE.SYSTEM.DIHEDRAL>
0

>  <SCORE.SYSTEM.SOLV>
0

>  <SCORE.SYSTEM.norm>
0

>  <SCORE.heavy>
31

>  <SCORE.norm>
1.36002

>  <RMSD>
8.612

$$$$
ligand
 OpenBabel11021811493D
libRbt.so/2013.1/901 2013/11/27
 31 33  0  0  0  0  0  0  0  0999 V2000
  -25.0080  -13.1856  -14.7925 C   0  0  2  0  0  0  0  0  0  0  0  0
  -23.5990  -13.3578  -14.7548 O   0  0  0  0  0  0  0  0  0  0  0  0
  -20.4300  -13.0774  -11.9169 C   0  0  2  0  0  0  0  0  0  0  0  0
  -19.7076  -13.2313  -10.6956 N   0  0  0  0  0  0  0  0  0  0  0  0
  -18.5821  -15.6409  -11.8022 C   0  0  2  0  0  0  0  0  0  0  0  0
  -25.4882  -13.6151  -16.2407 C   0  0  2  0  0  0  0  0  0  0  0  0
  -25.1087  -15.0150  -16.4817 N   0  0  0  0  0  0  0  0  0  0  0  0
  -21.7784  -12.2926  -11.6074 C   0  0  0  0  0  0  0  0  0  0  0  0
  -17.4893  -16.4168  -12.6095 C   0  0  2  0  0  0  0  0  0  0  0  0
  -16.9808  -15.5520  -13.5976 O   0  0  0  0  0  0  0  0  0  0  0  0
  -24.8430  -12.6612  -17.3226 C   0  0  0  0  0  0  0  0  0  0  0  0
  -22.5837  -12.1138  -12.9726 C   0  0  2  0  0  0  0  0  0  0  0  0
  -23.8405  -11.3805  -12.7079 N   0  0  0  0  0  0  0  0  0  0  0  0
  -18.1351  -17.7132  -13.2540 C   0  0  1  0  0  0  0  0  0  0  0  0
  -17.0976  -18.4728  -14.0395 N   0  0  0  0  0  0  0  0  0  0  0  0
  -24.8024  -11.1490  -16.8490 C   0  0  0  0  0  0  0  0  0  0  0  0
  -22.9131  -13.5447  -13.5669 C   0  0  2  0  0  0  0  0  0  0  0  0
  -18.7049  -18.6702  -12.0679 C   0  0  1  0  0  0  0  0  0  0  0  0
  -17.7000  -19.1086  -11.1761 O   0  0  0  0  0  0  0  0  0  0  0  0
  -25.0580  -10.8130  -15.5643 C   0  0  2  0  0  0  0  0  0  0  0  0
  -25.3793  -11.7855  -14.5644 O   0  0  0  0  0  0  0  0  0  0  0  0
  -21.5612  -14.3192  -13.8505 C   0  0  2  0  0  0  0  0  0  0  0  0
  -21.8675  -15.6199  -14.3798 O   0  0  0  0  0  0  0  0  0  0  0  0
  -19.7754  -17.8708  -11.2531 C   0  0  0  0  0  0  0  0  0  0  0  0
  -19.1832  -16.5554  -10.7506 O   0  0  0  0  0  0  0  0  0  0  0  0
  -25.0303   -9.3666  -15.0723 C   0  0  0  0  0  0  0  0  0  0  0  0
  -26.2648   -9.1073  -14.3860 O   0  0  0  0  0  0  0  0  0  0  0  0
  -20.7592  -14.4983  -12.5008 C   0  0  1  0  0  0  0  0  0  0  0  0
  -19.5538  -15.1819  -12.7976 O   0  0  0  0  0  0  0  0  0  0  0  0
  -19.3805  -19.9692  -12.5570 C   0  0  0  0  0  0  0  0  0  0  0  0
  -16.7174  -17.9030  -15.3482 C   0  0  0  0  0  0  0  0  0  0  0  0
  1  2  1  6  0  0  0
  1  6  1  0  0  0  0
  1 21  1  0  0  0  0
  3  4  1  1  0  0  0
  3  8  1  0  0  0  0
  3 28  1  0  0  0  0
  5  9  1  0  0  0  0
  5 25  1  0  0  0  0
  5 29  1  6  0  0  0
  6  7  1  6  0  0  0
  6 11  1  0  0  0  0
  8 12  1  0  0  0  0
  9 10  1  6  0  0  0
  9 14  1  0  0  0  0
 11 16  1  0  0  0  0
 12 13  1  1  0  0  0
 12 17  1  0  0  0  0
 14 15  1  1  0  0  0
 14 18  1  0  0  0  0
 15 31  1  0  0  0  0
 16 20  1  0  0  0  0
 17  2  1  6  0  0  0
 17 22  1  0  0  0  0
 18 19  1  1  0  0  0
 18 24  1  0  0  0  0
 18 30  1  0  0  0  0
 20 21  1  0  0  0  0
 20 26  1  6  0  0  0
 22 23  1  1  0  0  0
 22 28  1  0  0  0  0
 24 25  1  0  0  0  0
 26 27  1  0  0  0  0
 28 29  1  6  0  0  0
M  END
>  <CHROM.1>
-156.35686951,176.13585350,-75.33821571,-86.15708604,128.13771910,67.07999950
-21.44936053,-14.50295114,-13.59530682,2.83104231,-0.72246405,0.72238409

>  <Name>
ligand

>  <RI>
0

>  <Rbt.Current_Directory>
/home/itssahil/PROJECTS/Mol_Feturizer/New_Systems/rnas/4GPW

>  <Rbt.Executable>
rbdock ($Id: //depot/dev/client3/rdock/2013.1/src/exe/rbdock.cxx#4 $)

>  <Rbt.Library>
libRbt.so (2013.1, Build901 2013/11/27)

>  <Rbt.Parameter_File>
/export/apps/rDock/src/rDock_2013.1_src/data/scripts/dock_solv.prm

>  <Rbt.Receptor>
prm/pocket_docking_4.prm

>  <SCORE>
-16.2698

>  <SCORE.INTER>
-13.2195

>  <SCORE.INTER.CONST>
1

>  <SCORE.INTER.POLAR>
0

>  <SCORE.INTER.ROT>
6

>  <SCORE.INTER.SOLV>
19.6826

>  <SCORE.INTER.VDW>
-22.9739

>  <SCORE.INTER.norm>
-0.426437

>  <SCORE.INTRA>
-3.05027

>  <SCORE.INTRA.DIHEDRAL>
-11.6734

>  <SCORE.INTRA.DIHEDRAL.0>
19.2558

>  <SCORE.INTRA.POLAR>
0

>  <SCORE.INTRA.POLAR.0>
0

>  <SCORE.INTRA.REPUL>
0

>  <SCORE.INTRA.REPUL.0>
0

>  <SCORE.INTRA.SOLV>
1.53952

>  <SCORE.INTRA.SOLV.lig_0>
-64.5929

>  <SCORE.INTRA.VDW>
2.01664

>  <SCORE.INTRA.VDW.0>
-4.40538

>  <SCORE.INTRA.norm>
-0.098396

>  <SCORE.RESTR>
0

>  <SCORE.RESTR.CAVITY>
0

>  <SCORE.RESTR.norm>
0

>  <SCORE.SYSTEM>
0

>  <SCORE.SYSTEM.CONST>
0

>  <SCORE.SYSTEM.DIHEDRAL>
0

>  <SCORE.SYSTEM.SOLV>
0

>  <SCORE.SYSTEM.norm>
0

>  <SCORE.heavy>
31

>  <SCORE.norm>
-0.524833

>  <RMSD>
8.619

$$$$
ligand
 OpenBabel11021811493D
libRbt.so/2013.1/901 2013/11/27
 31 33  0  0  0  0  0  0  0  0999 V2000
  -22.8122  -12.4764  -16.8080 C   0  0  2  0  0  0  0  0  0  0  0  0
  -21.6972  -11.6465  -16.5173 O   0  0  0  0  0  0  0  0  0  0  0  0
  -18.4130  -11.8544  -13.8070 C   0  0  2  0  0  0  0  0  0  0  0  0
  -17.6928  -11.8980  -12.5755 N   0  0  0  0  0  0  0  0  0  0  0  0
  -17.8298  -14.7824  -12.7362 C   0  0  2  0  0  0  0  0  0  0  0  0
  -23.2365  -12.1738  -18.3050 C   0  0  2  0  0  0  0  0  0  0  0  0
  -22.1033  -12.4599  -19.1971 N   0  0  0  0  0  0  0  0  0  0  0  0
  -19.2643  -10.5113  -13.8438 C   0  0  0  0  0  0  0  0  0  0  0  0
  -16.9116  -15.9127  -13.3085 C   0  0  2  0  0  0  0  0  0  0  0  0
  -16.1544  -15.3674  -14.3629 O   0  0  0  0  0  0  0  0  0  0  0  0
  -23.6924  -10.6667  -18.4371 C   0  0  0  0  0  0  0  0  0  0  0  0
  -20.0646  -10.4579  -15.2225 C   0  0  2  0  0  0  0  0  0  0  0  0
  -20.8599   -9.2123  -15.2797 N   0  0  0  0  0  0  0  0  0  0  0  0
  -17.8126  -17.1177  -13.8079 C   0  0  1  0  0  0  0  0  0  0  0  0
  -16.9452  -18.2160  -14.3664 N   0  0  0  0  0  0  0  0  0  0  0  0
  -24.5449  -10.1809  -17.1922 C   0  0  0  0  0  0  0  0  0  0  0  0
  -21.0274  -11.7129  -15.3076 C   0  0  2  0  0  0  0  0  0  0  0  0
  -18.6626  -17.7038  -12.5504 C   0  0  1  0  0  0  0  0  0  0  0  0
  -17.8454  -18.2019  -11.5105 O   0  0  0  0  0  0  0  0  0  0  0  0
  -24.6182  -10.9231  -16.0641 C   0  0  2  0  0  0  0  0  0  0  0  0
  -23.9430  -12.1775  -15.9238 O   0  0  0  0  0  0  0  0  0  0  0  0
  -20.1658  -13.0404  -15.2499 C   0  0  2  0  0  0  0  0  0  0  0  0
  -21.0460  -14.1746  -15.3173 O   0  0  0  0  0  0  0  0  0  0  0  0
  -19.5540  -16.5548  -11.9722 C   0  0  0  0  0  0  0  0  0  0  0  0
  -18.6922  -15.3436  -11.6204 O   0  0  0  0  0  0  0  0  0  0  0  0
  -25.4314  -10.4881  -14.8458 C   0  0  0  0  0  0  0  0  0  0  0  0
  -24.5270  -10.3313  -13.7414 O   0  0  0  0  0  0  0  0  0  0  0  0
  -19.3704  -13.0977  -13.8857 C   0  0  1  0  0  0  0  0  0  0  0  0
  -18.6040  -14.2898  -13.8779 O   0  0  0  0  0  0  0  0  0  0  0  0
  -19.6019  -18.8781  -12.8993 C   0  0  0  0  0  0  0  0  0  0  0  0
  -16.4386  -18.0185  -15.7397 C   0  0  0  0  0  0  0  0  0  0  0  0
  1  2  1  1  0  0  0
  1  6  1  0  0  0  0
  1 21  1  0  0  0  0
  3  4  1  1  0  0  0
  3  8  1  0  0  0  0
  3 28  1  0  0  0  0
  5  9  1  0  0  0  0
  5 25  1  0  0  0  0
  5 29  1  6  0  0  0
  6  7  1  6  0  0  0
  6 11  1  0  0  0  0
  8 12  1  0  0  0  0
  9 10  1  6  0  0  0
  9 14  1  0  0  0  0
 11 16  1  0  0  0  0
 12 13  1  1  0  0  0
 12 17  1  0  0  0  0
 14 15  1  1  0  0  0
 14 18  1  0  0  0  0
 15 31  1  0  0  0  0
 16 20  1  0  0  0  0
 17  2  1  6  0  0  0
 17 22  1  0  0  0  0
 18 19  1  1  0  0  0
 18 24  1  0  0  0  0
 18 30  1  0  0  0  0
 20 21  1  0  0  0  0
 20 26  1  6  0  0  0
 22 23  1  1  0  0  0
 22 28  1  0  0  0  0
 24 25  1  0  0  0  0
 26 27  1  0  0  0  0
 28 29  1  6  0  0  0
M  END
>  <CHROM.1>
-176.37859859,-167.01882063,-79.28056119,-168.14294111,-118.38884337,68.14157054
-20.30846524,-13.57446988,-14.69862899,2.53703304,-0.67887160,0.24503856

>  <Name>
ligand

>  <RI>
0

>  <Rbt.Current_Directory>
/home/itssahil/PROJECTS/Mol_Feturizer/New_Systems/rnas/4GPW

>  <Rbt.Executable>
rbdock ($Id: //depot/dev/client3/rdock/2013.1/src/exe/rbdock.cxx#4 $)

>  <Rbt.Library>
libRbt.so (2013.1, Build901 2013/11/27)

>  <Rbt.Parameter_File>
/export/apps/rDock/src/rDock_2013.1_src/data/scripts/dock_solv.prm

>  <Rbt.Receptor>
prm/pocket_docking_7.prm

>  <SCORE>
-16.5805

>  <SCORE.INTER>
-9.30697

>  <SCORE.INTER.CONST>
1

>  <SCORE.INTER.POLAR>
0

>  <SCORE.INTER.ROT>
6

>  <SCORE.INTER.SOLV>
8.93297

>  <SCORE.INTER.VDW>
-16.7823

>  <SCORE.INTER.norm>
-0.300225

>  <SCORE.INTRA>
-7.27355

>  <SCORE.INTRA.DIHEDRAL>
-15.4164

>  <SCORE.INTRA.DIHEDRAL.0>
19.2558

>  <SCORE.INTRA.POLAR>
0

>  <SCORE.INTRA.POLAR.0>
0

>  <SCORE.INTRA.REPUL>
0

>  <SCORE.INTRA.REPUL.0>
0

>  <SCORE.INTRA.SOLV>
-1.91894

>  <SCORE.INTRA.SOLV.lig_0>
-64.5929

>  <SCORE.INTRA.VDW>
1.39414

>  <SCORE.INTRA.VDW.0>
-4.40538

>  <SCORE.INTRA.norm>
-0.23463

>  <SCORE.RESTR>
0

>  <SCORE.RESTR.CAVITY>
0

>  <SCORE.RESTR.norm>
0

>  <SCORE.SYSTEM>
0

>  <SCORE.SYSTEM.CONST>
0

>  <SCORE.SYSTEM.DIHEDRAL>
0

>  <SCORE.SYSTEM.SOLV>
0

>  <SCORE.SYSTEM.norm>
0

>  <SCORE.heavy>
31

>  <SCORE.norm>
-0.534855

>  <RMSD>
8.623

$$$$
ligand
 OpenBabel11021811493D
libRbt.so/2013.1/901 2013/11/27
 31 33  0  0  0  0  0  0  0  0999 V2000
  -22.8613  -12.4183  -16.7621 C   0  0  2  0  0  0  0  0  0  0  0  0
  -21.7318  -11.6010  -16.4921 O   0  0  0  0  0  0  0  0  0  0  0  0
  -18.4325  -11.8192  -13.8012 C   0  0  2  0  0  0  0  0  0  0  0  0
  -17.7043  -11.8544  -12.5740 N   0  0  0  0  0  0  0  0  0  0  0  0
  -17.8911  -14.7386  -12.6853 C   0  0  2  0  0  0  0  0  0  0  0  0
  -23.2899  -12.1347  -18.2615 C   0  0  2  0  0  0  0  0  0  0  0  0
  -22.1667  -12.4537  -19.1551 N   0  0  0  0  0  0  0  0  0  0  0  0
  -19.2614  -10.4627  -13.8546 C   0  0  0  0  0  0  0  0  0  0  0  0
  -16.9669  -15.8664  -13.2528 C   0  0  2  0  0  0  0  0  0  0  0  0
  -16.2095  -15.3204  -14.3067 O   0  0  0  0  0  0  0  0  0  0  0  0
  -23.7232  -10.6232  -18.4168 C   0  0  0  0  0  0  0  0  0  0  0  0
  -20.0704  -10.4188  -15.2286 C   0  0  2  0  0  0  0  0  0  0  0  0
  -20.8452   -9.1610  -15.3012 N   0  0  0  0  0  0  0  0  0  0  0  0
  -17.8618  -17.0763  -13.7515 C   0  0  1  0  0  0  0  0  0  0  0  0
  -16.9885  -18.1723  -14.3055 N   0  0  0  0  0  0  0  0  0  0  0  0
  -24.5605  -10.1030  -17.1756 C   0  0  0  0  0  0  0  0  0  0  0  0
  -21.0547  -11.6586  -15.2861 C   0  0  2  0  0  0  0  0  0  0  0  0
  -18.7123  -17.6630  -12.4947 C   0  0  1  0  0  0  0  0  0  0  0  0
  -17.8955  -18.1553  -11.4518 O   0  0  0  0  0  0  0  0  0  0  0  0
  -24.6384  -10.8245  -16.0346 C   0  0  2  0  0  0  0  0  0  0  0  0
  -23.9820  -12.0867  -15.8766 O   0  0  0  0  0  0  0  0  0  0  0  0
  -20.2150  -12.9992  -15.2120 C   0  0  2  0  0  0  0  0  0  0  0  0
  -21.1145  -14.1195  -15.2544 O   0  0  0  0  0  0  0  0  0  0  0  0
  -19.6098  -16.5163  -11.9213 C   0  0  0  0  0  0  0  0  0  0  0  0
  -18.7539  -15.3008  -11.5703 O   0  0  0  0  0  0  0  0  0  0  0  0
  -25.4374  -10.3562  -14.8192 C   0  0  0  0  0  0  0  0  0  0  0  0
  -24.5382  -10.2708  -13.7028 O   0  0  0  0  0  0  0  0  0  0  0  0
  -19.4110  -13.0472  -13.8525 C   0  0  1  0  0  0  0  0  0  0  0  0
  -18.6646  -14.2518  -13.8299 O   0  0  0  0  0  0  0  0  0  0  0  0
  -19.6460  -18.8419  -12.8431 C   0  0  0  0  0  0  0  0  0  0  0  0
  -16.4574  -17.9634  -15.6678 C   0  0  0  0  0  0  0  0  0  0  0  0
  1  2  1  1  0  0  0
  1  6  1  0  0  0  0
  1 21  1  0  0  0  0
  3  4  1  1  0  0  0
  3  8  1  0  0  0  0
  3 28  1  0  0  0  0
  5  9  1  0  0  0  0
  5 25  1  0  0  0  0
  5 29  1  6  0  0  0
  6  7  1  6  0  0  0
  6 11  1  0  0  0  0
  8 12  1  0  0  0  0
  9 10  1  6  0  0  0
  9 14  1  0  0  0  0
 11 16  1  0  0  0  0
 12 13  1  1  0  0  0
 12 17  1  0  0  0  0
 14 15  1  1  0  0  0
 14 18  1  0  0  0  0
 15 31  1  0  0  0  0
 16 20  1  0  0  0  0
 17  2  1  6  0  0  0
 17 22  1  0  0  0  0
 18 19  1  1  0  0  0
 18 24  1  0  0  0  0
 18 30  1  0  0  0  0
 20 21  1  0  0  0  0
 20 26  1  6  0  0  0
 22 23  1  1  0  0  0
 22 28  1  0  0  0  0
 24 25  1  0  0  0  0
 26 27  1  0  0  0  0
 28 29  1  6  0  0  0
M  END
>  <CHROM.1>
-176.28304184,-165.48317549,-78.09911289,-168.24612411,-121.74808647,68.16653617
-20.34527957,-13.52301587,-14.66159945,2.51759345,-0.66861479,0.21578170

>  <Name>
ligand

>  <RI>
0

>  <Rbt.Current_Directory>
/home/itssahil/PROJECTS/Mol_Feturizer/New_Systems/rnas/4GPW

>  <Rbt.Executable>
rbdock ($Id: //depot/dev/client3/rdock/2013.1/src/exe/rbdock.cxx#4 $)

>  <Rbt.Library>
libRbt.so (2013.1, Build901 2013/11/27)

>  <Rbt.Parameter_File>
/export/apps/rDock/src/rDock_2013.1_src/data/scripts/dock_solv.prm

>  <Rbt.Receptor>
prm/pocket_docking_7.prm

>  <SCORE>
-16.6047

>  <SCORE.INTER>
-9.4748

>  <SCORE.INTER.CONST>
1

>  <SCORE.INTER.POLAR>
0

>  <SCORE.INTER.ROT>
6

>  <SCORE.INTER.SOLV>
8.89459

>  <SCORE.INTER.VDW>
-16.8814

>  <SCORE.INTER.norm>
-0.305639

>  <SCORE.INTRA>
-7.12994

>  <SCORE.INTRA.DIHEDRAL>
-15.2615

>  <SCORE.INTRA.DIHEDRAL.0>
19.2558

>  <SCORE.INTRA.POLAR>
0

>  <SCORE.INTRA.POLAR.0>
0

>  <SCORE.INTRA.REPUL>
0

>  <SCORE.INTRA.REPUL.0>
0

>  <SCORE.INTRA.SOLV>
-1.91935

>  <SCORE.INTRA.SOLV.lig_0>
-64.5929

>  <SCORE.INTRA.VDW>
1.46047

>  <SCORE.INTRA.VDW.0>
-4.40538

>  <SCORE.INTRA.norm>
-0.229998

>  <SCORE.RESTR>
0

>  <SCORE.RESTR.CAVITY>
0

>  <SCORE.RESTR.norm>
0

>  <SCORE.SYSTEM>
0

>  <SCORE.SYSTEM.CONST>
0

>  <SCORE.SYSTEM.DIHEDRAL>
0

>  <SCORE.SYSTEM.SOLV>
0

>  <SCORE.SYSTEM.norm>
0

>  <SCORE.heavy>
31

>  <SCORE.norm>
-0.535637

>  <RMSD>
8.624

$$$$
ligand
 OpenBabel11021811493D
libRbt.so/2013.1/901 2013/11/27
 31 33  0  0  0  0  0  0  0  0999 V2000
  -22.8341  -12.4258  -16.9867 C   0  0  2  0  0  0  0  0  0  0  0  0
  -21.7162  -11.5807  -16.7569 O   0  0  0  0  0  0  0  0  0  0  0  0
  -18.3838  -11.5507  -14.0981 C   0  0  2  0  0  0  0  0  0  0  0  0
  -17.6433  -11.5304  -12.8781 N   0  0  0  0  0  0  0  0  0  0  0  0
  -17.6436  -14.4399  -12.9748 C   0  0  2  0  0  0  0  0  0  0  0  0
  -23.3382  -12.1355  -18.4612 C   0  0  2  0  0  0  0  0  0  0  0  0
  -22.2486  -12.4118  -19.4090 N   0  0  0  0  0  0  0  0  0  0  0  0
  -19.3115  -10.2594  -14.1441 C   0  0  0  0  0  0  0  0  0  0  0  0
  -16.7664  -15.6226  -13.5039 C   0  0  2  0  0  0  0  0  0  0  0  0
  -16.0242  -15.1560  -14.6059 O   0  0  0  0  0  0  0  0  0  0  0  0
  -23.8192  -10.6348  -18.5759 C   0  0  0  0  0  0  0  0  0  0  0  0
  -20.1348  -10.2772  -15.5102 C   0  0  2  0  0  0  0  0  0  0  0  0
  -21.0012   -9.0804  -15.5758 N   0  0  0  0  0  0  0  0  0  0  0  0
  -17.7071  -16.8317  -13.9118 C   0  0  1  0  0  0  0  0  0  0  0  0
  -16.8795  -17.9803  -14.4278 N   0  0  0  0  0  0  0  0  0  0  0  0
  -24.6130  -10.1538  -17.2910 C   0  0  0  0  0  0  0  0  0  0  0  0
  -21.0250  -11.5865  -15.5575 C   0  0  2  0  0  0  0  0  0  0  0  0
  -18.5376  -17.3252  -12.6026 C   0  0  1  0  0  0  0  0  0  0  0  0
  -17.7055  -17.7835  -11.5563 O   0  0  0  0  0  0  0  0  0  0  0  0
  -24.6190  -10.8915  -16.1576 C   0  0  2  0  0  0  0  0  0  0  0  0
  -23.9218  -12.1367  -16.0470 O   0  0  0  0  0  0  0  0  0  0  0  0
  -20.0877  -12.8612  -15.4910 C   0  0  2  0  0  0  0  0  0  0  0  0
  -20.9021  -14.0451  -15.5241 O   0  0  0  0  0  0  0  0  0  0  0  0
  -19.3875  -16.1242  -12.0693 C   0  0  0  0  0  0  0  0  0  0  0  0
  -18.4897  -14.9163  -11.8082 O   0  0  0  0  0  0  0  0  0  0  0  0
  -25.3742  -10.4608  -14.9010 C   0  0  0  0  0  0  0  0  0  0  0  0
  -24.4194  -10.3101  -13.8390 O   0  0  0  0  0  0  0  0  0  0  0  0
  -19.2692  -12.8479  -14.1393 C   0  0  1  0  0  0  0  0  0  0  0  0
  -18.4354  -13.9939  -14.1235 O   0  0  0  0  0  0  0  0  0  0  0  0
  -19.5121  -18.4942  -12.8611 C   0  0  0  0  0  0  0  0  0  0  0  0
  -16.4225  -17.8832  -15.8290 C   0  0  0  0  0  0  0  0  0  0  0  0
  1  2  1  1  0  0  0
  1  6  1  0  0  0  0
  1 21  1  0  0  0  0
  3  4  1  1  0  0  0
  3  8  1  0  0  0  0
  3 28  1  0  0  0  0
  5  9  1  0  0  0  0
  5 25  1  0  0  0  0
  5 29  1  6  0  0  0
  6  7  1  6  0  0  0
  6 11  1  0  0  0  0
  8 12  1  0  0  0  0
  9 10  1  6  0  0  0
  9 14  1  0  0  0  0
 11 16  1  0  0  0  0
 12 13  1  1  0  0  0
 12 17  1  0  0  0  0
 14 15  1  1  0  0  0
 14 18  1  0  0  0  0
 15 31  1  0  0  0  0
 16 20  1  0  0  0  0
 17  2  1  6  0  0  0
 17 22  1  0  0  0  0
 18 19  1  1  0  0  0
 18 24  1  0  0  0  0
 18 30  1  0  0  0  0
 20 21  1  0  0  0  0
 20 26  1  6  0  0  0
 22 23  1  1  0  0  0
 22 28  1  0  0  0  0
 24 25  1  0  0  0  0
 26 27  1  0  0  0  0
 28 29  1  6  0  0  0
M  END
>  <CHROM.1>
-179.63514459,-172.96537901,-80.24872149,-164.50009147,-119.37348805,69.82742200
-20.26147099,-13.37663520,-14.87004734,2.56942476,-0.66322338,0.24382523

>  <Name>
ligand

>  <RI>
0

>  <Rbt.Current_Directory>
/home/itssahil/PROJECTS/Mol_Feturizer/New_Systems/rnas/4GPW

>  <Rbt.Executable>
rbdock ($Id: //depot/dev/client3/rdock/2013.1/src/exe/rbdock.cxx#4 $)

>  <Rbt.Library>
libRbt.so (2013.1, Build901 2013/11/27)

>  <Rbt.Parameter_File>
/export/apps/rDock/src/rDock_2013.1_src/data/scripts/dock_solv.prm

>  <Rbt.Receptor>
prm/pocket_docking_8.prm

>  <SCORE>
-16.4356

>  <SCORE.INTER>
-9.02972

>  <SCORE.INTER.CONST>
1

>  <SCORE.INTER.POLAR>
0

>  <SCORE.INTER.ROT>
6

>  <SCORE.INTER.SOLV>
8.64213

>  <SCORE.INTER.VDW>
-16.5005

>  <SCORE.INTER.norm>
-0.291281

>  <SCORE.INTRA>
-7.40587

>  <SCORE.INTRA.DIHEDRAL>
-15.4223

>  <SCORE.INTRA.DIHEDRAL.0>
19.2558

>  <SCORE.INTRA.POLAR>
0

>  <SCORE.INTRA.POLAR.0>
0

>  <SCORE.INTRA.REPUL>
0

>  <SCORE.INTRA.REPUL.0>
0

>  <SCORE.INTRA.SOLV>
-1.69731

>  <SCORE.INTRA.SOLV.lig_0>
-64.5929

>  <SCORE.INTRA.VDW>
1.15395

>  <SCORE.INTRA.VDW.0>
-4.40538

>  <SCORE.INTRA.norm>
-0.238899

>  <SCORE.RESTR>
0

>  <SCORE.RESTR.CAVITY>
0

>  <SCORE.RESTR.norm>
0

>  <SCORE.SYSTEM>
0

>  <SCORE.SYSTEM.CONST>
0

>  <SCORE.SYSTEM.DIHEDRAL>
0

>  <SCORE.SYSTEM.SOLV>
0

>  <SCORE.SYSTEM.norm>
0

>  <SCORE.heavy>
31

>  <SCORE.norm>
-0.53018

>  <RMSD>
8.636

$$$$
ligand
 OpenBabel11021811493D
libRbt.so/2013.1/901 2013/11/27
 31 33  0  0  0  0  0  0  0  0999 V2000
  -23.6955  -10.3182  -14.8672 C   0  0  2  0  0  0  0  0  0  0  0  0
  -22.6220  -11.2479  -14.8756 O   0  0  0  0  0  0  0  0  0  0  0  0
  -19.3330  -11.9224  -12.2485 C   0  0  2  0  0  0  0  0  0  0  0  0
  -18.6117  -12.2572  -11.0632 N   0  0  0  0  0  0  0  0  0  0  0  0
  -18.4167  -14.9347  -12.0775 C   0  0  2  0  0  0  0  0  0  0  0  0
  -24.9312  -11.0443  -14.1904 C   0  0  2  0  0  0  0  0  0  0  0  0
  -24.5639  -11.4573  -12.8279 N   0  0  0  0  0  0  0  0  0  0  0  0
  -20.3192  -10.7203  -11.9135 C   0  0  0  0  0  0  0  0  0  0  0  0
  -17.4543  -15.8197  -12.9371 C   0  0  2  0  0  0  0  0  0  0  0  0
  -16.7803  -14.9781  -13.8427 O   0  0  0  0  0  0  0  0  0  0  0  0
  -25.3615  -12.2906  -15.0612 C   0  0  0  0  0  0  0  0  0  0  0  0
  -21.1213  -10.3404  -13.2389 C   0  0  2  0  0  0  0  0  0  0  0  0
  -22.0417   -9.2192  -12.9505 N   0  0  0  0  0  0  0  0  0  0  0  0
  -18.2977  -16.9267  -13.6962 C   0  0  1  0  0  0  0  0  0  0  0  0
  -17.3875  -17.7878  -14.5332 N   0  0  0  0  0  0  0  0  0  0  0  0
  -25.2907  -11.9954  -16.6169 C   0  0  0  0  0  0  0  0  0  0  0  0
  -21.9485  -11.6029  -13.7194 C   0  0  2  0  0  0  0  0  0  0  0  0
  -19.0528  -17.8644  -12.6017 C   0  0  1  0  0  0  0  0  0  0  0  0
  -18.1608  -18.5425  -11.7405 O   0  0  0  0  0  0  0  0  0  0  0  0
  -24.6782  -10.8862  -17.0896 C   0  0  2  0  0  0  0  0  0  0  0  0
  -24.0655   -9.9203  -16.2291 O   0  0  0  0  0  0  0  0  0  0  0  0
  -20.9537  -12.7954  -14.0295 C   0  0  2  0  0  0  0  0  0  0  0  0
  -21.7112  -13.9403  -14.4550 O   0  0  0  0  0  0  0  0  0  0  0  0
  -19.9894  -16.9609  -11.7325 C   0  0  0  0  0  0  0  0  0  0  0  0
  -19.1920  -15.8143  -11.1138 O   0  0  0  0  0  0  0  0  0  0  0  0
  -24.5924  -10.5677  -18.5816 C   0  0  0  0  0  0  0  0  0  0  0  0
  -23.2042  -10.4654  -18.9346 O   0  0  0  0  0  0  0  0  0  0  0  0
  -20.1560  -13.1751  -12.7192 C   0  0  1  0  0  0  0  0  0  0  0  0
  -19.2699  -14.2337  -13.0399 O   0  0  0  0  0  0  0  0  0  0  0  0
  -19.9298  -18.9816  -13.2065 C   0  0  0  0  0  0  0  0  0  0  0  0
  -17.0397  -17.2686  -15.8715 C   0  0  0  0  0  0  0  0  0  0  0  0
  1  2  1  6  0  0  0
  1  6  1  0  0  0  0
  1 21  1  0  0  0  0
  3  4  1  1  0  0  0
  3  8  1  0  0  0  0
  3 28  1  0  0  0  0
  5  9  1  0  0  0  0
  5 25  1  0  0  0  0
  5 29  1  6  0  0  0
  6  7  1  1  0  0  0
  6 11  1  0  0  0  0
  8 12  1  0  0  0  0
  9 10  1  6  0  0  0
  9 14  1  0  0  0  0
 11 16  1  0  0  0  0
 12 13  1  1  0  0  0
 12 17  1  0  0  0  0
 14 15  1  1  0  0  0
 14 18  1  0  0  0  0
 15 31  1  0  0  0  0
 16 20  1  0  0  0  0
 17  2  1  6  0  0  0
 17 22  1  0  0  0  0
 18 19  1  1  0  0  0
 18 24  1  0  0  0  0
 18 30  1  0  0  0  0
 20 21  1  0  0  0  0
 20 26  1  1  0  0  0
 22 23  1  1  0  0  0
 22 28  1  0  0  0  0
 24 25  1  0  0  0  0
 26 27  1  0  0  0  0
 28 29  1  6  0  0  0
M  END
>  <CHROM.1>
-72.05533989,-170.06706408,-83.88172916,-68.98688214,-121.24595593,66.09108354
-20.95763501,-13.45563322,-13.96275736,-2.82418681,0.82365028,-2.43680608

>  <Name>
ligand

>  <RI>
0

>  <Rbt.Current_Directory>
/home/itssahil/PROJECTS/Mol_Feturizer/New_Systems/rnas/4GPW

>  <Rbt.Executable>
rbdock ($Id: //depot/dev/client3/rdock/2013.1/src/exe/rbdock.cxx#4 $)

>  <Rbt.Library>
libRbt.so (2013.1, Build901 2013/11/27)

>  <Rbt.Parameter_File>
/export/apps/rDock/src/rDock_2013.1_src/data/scripts/dock_solv.prm

>  <Rbt.Receptor>
prm/pocket_docking_5.prm

>  <SCORE>
-14.8084

>  <SCORE.INTER>
-10.3442

>  <SCORE.INTER.CONST>
1

>  <SCORE.INTER.POLAR>
0

>  <SCORE.INTER.ROT>
6

>  <SCORE.INTER.SOLV>
13.0668

>  <SCORE.INTER.VDW>
-18.8517

>  <SCORE.INTER.norm>
-0.333683

>  <SCORE.INTRA>
-4.46425

>  <SCORE.INTRA.DIHEDRAL>
-15.4033

>  <SCORE.INTRA.DIHEDRAL.0>
19.2558

>  <SCORE.INTRA.POLAR>
0

>  <SCORE.INTRA.POLAR.0>
0

>  <SCORE.INTRA.REPUL>
0

>  <SCORE.INTRA.REPUL.0>
0

>  <SCORE.INTRA.SOLV>
1.83287

>  <SCORE.INTRA.SOLV.lig_0>
-64.5929

>  <SCORE.INTRA.VDW>
2.32096

>  <SCORE.INTRA.VDW.0>
-4.40538

>  <SCORE.INTRA.norm>
-0.144008

>  <SCORE.RESTR>
0

>  <SCORE.RESTR.CAVITY>
0

>  <SCORE.RESTR.norm>
0

>  <SCORE.SYSTEM>
0

>  <SCORE.SYSTEM.CONST>
0

>  <SCORE.SYSTEM.DIHEDRAL>
0

>  <SCORE.SYSTEM.SOLV>
0

>  <SCORE.SYSTEM.norm>
0

>  <SCORE.heavy>
31

>  <SCORE.norm>
-0.477691

>  <RMSD>
8.641

$$$$
ligand
 OpenBabel11021811493D
libRbt.so/2013.1/901 2013/11/27
 31 33  0  0  0  0  0  0  0  0999 V2000
  -23.6571  -10.3269  -14.9170 C   0  0  2  0  0  0  0  0  0  0  0  0
  -22.6053  -11.2810  -14.9120 O   0  0  0  0  0  0  0  0  0  0  0  0
  -19.3908  -12.0206  -12.2112 C   0  0  2  0  0  0  0  0  0  0  0  0
  -18.7029  -12.3821  -11.0140 N   0  0  0  0  0  0  0  0  0  0  0  0
  -18.4392  -14.9943  -12.0882 C   0  0  2  0  0  0  0  0  0  0  0  0
  -24.9281  -11.0360  -14.2892 C   0  0  2  0  0  0  0  0  0  0  0  0
  -24.6097  -11.4815  -12.9247 N   0  0  0  0  0  0  0  0  0  0  0  0
  -20.3822  -10.8222  -11.8784 C   0  0  0  0  0  0  0  0  0  0  0  0
  -17.4645  -15.8633  -12.9502 C   0  0  2  0  0  0  0  0  0  0  0  0
  -16.8138  -15.0123  -13.8640 O   0  0  0  0  0  0  0  0  0  0  0  0
  -25.3612  -12.2562  -15.1947 C   0  0  0  0  0  0  0  0  0  0  0  0
  -21.1469  -10.4125  -13.2170 C   0  0  2  0  0  0  0  0  0  0  0  0
  -22.0715   -9.2943  -12.9306 N   0  0  0  0  0  0  0  0  0  0  0  0
  -18.2900  -16.9910  -13.6987 C   0  0  1  0  0  0  0  0  0  0  0  0
  -17.3678  -17.8371  -14.5378 N   0  0  0  0  0  0  0  0  0  0  0  0
  -25.2389  -11.9350  -16.7421 C   0  0  0  0  0  0  0  0  0  0  0  0
  -21.9644  -11.6620  -13.7456 C   0  0  2  0  0  0  0  0  0  0  0  0
  -19.0185  -17.9388  -12.5950 C   0  0  1  0  0  0  0  0  0  0  0  0
  -18.1071  -18.5945  -11.7367 O   0  0  0  0  0  0  0  0  0  0  0  0
  -24.5880  -10.8322  -17.1766 C   0  0  2  0  0  0  0  0  0  0  0  0
  -23.9785   -9.8963  -16.2813 O   0  0  0  0  0  0  0  0  0  0  0  0
  -20.9650  -12.8513  -14.0531 C   0  0  2  0  0  0  0  0  0  0  0  0
  -21.7141  -13.9846  -14.5224 O   0  0  0  0  0  0  0  0  0  0  0  0
  -19.9677  -17.0507  -11.7237 C   0  0  0  0  0  0  0  0  0  0  0  0
  -19.1900  -15.8852  -11.1154 O   0  0  0  0  0  0  0  0  0  0  0  0
  -24.4519  -10.4893  -18.6594 C   0  0  0  0  0  0  0  0  0  0  0  0
  -23.0526  -10.3808  -18.9634 O   0  0  0  0  0  0  0  0  0  0  0  0
  -20.2043  -13.2606  -12.7298 C   0  0  1  0  0  0  0  0  0  0  0  0
  -19.3130  -14.3154  -13.0480 O   0  0  0  0  0  0  0  0  0  0  0  0
  -19.8763  -19.0766  -13.1890 C   0  0  0  0  0  0  0  0  0  0  0  0
  -17.0617  -17.3308  -15.8912 C   0  0  0  0  0  0  0  0  0  0  0  0
  1  2  1  6  0  0  0
  1  6  1  0  0  0  0
  1 21  1  0  0  0  0
  3  4  1  1  0  0  0
  3  8  1  0  0  0  0
  3 28  1  0  0  0  0
  5  9  1  0  0  0  0
  5 25  1  0  0  0  0
  5 29  1  6  0  0  0
  6  7  1  1  0  0  0
  6 11  1  0  0  0  0
  8 12  1  0  0  0  0
  9 10  1  6  0  0  0
  9 14  1  0  0  0  0
 11 16  1  0  0  0  0
 12 13  1  1  0  0  0
 12 17  1  0  0  0  0
 14 15  1  1  0  0  0
 14 18  1  0  0  0  0
 15 31  1  0  0  0  0
 16 20  1  0  0  0  0
 17  2  1  6  0  0  0
 17 22  1  0  0  0  0
 18 19  1  1  0  0  0
 18 24  1  0  0  0  0
 18 30  1  0  0  0  0
 20 21  1  0  0  0  0
 20 26  1  1  0  0  0
 22 23  1  1  0  0  0
 22 28  1  0  0  0  0
 24 25  1  0  0  0  0
 26 27  1  0  0  0  0
 28 29  1  6  0  0  0
M  END
>  <CHROM.1>
-72.73109428,-169.09799709,-85.10043030,-67.63252649,-122.63566522,62.88731913
-20.94859367,-13.49427364,-13.98852986,-2.87723587,0.85180543,-2.36500515

>  <Name>
ligand

>  <RI>
0

>  <Rbt.Current_Directory>
/home/itssahil/PROJECTS/Mol_Feturizer/New_Systems/rnas/4GPW

>  <Rbt.Executable>
rbdock ($Id: //depot/dev/client3/rdock/2013.1/src/exe/rbdock.cxx#4 $)

>  <Rbt.Library>
libRbt.so (2013.1, Build901 2013/11/27)

>  <Rbt.Parameter_File>
/export/apps/rDock/src/rDock_2013.1_src/data/scripts/dock_solv.prm

>  <Rbt.Receptor>
prm/pocket_docking_5.prm

>  <SCORE>
-14.8915

>  <SCORE.INTER>
-10.5499

>  <SCORE.INTER.CONST>
1

>  <SCORE.INTER.POLAR>
0

>  <SCORE.INTER.ROT>
6

>  <SCORE.INTER.SOLV>
13.2686

>  <SCORE.INTER.VDW>
-19.0561

>  <SCORE.INTER.norm>
-0.340318

>  <SCORE.INTRA>
-4.34163

>  <SCORE.INTRA.DIHEDRAL>
-15.4353

>  <SCORE.INTRA.DIHEDRAL.0>
19.2558

>  <SCORE.INTRA.POLAR>
0

>  <SCORE.INTRA.POLAR.0>
0

>  <SCORE.INTRA.REPUL>
0

>  <SCORE.INTRA.REPUL.0>
0

>  <SCORE.INTRA.SOLV>
1.90148

>  <SCORE.INTRA.SOLV.lig_0>
-64.5929

>  <SCORE.INTRA.VDW>
2.42529

>  <SCORE.INTRA.VDW.0>
-4.40538

>  <SCORE.INTRA.norm>
-0.140053

>  <SCORE.RESTR>
0

>  <SCORE.RESTR.CAVITY>
0

>  <SCORE.RESTR.norm>
0

>  <SCORE.SYSTEM>
0

>  <SCORE.SYSTEM.CONST>
0

>  <SCORE.SYSTEM.DIHEDRAL>
0

>  <SCORE.SYSTEM.SOLV>
0

>  <SCORE.SYSTEM.norm>
0

>  <SCORE.heavy>
31

>  <SCORE.norm>
-0.480371

>  <RMSD>
8.651

$$$$
ligand
 OpenBabel11021811493D
libRbt.so/2013.1/901 2013/11/27
 31 33  0  0  0  0  0  0  0  0999 V2000
  -22.7243  -12.4735  -16.9228 C   0  0  2  0  0  0  0  0  0  0  0  0
  -21.6276  -11.6210  -16.6279 O   0  0  0  0  0  0  0  0  0  0  0  0
  -18.2844  -11.7312  -13.9849 C   0  0  2  0  0  0  0  0  0  0  0  0
  -17.5388  -11.7908  -12.7692 N   0  0  0  0  0  0  0  0  0  0  0  0
  -17.4086  -14.6249  -13.1222 C   0  0  2  0  0  0  0  0  0  0  0  0
  -23.1577  -12.1700  -18.4169 C   0  0  2  0  0  0  0  0  0  0  0  0
  -22.0199  -12.4245  -19.3127 N   0  0  0  0  0  0  0  0  0  0  0  0
  -19.2371  -10.4588  -13.9279 C   0  0  0  0  0  0  0  0  0  0  0  0
  -16.5625  -15.7876  -13.7389 C   0  0  2  0  0  0  0  0  0  0  0  0
  -15.9097  -15.2921  -14.8839 O   0  0  0  0  0  0  0  0  0  0  0  0
  -23.6473  -10.6725  -18.5378 C   0  0  0  0  0  0  0  0  0  0  0  0
  -20.0662  -10.3869  -15.2887 C   0  0  2  0  0  0  0  0  0  0  0  0
  -20.9560   -9.2060  -15.2588 N   0  0  0  0  0  0  0  0  0  0  0  0
  -17.5198  -16.9989  -14.0991 C   0  0  1  0  0  0  0  0  0  0  0  0
  -16.7226  -18.1284  -14.6984 N   0  0  0  0  0  0  0  0  0  0  0  0
  -24.5083  -10.2146  -17.2883 C   0  0  0  0  0  0  0  0  0  0  0  0
  -20.9310  -11.7060  -15.4346 C   0  0  2  0  0  0  0  0  0  0  0  0
  -18.2450  -17.5263  -12.7415 C   0  0  1  0  0  0  0  0  0  0  0  0
  -17.3324  -17.9954  -11.7697 O   0  0  0  0  0  0  0  0  0  0  0  0
  -24.5632  -10.9661  -16.1653 C   0  0  2  0  0  0  0  0  0  0  0  0
  -23.8600  -12.2060  -16.0348 O   0  0  0  0  0  0  0  0  0  0  0  0
  -19.9688  -12.9633  -15.4700 C   0  0  2  0  0  0  0  0  0  0  0  0
  -20.7602  -14.1569  -15.5922 O   0  0  0  0  0  0  0  0  0  0  0  0
  -19.0637  -16.3450  -12.1222 C   0  0  0  0  0  0  0  0  0  0  0  0
  -18.1602  -15.1326  -11.9052 O   0  0  0  0  0  0  0  0  0  0  0  0
  -25.3839  -10.5579  -14.9428 C   0  0  0  0  0  0  0  0  0  0  0  0
  -24.4819  -10.3923  -13.8377 O   0  0  0  0  0  0  0  0  0  0  0  0
  -19.1446  -13.0385  -14.1238 C   0  0  1  0  0  0  0  0  0  0  0  0
  -18.2887  -14.1656  -14.1993 O   0  0  0  0  0  0  0  0  0  0  0  0
  -19.2251  -18.7007  -12.9494 C   0  0  0  0  0  0  0  0  0  0  0  0
  -16.3393  -17.9812  -16.1172 C   0  0  0  0  0  0  0  0  0  0  0  0
  1  2  1  1  0  0  0
  1  6  1  0  0  0  0
  1 21  1  0  0  0  0
  3  4  1  1  0  0  0
  3  8  1  0  0  0  0
  3 28  1  0  0  0  0
  5  9  1  0  0  0  0
  5 25  1  0  0  0  0
  5 29  1  6  0  0  0
  6  7  1  6  0  0  0
  6 11  1  0  0  0  0
  8 12  1  0  0  0  0
  9 10  1  6  0  0  0
  9 14  1  0  0  0  0
 11 16  1  0  0  0  0
 12 13  1  1  0  0  0
 12 17  1  0  0  0  0
 14 15  1  1  0  0  0
 14 18  1  0  0  0  0
 15 31  1  0  0  0  0
 16 20  1  0  0  0  0
 17  2  1  6  0  0  0
 17 22  1  0  0  0  0
 18 19  1  1  0  0  0
 18 24  1  0  0  0  0
 18 30  1  0  0  0  0
 20 21  1  0  0  0  0
 20 26  1  6  0  0  0
 22 23  1  1  0  0  0
 22 28  1  0  0  0  0
 24 25  1  0  0  0  0
 26 27  1  0  0  0  0
 28 29  1  6  0  0  0
M  END
>  <CHROM.1>
-174.54747105,-173.80836297,-78.52165931,-164.92479184,-118.55118267,65.06082116
-20.11528447,-13.50827296,-14.89427259,2.65458891,-0.70303744,0.40793289

>  <Name>
ligand

>  <RI>
0

>  <Rbt.Current_Directory>
/home/itssahil/PROJECTS/Mol_Feturizer/New_Systems/rnas/4GPW

>  <Rbt.Executable>
rbdock ($Id: //depot/dev/client3/rdock/2013.1/src/exe/rbdock.cxx#4 $)

>  <Rbt.Library>
libRbt.so (2013.1, Build901 2013/11/27)

>  <Rbt.Parameter_File>
/export/apps/rDock/src/rDock_2013.1_src/data/scripts/dock_solv.prm

>  <Rbt.Receptor>
prm/pocket_docking_6.prm

>  <SCORE>
-16.279

>  <SCORE.INTER>
-9.01903

>  <SCORE.INTER.CONST>
1

>  <SCORE.INTER.POLAR>
0

>  <SCORE.INTER.ROT>
6

>  <SCORE.INTER.SOLV>
9.12822

>  <SCORE.INTER.VDW>
-16.6554

>  <SCORE.INTER.norm>
-0.290937

>  <SCORE.INTRA>
-7.25997

>  <SCORE.INTRA.DIHEDRAL>
-15.7722

>  <SCORE.INTRA.DIHEDRAL.0>
19.2558

>  <SCORE.INTRA.POLAR>
0

>  <SCORE.INTRA.POLAR.0>
0

>  <SCORE.INTRA.REPUL>
0

>  <SCORE.INTRA.REPUL.0>
0

>  <SCORE.INTRA.SOLV>
-1.59835

>  <SCORE.INTRA.SOLV.lig_0>
-64.5929

>  <SCORE.INTRA.VDW>
1.42531

>  <SCORE.INTRA.VDW.0>
-4.40538

>  <SCORE.INTRA.norm>
-0.234193

>  <SCORE.RESTR>
0

>  <SCORE.RESTR.CAVITY>
0

>  <SCORE.RESTR.norm>
0

>  <SCORE.SYSTEM>
0

>  <SCORE.SYSTEM.CONST>
0

>  <SCORE.SYSTEM.DIHEDRAL>
0

>  <SCORE.SYSTEM.SOLV>
0

>  <SCORE.SYSTEM.norm>
0

>  <SCORE.heavy>
31

>  <SCORE.norm>
-0.525129

>  <RMSD>
8.675

$$$$
ligand
 OpenBabel11021811493D
libRbt.so/2013.1/901 2013/11/27
 31 33  0  0  0  0  0  0  0  0999 V2000
  -23.4703  -10.1601  -14.8292 C   0  0  2  0  0  0  0  0  0  0  0  0
  -22.4193  -11.1128  -14.8954 O   0  0  0  0  0  0  0  0  0  0  0  0
  -18.8632  -11.7416  -12.6297 C   0  0  2  0  0  0  0  0  0  0  0  0
  -18.0161  -12.0154  -11.5140 N   0  0  0  0  0  0  0  0  0  0  0  0
  -18.1206  -14.8223  -12.2828 C   0  0  2  0  0  0  0  0  0  0  0  0
  -24.6602  -10.8385  -14.0315 C   0  0  2  0  0  0  0  0  0  0  0  0
  -24.1906  -11.2182  -12.6910 N   0  0  0  0  0  0  0  0  0  0  0  0
  -19.7489  -10.4658  -12.2866 C   0  0  0  0  0  0  0  0  0  0  0  0
  -17.2386  -15.7630  -13.1689 C   0  0  2  0  0  0  0  0  0  0  0  0
  -16.5814  -14.9687  -14.1281 O   0  0  0  0  0  0  0  0  0  0  0  0
  -25.1844  -12.1007  -14.8245 C   0  0  0  0  0  0  0  0  0  0  0  0
  -20.6913  -10.1543  -13.5353 C   0  0  2  0  0  0  0  0  0  0  0  0
  -21.5210   -8.9664  -13.2390 N   0  0  0  0  0  0  0  0  0  0  0  0
  -18.1617  -16.8530  -13.8566 C   0  0  1  0  0  0  0  0  0  0  0  0
  -17.3296  -17.7673  -14.7181 N   0  0  0  0  0  0  0  0  0  0  0  0
  -25.2356  -11.8539  -16.3894 C   0  0  0  0  0  0  0  0  0  0  0  0
  -21.6241  -11.4067  -13.8010 C   0  0  2  0  0  0  0  0  0  0  0  0
  -18.8935  -17.7359  -12.7024 C   0  0  1  0  0  0  0  0  0  0  0  0
  -17.9839  -18.4289  -11.8719 O   0  0  0  0  0  0  0  0  0  0  0  0
  -24.6427  -10.7731  -16.9452 C   0  0  2  0  0  0  0  0  0  0  0  0
  -23.9430   -9.7954  -16.1685 O   0  0  0  0  0  0  0  0  0  0  0  0
  -20.7263  -12.6713  -14.1213 C   0  0  2  0  0  0  0  0  0  0  0  0
  -21.5783  -13.8058  -14.3512 O   0  0  0  0  0  0  0  0  0  0  0  0
  -19.7486  -16.7774  -11.8084 C   0  0  0  0  0  0  0  0  0  0  0  0
  -18.8772  -15.6493  -11.2594 O   0  0  0  0  0  0  0  0  0  0  0  0
  -24.6733  -10.5015  -18.4486 C   0  0  0  0  0  0  0  0  0  0  0  0
  -23.3190  -10.4941  -18.9261 O   0  0  0  0  0  0  0  0  0  0  0  0
  -19.7901  -12.9837  -12.8872 C   0  0  1  0  0  0  0  0  0  0  0  0
  -18.9959  -14.1101  -13.2168 O   0  0  0  0  0  0  0  0  0  0  0  0
  -19.8424  -18.8313  -13.2340 C   0  0  0  0  0  0  0  0  0  0  0  0
  -17.0599  -17.3067  -16.0953 C   0  0  0  0  0  0  0  0  0  0  0  0
  1  2  1  6  0  0  0
  1  6  1  0  0  0  0
  1 21  1  0  0  0  0
  3  4  1  1  0  0  0
  3  8  1  0  0  0  0
  3 28  1  0  0  0  0
  5  9  1  0  0  0  0
  5 25  1  0  0  0  0
  5 29  1  6  0  0  0
  6  7  1  1  0  0  0
  6 11  1  0  0  0  0
  8 12  1  0  0  0  0
  9 10  1  6  0  0  0
  9 14  1  0  0  0  0
 11 16  1  0  0  0  0
 12 13  1  1  0  0  0
 12 17  1  0  0  0  0
 14 15  1  6  0  0  0
 14 18  1  0  0  0  0
 15 31  1  0  0  0  0
 16 20  1  0  0  0  0
 17  2  1  6  0  0  0
 17 22  1  0  0  0  0
 18 19  1  1  0  0  0
 18 24  1  0  0  0  0
 18 30  1  0  0  0  0
 20 21  1  0  0  0  0
 20 26  1  1  0  0  0
 22 23  1  1  0  0  0
 22 28  1  0  0  0  0
 24 25  1  0  0  0  0
 26 27  1  0  0  0  0
 28 29  1  6  0  0  0
M  END
>  <CHROM.1>
-74.80683593,-167.88512738,-85.29240167,-70.97859063,-118.94590480,69.91280762
-20.73451961,-13.32191514,-14.05358165,-2.66475941,0.74763693,-2.63003098

>  <Name>
ligand

>  <RI>
0

>  <Rbt.Current_Directory>
/home/itssahil/PROJECTS/Mol_Feturizer/New_Systems/rnas/4GPW

>  <Rbt.Executable>
rbdock ($Id: //depot/dev/client3/rdock/2013.1/src/exe/rbdock.cxx#4 $)

>  <Rbt.Library>
libRbt.so (2013.1, Build901 2013/11/27)

>  <Rbt.Parameter_File>
/export/apps/rDock/src/rDock_2013.1_src/data/scripts/dock_solv.prm

>  <Rbt.Receptor>
prm/pocket_docking_8.prm

>  <SCORE>
-14.7009

>  <SCORE.INTER>
-10.2341

>  <SCORE.INTER.CONST>
1

>  <SCORE.INTER.POLAR>
0

>  <SCORE.INTER.ROT>
6

>  <SCORE.INTER.SOLV>
11.7506

>  <SCORE.INTER.VDW>
-18.3396

>  <SCORE.INTER.norm>
-0.330134

>  <SCORE.INTRA>
-4.4668

>  <SCORE.INTRA.DIHEDRAL>
-14.3236

>  <SCORE.INTRA.DIHEDRAL.0>
19.2558

>  <SCORE.INTRA.POLAR>
0

>  <SCORE.INTRA.POLAR.0>
0

>  <SCORE.INTRA.REPUL>
0

>  <SCORE.INTRA.REPUL.0>
0

>  <SCORE.INTRA.SOLV>
1.48396

>  <SCORE.INTRA.SOLV.lig_0>
-64.5929

>  <SCORE.INTRA.VDW>
1.953

>  <SCORE.INTRA.VDW.0>
-4.40538

>  <SCORE.INTRA.norm>
-0.14409

>  <SCORE.RESTR>
0

>  <SCORE.RESTR.CAVITY>
0

>  <SCORE.RESTR.norm>
0

>  <SCORE.SYSTEM>
0

>  <SCORE.SYSTEM.CONST>
0

>  <SCORE.SYSTEM.DIHEDRAL>
0

>  <SCORE.SYSTEM.SOLV>
0

>  <SCORE.SYSTEM.norm>
0

>  <SCORE.heavy>
31

>  <SCORE.norm>
-0.474224

>  <RMSD>
8.679

$$$$
ligand
 OpenBabel11021811493D
libRbt.so/2013.1/901 2013/11/27
 31 33  0  0  0  0  0  0  0  0999 V2000
  -23.4499  -10.1524  -14.8559 C   0  0  2  0  0  0  0  0  0  0  0  0
  -22.4165  -11.1250  -14.9069 O   0  0  0  0  0  0  0  0  0  0  0  0
  -18.8603  -11.7637  -12.6440 C   0  0  2  0  0  0  0  0  0  0  0  0
  -18.0126  -12.0290  -11.5267 N   0  0  0  0  0  0  0  0  0  0  0  0
  -18.1497  -14.8385  -12.2460 C   0  0  2  0  0  0  0  0  0  0  0  0
  -24.6507  -10.7951  -14.0451 C   0  0  2  0  0  0  0  0  0  0  0  0
  -24.1858  -11.1600  -12.6987 N   0  0  0  0  0  0  0  0  0  0  0  0
  -19.7256  -10.4686  -12.3216 C   0  0  0  0  0  0  0  0  0  0  0  0
  -17.2635  -15.7826  -13.1244 C   0  0  2  0  0  0  0  0  0  0  0  0
  -16.6126  -14.9938  -14.0923 O   0  0  0  0  0  0  0  0  0  0  0  0
  -25.1988  -12.0611  -14.8153 C   0  0  0  0  0  0  0  0  0  0  0  0
  -20.6686  -10.1668  -13.5722 C   0  0  2  0  0  0  0  0  0  0  0  0
  -21.4793   -8.9612  -13.2951 N   0  0  0  0  0  0  0  0  0  0  0  0
  -18.1812  -16.8847  -13.7999 C   0  0  1  0  0  0  0  0  0  0  0  0
  -17.3449  -17.8024  -14.6538 N   0  0  0  0  0  0  0  0  0  0  0  0
  -25.2481  -11.8406  -16.3842 C   0  0  0  0  0  0  0  0  0  0  0  0
  -21.6210  -11.4099  -13.8103 C   0  0  2  0  0  0  0  0  0  0  0  0
  -18.9059  -17.7606  -12.6360 C   0  0  1  0  0  0  0  0  0  0  0  0
  -17.9909  -18.4401  -11.8002 O   0  0  0  0  0  0  0  0  0  0  0  0
  -24.6365  -10.7805  -16.9595 C   0  0  2  0  0  0  0  0  0  0  0  0
  -23.9180   -9.8023  -16.2007 O   0  0  0  0  0  0  0  0  0  0  0  0
  -20.7435  -12.6936  -14.1102 C   0  0  2  0  0  0  0  0  0  0  0  0
  -21.6132  -13.8194  -14.3152 O   0  0  0  0  0  0  0  0  0  0  0  0
  -19.7653  -16.7985  -11.7500 C   0  0  0  0  0  0  0  0  0  0  0  0
  -18.8998  -15.6600  -11.2134 O   0  0  0  0  0  0  0  0  0  0  0  0
  -24.6646  -10.5344  -18.4673 C   0  0  0  0  0  0  0  0  0  0  0  0
  -23.3144  -10.5959  -18.9524 O   0  0  0  0  0  0  0  0  0  0  0  0
  -19.8067  -12.9965  -12.8741 C   0  0  1  0  0  0  0  0  0  0  0  0
  -19.0306  -14.1407  -13.1855 O   0  0  0  0  0  0  0  0  0  0  0  0
  -19.8491  -18.8667  -13.1554 C   0  0  0  0  0  0  0  0  0  0  0  0
  -17.0404  -17.3318  -16.0204 C   0  0  0  0  0  0  0  0  0  0  0  0
  1  2  1  6  0  0  0
  1  6  1  0  0  0  0
  1 21  1  0  0  0  0
  3  4  1  1  0  0  0
  3  8  1  0  0  0  0
  3 28  1  0  0  0  0
  5  9  1  0  0  0  0
  5 25  1  0  0  0  0
  5 29  1  6  0  0  0
  6  7  1  1  0  0  0
  6 11  1  0  0  0  0
  8 12  1  0  0  0  0
  9 10  1  6  0  0  0
  9 14  1  0  0  0  0
 11 16  1  0  0  0  0
 12 13  1  1  0  0  0
 12 17  1  0  0  0  0
 14 15  1  6  0  0  0
 14 18  1  0  0  0  0
 15 31  1  0  0  0  0
 16 20  1  0  0  0  0
 17  2  1  6  0  0  0
 17 22  1  0  0  0  0
 18 19  1  1  0  0  0
 18 24  1  0  0  0  0
 18 30  1  0  0  0  0
 20 21  1  0  0  0  0
 20 26  1  1  0  0  0
 22 23  1  1  0  0  0
 22 28  1  0  0  0  0
 24 25  1  0  0  0  0
 26 27  1  0  0  0  0
 28 29  1  6  0  0  0
M  END
>  <CHROM.1>
-75.10471069,-166.29279019,-83.21822175,-70.75921209,-117.40815664,69.14067629
-20.73851331,-13.33490082,-14.03941150,-2.65883509,0.75122178,-2.64391335

>  <Name>
ligand

>  <RI>
0

>  <Rbt.Current_Directory>
/home/itssahil/PROJECTS/Mol_Feturizer/New_Systems/rnas/4GPW

>  <Rbt.Executable>
rbdock ($Id: //depot/dev/client3/rdock/2013.1/src/exe/rbdock.cxx#4 $)

>  <Rbt.Library>
libRbt.so (2013.1, Build901 2013/11/27)

>  <Rbt.Parameter_File>
/export/apps/rDock/src/rDock_2013.1_src/data/scripts/dock_solv.prm

>  <Rbt.Receptor>
prm/pocket_docking_5.prm

>  <SCORE>
-14.6195

>  <SCORE.INTER>
-10.2894

>  <SCORE.INTER.CONST>
1

>  <SCORE.INTER.POLAR>
0

>  <SCORE.INTER.ROT>
6

>  <SCORE.INTER.SOLV>
11.7516

>  <SCORE.INTER.VDW>
-18.3768

>  <SCORE.INTER.norm>
-0.331916

>  <SCORE.INTRA>
-4.33014

>  <SCORE.INTRA.DIHEDRAL>
-14.2429

>  <SCORE.INTRA.DIHEDRAL.0>
19.2558

>  <SCORE.INTRA.POLAR>
0

>  <SCORE.INTRA.POLAR.0>
0

>  <SCORE.INTRA.REPUL>
0

>  <SCORE.INTRA.REPUL.0>
0

>  <SCORE.INTRA.SOLV>
1.51028

>  <SCORE.INTRA.SOLV.lig_0>
-64.5929

>  <SCORE.INTRA.VDW>
2.03616

>  <SCORE.INTRA.VDW.0>
-4.40538

>  <SCORE.INTRA.norm>
-0.139682

>  <SCORE.RESTR>
0

>  <SCORE.RESTR.CAVITY>
0

>  <SCORE.RESTR.norm>
0

>  <SCORE.SYSTEM>
0

>  <SCORE.SYSTEM.CONST>
0

>  <SCORE.SYSTEM.DIHEDRAL>
0

>  <SCORE.SYSTEM.SOLV>
0

>  <SCORE.SYSTEM.norm>
0

>  <SCORE.heavy>
31

>  <SCORE.norm>
-0.471598

>  <RMSD>
8.684

$$$$
ligand
 OpenBabel11021811493D
libRbt.so/2013.1/901 2013/11/27
 31 33  0  0  0  0  0  0  0  0999 V2000
  -15.6746  -22.1301  -12.1916 C   0  0  2  0  0  0  0  0  0  0  0  0
  -16.3898  -23.0140  -11.3408 O   0  0  0  0  0  0  0  0  0  0  0  0
  -20.5159  -22.5995  -10.3518 C   0  0  2  0  0  0  0  0  0  0  0  0
  -21.6904  -22.2199   -9.6350 N   0  0  0  0  0  0  0  0  0  0  0  0
  -20.8444  -19.1116  -11.4935 C   0  0  2  0  0  0  0  0  0  0  0  0
  -14.6824  -23.0177  -13.0519 C   0  0  2  0  0  0  0  0  0  0  0  0
  -15.4568  -24.0010  -13.8234 N   0  0  0  0  0  0  0  0  0  0  0  0
  -19.6051  -23.4823   -9.3921 C   0  0  0  0  0  0  0  0  0  0  0  0
  -20.6550  -18.4744  -12.9099 C   0  0  2  0  0  0  0  0  0  0  0  0
  -21.4861  -19.1644  -13.8132 O   0  0  0  0  0  0  0  0  0  0  0  0
  -13.6461  -23.7365  -12.1001 C   0  0  0  0  0  0  0  0  0  0  0  0
  -18.2953  -23.9131  -10.1939 C   0  0  2  0  0  0  0  0  0  0  0  0
  -17.4356  -24.7406   -9.3201 N   0  0  0  0  0  0  0  0  0  0  0  0
  -19.1307  -18.5793  -13.3325 C   0  0  1  0  0  0  0  0  0  0  0  0
  -18.9288  -17.9733  -14.6973 N   0  0  0  0  0  0  0  0  0  0  0  0
  -13.1507  -22.7959  -10.9244 C   0  0  0  0  0  0  0  0  0  0  0  0
  -17.5118  -22.6099  -10.6378 C   0  0  2  0  0  0  0  0  0  0  0  0
  -18.2221  -17.7673  -12.2544 C   0  0  1  0  0  0  0  0  0  0  0  0
  -18.5381  -16.3916  -12.1849 O   0  0  0  0  0  0  0  0  0  0  0  0
  -13.7700  -21.6230  -10.6610 C   0  0  2  0  0  0  0  0  0  0  0  0
  -14.8944  -21.1604  -11.4165 O   0  0  0  0  0  0  0  0  0  0  0  0
  -18.4392  -21.7338  -11.5759 C   0  0  2  0  0  0  0  0  0  0  0  0
  -17.7261  -20.5486  -11.9665 O   0  0  0  0  0  0  0  0  0  0  0  0
  -18.4441  -18.3983  -10.8396 C   0  0  0  0  0  0  0  0  0  0  0  0
  -19.9327  -18.4183  -10.4976 O   0  0  0  0  0  0  0  0  0  0  0  0
  -13.3193  -20.6899   -9.5379 C   0  0  0  0  0  0  0  0  0  0  0  0
  -14.2491  -20.8215   -8.4515 O   0  0  0  0  0  0  0  0  0  0  0  0
  -19.7390  -21.3049  -10.7861 C   0  0  1  0  0  0  0  0  0  0  0  0
  -20.5466  -20.5360  -11.6607 O   0  0  0  0  0  0  0  0  0  0  0  0
  -16.7046  -17.8011  -12.5358 C   0  0  0  0  0  0  0  0  0  0  0  0
  -19.4342  -18.7549  -15.8442 C   0  0  0  0  0  0  0  0  0  0  0  0
  1  2  1  1  0  0  0
  1  6  1  0  0  0  0
  1 21  1  0  0  0  0
  3  4  1  1  0  0  0
  3  8  1  0  0  0  0
  3 28  1  0  0  0  0
  5  9  1  0  0  0  0
  5 25  1  0  0  0  0
  5 29  1  6  0  0  0
  6  7  1  1  0  0  0
  6 11  1  0  0  0  0
  8 12  1  0  0  0  0
  9 10  1  6  0  0  0
  9 14  1  0  0  0  0
 11 16  1  0  0  0  0
 12 13  1  1  0  0  0
 12 17  1  0  0  0  0
 14 15  1  6  0  0  0
 14 18  1  0  0  0  0
 15 31  1  0  0  0  0
 16 20  1  0  0  0  0
 17  2  1  6  0  0  0
 17 22  1  0  0  0  0
 18 19  1  1  0  0  0
 18 24  1  0  0  0  0
 18 30  1  0  0  0  0
 20 21  1  0  0  0  0
 20 26  1  6  0  0  0
 22 23  1  1  0  0  0
 22 28  1  0  0  0  0
 24 25  1  0  0  0  0
 26 27  1  0  0  0  0
 28 29  1  6  0  0  0
M  END
>  <CHROM.1>
-167.53863536,134.87199285,-73.44132353,162.01844842,-104.31016386,128.14257921
-17.70989767,-20.84575532,-11.59749849,-0.70166261,0.08899792,-0.51963237

>  <Name>
ligand

>  <RI>
0

>  <Rbt.Current_Directory>
/home/itssahil/PROJECTS/Mol_Feturizer/New_Systems/rnas/4GPW

>  <Rbt.Executable>
rbdock ($Id: //depot/dev/client3/rdock/2013.1/src/exe/rbdock.cxx#4 $)

>  <Rbt.Library>
libRbt.so (2013.1, Build901 2013/11/27)

>  <Rbt.Parameter_File>
/export/apps/rDock/src/rDock_2013.1_src/data/scripts/dock_solv.prm

>  <Rbt.Receptor>
prm/blind_docking_60.prm

>  <SCORE>
31.6302

>  <SCORE.INTER>
6.99518

>  <SCORE.INTER.CONST>
1

>  <SCORE.INTER.POLAR>
0

>  <SCORE.INTER.ROT>
6

>  <SCORE.INTER.SOLV>
26.649

>  <SCORE.INTER.VDW>
-11.8196

>  <SCORE.INTER.norm>
0.225651

>  <SCORE.INTRA>
3.46347

>  <SCORE.INTRA.DIHEDRAL>
-1.86982

>  <SCORE.INTRA.DIHEDRAL.0>
19.2558

>  <SCORE.INTRA.POLAR>
0

>  <SCORE.INTRA.POLAR.0>
0

>  <SCORE.INTRA.REPUL>
0

>  <SCORE.INTRA.REPUL.0>
0

>  <SCORE.INTRA.SOLV>
-2.58938

>  <SCORE.INTRA.SOLV.lig_0>
-64.5929

>  <SCORE.INTRA.VDW>
5.69307

>  <SCORE.INTRA.VDW.0>
-4.40538

>  <SCORE.INTRA.norm>
0.111725

>  <SCORE.RESTR>
21.1716

>  <SCORE.RESTR.CAVITY>
21.1716

>  <SCORE.RESTR.norm>
0.682954

>  <SCORE.SYSTEM>
0

>  <SCORE.SYSTEM.CONST>
0

>  <SCORE.SYSTEM.DIHEDRAL>
0

>  <SCORE.SYSTEM.SOLV>
0

>  <SCORE.SYSTEM.norm>
0

>  <SCORE.heavy>
31

>  <SCORE.norm>
1.02033

>  <RMSD>
8.690

$$$$
ligand
 OpenBabel11021811493D
libRbt.so/2013.1/901 2013/11/27
 31 33  0  0  0  0  0  0  0  0999 V2000
  -17.3627  -24.2220   -9.6721 C   0  0  2  0  0  0  0  0  0  0  0  0
  -18.5173  -23.5079   -9.2556 O   0  0  0  0  0  0  0  0  0  0  0  0
  -19.6019  -20.9545  -12.4927 C   0  0  2  0  0  0  0  0  0  0  0  0
  -20.4151  -20.2751  -13.4490 N   0  0  0  0  0  0  0  0  0  0  0  0
  -18.5405  -18.5123  -10.5473 C   0  0  2  0  0  0  0  0  0  0  0  0
  -16.4918  -24.4904   -8.3752 C   0  0  2  0  0  0  0  0  0  0  0  0
  -17.2861  -25.2641   -7.4097 N   0  0  0  0  0  0  0  0  0  0  0  0
  -19.8123  -22.5203  -12.6766 C   0  0  0  0  0  0  0  0  0  0  0  0
  -18.6608  -17.0205  -11.0036 C   0  0  2  0  0  0  0  0  0  0  0  0
  -19.7855  -16.4596  -10.3686 O   0  0  0  0  0  0  0  0  0  0  0  0
  -16.0260  -23.1160   -7.7503 C   0  0  0  0  0  0  0  0  0  0  0  0
  -18.8990  -23.2812  -11.6131 C   0  0  2  0  0  0  0  0  0  0  0  0
  -19.0757  -24.7411  -11.7706 N   0  0  0  0  0  0  0  0  0  0  0  0
  -18.8011  -16.9644  -12.5817 C   0  0  1  0  0  0  0  0  0  0  0  0
  -18.9219  -15.5342  -13.0403 N   0  0  0  0  0  0  0  0  0  0  0  0
  -15.6100  -22.0586   -8.8554 C   0  0  0  0  0  0  0  0  0  0  0  0
  -19.3339  -22.8431  -10.1543 C   0  0  2  0  0  0  0  0  0  0  0  0
  -17.4773  -17.6259  -13.2578 C   0  0  1  0  0  0  0  0  0  0  0  0
  -16.2839  -16.9462  -12.9244 O   0  0  0  0  0  0  0  0  0  0  0  0
  -15.8902  -22.2676  -10.1618 C   0  0  2  0  0  0  0  0  0  0  0  0
  -16.5682  -23.4402  -10.6247 O   0  0  0  0  0  0  0  0  0  0  0  0
  -19.1368  -21.2799   -9.9950 C   0  0  2  0  0  0  0  0  0  0  0  0
  -19.5427  -20.8878   -8.6732 O   0  0  0  0  0  0  0  0  0  0  0  0
  -17.3557  -19.1079  -12.7698 C   0  0  0  0  0  0  0  0  0  0  0  0
  -17.3593  -19.1636  -11.2433 O   0  0  0  0  0  0  0  0  0  0  0  0
  -15.5029  -21.2723  -11.2546 C   0  0  0  0  0  0  0  0  0  0  0  0
  -15.4097  -21.9893  -12.4953 O   0  0  0  0  0  0  0  0  0  0  0  0
  -20.0393  -20.5214  -11.0472 C   0  0  1  0  0  0  0  0  0  0  0  0
  -19.8256  -19.1301  -10.8821 O   0  0  0  0  0  0  0  0  0  0  0  0
  -17.4877  -17.6534  -14.8012 C   0  0  0  0  0  0  0  0  0  0  0  0
  -20.2618  -14.9216  -12.9347 C   0  0  0  0  0  0  0  0  0  0  0  0
  1  2  1  1  0  0  0
  1  6  1  0  0  0  0
  1 21  1  0  0  0  0
  3  4  1  6  0  0  0
  3  8  1  0  0  0  0
  3 28  1  0  0  0  0
  5  9  1  0  0  0  0
  5 25  1  0  0  0  0
  5 29  1  6  0  0  0
  6  7  1  1  0  0  0
  6 11  1  0  0  0  0
  8 12  1  0  0  0  0
  9 10  1  1  0  0  0
  9 14  1  0  0  0  0
 11 16  1  0  0  0  0
 12 13  1  1  0  0  0
 12 17  1  0  0  0  0
 14 15  1  6  0  0  0
 14 18  1  0  0  0  0
 15 31  1  0  0  0  0
 16 20  1  0  0  0  0
 17  2  1  1  0  0  0
 17 22  1  0  0  0  0
 18 19  1  1  0  0  0
 18 24  1  0  0  0  0
 18 30  1  0  0  0  0
 20 21  1  0  0  0  0
 20 26  1  6  0  0  0
 22 23  1  1  0  0  0
 22 28  1  0  0  0  0
 24 25  1  0  0  0  0
 26 27  1  0  0  0  0
 28 29  1  6  0  0  0
M  END
>  <CHROM.1>
164.63324422,158.93762132,-81.18122626,10.84073685,155.92633972,-81.79713890
-18.09693666,-20.54576247,-11.10189399,1.38286101,-0.04776348,2.69631188

>  <Name>
ligand

>  <RI>
0

>  <Rbt.Current_Directory>
/home/itssahil/PROJECTS/Mol_Feturizer/New_Systems/rnas/4GPW

>  <Rbt.Executable>
rbdock ($Id: //depot/dev/client3/rdock/2013.1/src/exe/rbdock.cxx#4 $)

>  <Rbt.Library>
libRbt.so (2013.1, Build901 2013/11/27)

>  <Rbt.Parameter_File>
/export/apps/rDock/src/rDock_2013.1_src/data/scripts/dock_solv.prm

>  <Rbt.Receptor>
prm/blind_docking_100.prm

>  <SCORE>
28.6447

>  <SCORE.INTER>
2.25246

>  <SCORE.INTER.CONST>
1

>  <SCORE.INTER.POLAR>
0

>  <SCORE.INTER.ROT>
6

>  <SCORE.INTER.SOLV>
22.016

>  <SCORE.INTER.VDW>
-13.437

>  <SCORE.INTER.norm>
0.0726598

>  <SCORE.INTRA>
4.4314

>  <SCORE.INTRA.DIHEDRAL>
-4.17159

>  <SCORE.INTRA.DIHEDRAL.0>
19.2558

>  <SCORE.INTRA.POLAR>
0

>  <SCORE.INTRA.POLAR.0>
0

>  <SCORE.INTRA.REPUL>
0

>  <SCORE.INTRA.REPUL.0>
0

>  <SCORE.INTRA.SOLV>
1.57619

>  <SCORE.INTRA.SOLV.lig_0>
-64.5929

>  <SCORE.INTRA.VDW>
5.7291

>  <SCORE.INTRA.VDW.0>
-4.40538

>  <SCORE.INTRA.norm>
0.142948

>  <SCORE.RESTR>
21.9608

>  <SCORE.RESTR.CAVITY>
21.9608

>  <SCORE.RESTR.norm>
0.708414

>  <SCORE.SYSTEM>
0

>  <SCORE.SYSTEM.CONST>
0

>  <SCORE.SYSTEM.DIHEDRAL>
0

>  <SCORE.SYSTEM.SOLV>
0

>  <SCORE.SYSTEM.norm>
0

>  <SCORE.heavy>
31

>  <SCORE.norm>
0.924022

>  <RMSD>
8.698

$$$$
ligand
 OpenBabel11021811493D
libRbt.so/2013.1/901 2013/11/27
 31 33  0  0  0  0  0  0  0  0999 V2000
  -22.8458  -12.4875  -16.8662 C   0  0  2  0  0  0  0  0  0  0  0  0
  -21.7106  -11.6659  -16.6361 O   0  0  0  0  0  0  0  0  0  0  0  0
  -18.3851  -11.7671  -13.9704 C   0  0  2  0  0  0  0  0  0  0  0  0
  -17.6460  -11.7609  -12.7494 N   0  0  0  0  0  0  0  0  0  0  0  0
  -17.8202  -14.6690  -12.7749 C   0  0  2  0  0  0  0  0  0  0  0  0
  -23.3284  -12.2051  -18.3493 C   0  0  2  0  0  0  0  0  0  0  0  0
  -22.2365  -12.5194  -19.2823 N   0  0  0  0  0  0  0  0  0  0  0  0
  -19.2354  -10.4252  -14.0497 C   0  0  0  0  0  0  0  0  0  0  0  0
  -16.9008  -15.8176  -13.3076 C   0  0  2  0  0  0  0  0  0  0  0  0
  -16.1299  -15.3029  -14.3676 O   0  0  0  0  0  0  0  0  0  0  0  0
  -23.7727  -10.6952  -18.4885 C   0  0  0  0  0  0  0  0  0  0  0  0
  -20.0569  -10.4276  -15.4170 C   0  0  2  0  0  0  0  0  0  0  0  0
  -20.8516   -9.1840  -15.5135 N   0  0  0  0  0  0  0  0  0  0  0  0
  -17.8017  -17.0314  -13.7855 C   0  0  1  0  0  0  0  0  0  0  0  0
  -16.9332  -18.1474  -14.3059 N   0  0  0  0  0  0  0  0  0  0  0  0
  -24.5675  -10.1786  -17.2181 C   0  0  0  0  0  0  0  0  0  0  0  0
  -21.0222  -11.6833  -15.4351 C   0  0  2  0  0  0  0  0  0  0  0  0
  -18.6679  -17.5811  -12.5226 C   0  0  1  0  0  0  0  0  0  0  0  0
  -17.8641  -18.0554  -11.4613 O   0  0  0  0  0  0  0  0  0  0  0  0
  -24.6021  -10.9008  -16.0753 C   0  0  2  0  0  0  0  0  0  0  0  0
  -23.9356  -12.1604  -15.9413 O   0  0  0  0  0  0  0  0  0  0  0  0
  -20.1613  -13.0087  -15.3358 C   0  0  2  0  0  0  0  0  0  0  0  0
  -21.0436  -14.1433  -15.3425 O   0  0  0  0  0  0  0  0  0  0  0  0
  -19.5604  -16.4138  -11.9841 C   0  0  0  0  0  0  0  0  0  0  0  0
  -18.6971  -15.1974  -11.6545 O   0  0  0  0  0  0  0  0  0  0  0  0
  -25.3592  -10.4358  -14.8321 C   0  0  0  0  0  0  0  0  0  0  0  0
  -25.4999   -9.0086  -14.9059 O   0  0  0  0  0  0  0  0  0  0  0  0
  -19.3449  -13.0109  -13.9828 C   0  0  1  0  0  0  0  0  0  0  0  0
  -18.5798  -14.2030  -13.9374 O   0  0  0  0  0  0  0  0  0  0  0  0
  -19.6085  -18.7601  -12.8512 C   0  0  0  0  0  0  0  0  0  0  0  0
  -16.4263  -17.9965  -15.6850 C   0  0  0  0  0  0  0  0  0  0  0  0
  1  2  1  1  0  0  0
  1  6  1  0  0  0  0
  1 21  1  0  0  0  0
  3  4  1  1  0  0  0
  3  8  1  0  0  0  0
  3 28  1  0  0  0  0
  5  9  1  0  0  0  0
  5 25  1  0  0  0  0
  5 29  1  6  0  0  0
  6  7  1  6  0  0  0
  6 11  1  0  0  0  0
  8 12  1  0  0  0  0
  9 10  1  6  0  0  0
  9 14  1  0  0  0  0
 11 16  1  0  0  0  0
 12 13  1  1  0  0  0
 12 17  1  0  0  0  0
 14 15  1  1  0  0  0
 14 18  1  0  0  0  0
 15 31  1  0  0  0  0
 16 20  1  0  0  0  0
 17  2  1  6  0  0  0
 17 22  1  0  0  0  0
 18 19  1  1  0  0  0
 18 24  1  0  0  0  0
 18 30  1  0  0  0  0
 20 21  1  0  0  0  0
 20 26  1  6  0  0  0
 22 23  1  1  0  0  0
 22 28  1  0  0  0  0
 24 25  1  0  0  0  0
 26 27  1  0  0  0  0
 28 29  1  6  0  0  0
M  END
>  <CHROM.1>
-178.87326349,-167.27401823,-80.10439103,-166.95997920,-23.02954884,70.03307656
-20.34564343,-13.47129646,-14.79081214,2.48869464,-0.61968513,0.14807746

>  <Name>
ligand

>  <RI>
0

>  <Rbt.Current_Directory>
/home/itssahil/PROJECTS/Mol_Feturizer/New_Systems/rnas/4GPW

>  <Rbt.Executable>
rbdock ($Id: //depot/dev/client3/rdock/2013.1/src/exe/rbdock.cxx#4 $)

>  <Rbt.Library>
libRbt.so (2013.1, Build901 2013/11/27)

>  <Rbt.Parameter_File>
/export/apps/rDock/src/rDock_2013.1_src/data/scripts/dock_solv.prm

>  <Rbt.Receptor>
prm/pocket_docking_7.prm

>  <SCORE>
-16.0087

>  <SCORE.INTER>
-9.91148

>  <SCORE.INTER.CONST>
1

>  <SCORE.INTER.POLAR>
0

>  <SCORE.INTER.ROT>
6

>  <SCORE.INTER.SOLV>
10.2978

>  <SCORE.INTER.VDW>
-17.6403

>  <SCORE.INTER.norm>
-0.319725

>  <SCORE.INTRA>
-6.09725

>  <SCORE.INTRA.DIHEDRAL>
-14.5694

>  <SCORE.INTRA.DIHEDRAL.0>
19.2558

>  <SCORE.INTRA.POLAR>
0

>  <SCORE.INTRA.POLAR.0>
0

>  <SCORE.INTRA.REPUL>
0

>  <SCORE.INTRA.REPUL.0>
0

>  <SCORE.INTRA.SOLV>
-2.14937

>  <SCORE.INTRA.SOLV.lig_0>
-64.5929

>  <SCORE.INTRA.VDW>
2.26213

>  <SCORE.INTRA.VDW.0>
-4.40538

>  <SCORE.INTRA.norm>
-0.196686

>  <SCORE.RESTR>
0

>  <SCORE.RESTR.CAVITY>
0

>  <SCORE.RESTR.norm>
0

>  <SCORE.SYSTEM>
0

>  <SCORE.SYSTEM.CONST>
0

>  <SCORE.SYSTEM.DIHEDRAL>
0

>  <SCORE.SYSTEM.SOLV>
0

>  <SCORE.SYSTEM.norm>
0

>  <SCORE.heavy>
31

>  <SCORE.norm>
-0.516411

>  <RMSD>
8.703

$$$$
ligand
 OpenBabel11021811493D
libRbt.so/2013.1/901 2013/11/27
 31 33  0  0  0  0  0  0  0  0999 V2000
  -20.9544   -8.3578  -15.5904 C   0  0  2  0  0  0  0  0  0  0  0  0
  -20.6157   -8.7097  -14.2569 O   0  0  0  0  0  0  0  0  0  0  0  0
  -19.7343  -12.4814  -12.4759 C   0  0  2  0  0  0  0  0  0  0  0  0
  -19.9350  -13.7835  -11.9266 N   0  0  0  0  0  0  0  0  0  0  0  0
  -17.9667  -13.3072  -14.8805 C   0  0  2  0  0  0  0  0  0  0  0  0
  -20.8381   -6.7806  -15.6965 C   0  0  2  0  0  0  0  0  0  0  0  0
  -19.4657   -6.3724  -15.3623 N   0  0  0  0  0  0  0  0  0  0  0  0
  -20.5944  -11.4426  -11.6327 C   0  0  0  0  0  0  0  0  0  0  0  0
  -17.6112  -14.3203  -16.0187 C   0  0  2  0  0  0  0  0  0  0  0  0
  -18.3622  -13.9762  -17.1590 O   0  0  0  0  0  0  0  0  0  0  0  0
  -21.8817   -6.1010  -14.7241 C   0  0  0  0  0  0  0  0  0  0  0  0
  -20.3659   -9.9859  -12.2411 C   0  0  2  0  0  0  0  0  0  0  0  0
  -21.1538   -9.0023  -11.4671 N   0  0  0  0  0  0  0  0  0  0  0  0
  -17.9418  -15.7925  -15.5324 C   0  0  1  0  0  0  0  0  0  0  0  0
  -17.6090  -16.7833  -16.6178 N   0  0  0  0  0  0  0  0  0  0  0  0
  -23.2753   -6.8562  -14.7085 C   0  0  0  0  0  0  0  0  0  0  0  0
  -20.8378   -9.9799  -13.7532 C   0  0  2  0  0  0  0  0  0  0  0  0
  -17.0483  -16.1316  -14.2156 C   0  0  1  0  0  0  0  0  0  0  0  0
  -15.6571  -16.0791  -14.4589 O   0  0  0  0  0  0  0  0  0  0  0  0
  -23.4137   -8.0773  -15.2729 C   0  0  2  0  0  0  0  0  0  0  0  0
  -22.3282   -8.7559  -15.9132 O   0  0  0  0  0  0  0  0  0  0  0  0
  -19.9853  -11.0328  -14.5733 C   0  0  2  0  0  0  0  0  0  0  0  0
  -20.4254  -11.0295  -15.9416 O   0  0  0  0  0  0  0  0  0  0  0  0
  -17.3947  -15.0933  -13.0971 C   0  0  0  0  0  0  0  0  0  0  0  0
  -17.2042  -13.6706  -13.6195 O   0  0  0  0  0  0  0  0  0  0  0  0
  -24.7412   -8.8339  -15.2790 C   0  0  0  0  0  0  0  0  0  0  0  0
  -24.8653   -9.5026  -16.5437 O   0  0  0  0  0  0  0  0  0  0  0  0
  -20.2079  -12.4779  -13.9739 C   0  0  1  0  0  0  0  0  0  0  0  0
  -19.4209  -13.3868  -14.7241 O   0  0  0  0  0  0  0  0  0  0  0  0
  -17.2837  -17.5370  -13.6220 C   0  0  0  0  0  0  0  0  0  0  0  0
  -18.6925  -17.1041  -17.5690 C   0  0  0  0  0  0  0  0  0  0  0  0
  1  2  1  1  0  0  0
  1  6  1  0  0  0  0
  1 21  1  0  0  0  0
  3  4  1  1  0  0  0
  3  8  1  0  0  0  0
  3 28  1  0  0  0  0
  5  9  1  0  0  0  0
  5 25  1  0  0  0  0
  5 29  1  1  0  0  0
  6  7  1  1  0  0  0
  6 11  1  0  0  0  0
  8 12  1  0  0  0  0
  9 10  1  6  0  0  0
  9 14  1  0  0  0  0
 11 16  1  0  0  0  0
 12 13  1  1  0  0  0
 12 17  1  0  0  0  0
 14 15  1  6  0  0  0
 14 18  1  0  0  0  0
 15 31  1  0  0  0  0
 16 20  1  0  0  0  0
 17  2  1  6  0  0  0
 17 22  1  0  0  0  0
 18 19  1  6  0  0  0
 18 24  1  0  0  0  0
 18 30  1  0  0  0  0
 20 21  1  0  0  0  0
 20 26  1  6  0  0  0
 22 23  1  6  0  0  0
 22 28  1  0  0  0  0
 24 25  1  0  0  0  0
 26 27  1  0  0  0  0
 28 29  1  6  0  0  0
M  END
>  <CHROM.1>
168.45146511,-168.21965467,-90.29783056,-178.85689324,141.86359583,-59.67117753
-19.92982016,-11.72772186,-14.64184255,2.67388893,-0.95427859,1.01980886

>  <Name>
ligand

>  <RI>
0

>  <Rbt.Current_Directory>
/home/itssahil/PROJECTS/Mol_Feturizer/New_Systems/rnas/4GPW

>  <Rbt.Executable>
rbdock ($Id: //depot/dev/client3/rdock/2013.1/src/exe/rbdock.cxx#4 $)

>  <Rbt.Library>
libRbt.so (2013.1, Build901 2013/11/27)

>  <Rbt.Parameter_File>
/export/apps/rDock/src/rDock_2013.1_src/data/scripts/dock_solv.prm

>  <Rbt.Receptor>
prm/pocket_docking_7.prm

>  <SCORE>
-9.85859

>  <SCORE.INTER>
-3.1285

>  <SCORE.INTER.CONST>
1

>  <SCORE.INTER.POLAR>
0

>  <SCORE.INTER.ROT>
6

>  <SCORE.INTER.SOLV>
8.84806

>  <SCORE.INTER.VDW>
-12.635

>  <SCORE.INTER.norm>
-0.100919

>  <SCORE.INTRA>
-6.73009

>  <SCORE.INTRA.DIHEDRAL>
-15.0778

>  <SCORE.INTRA.DIHEDRAL.0>
19.2558

>  <SCORE.INTRA.POLAR>
0

>  <SCORE.INTRA.POLAR.0>
0

>  <SCORE.INTRA.REPUL>
0

>  <SCORE.INTRA.REPUL.0>
0

>  <SCORE.INTRA.SOLV>
-1.48199

>  <SCORE.INTRA.SOLV.lig_0>
-64.5929

>  <SCORE.INTRA.VDW>
1.54979

>  <SCORE.INTRA.VDW.0>
-4.40538

>  <SCORE.INTRA.norm>
-0.2171

>  <SCORE.RESTR>
0

>  <SCORE.RESTR.CAVITY>
0

>  <SCORE.RESTR.norm>
0

>  <SCORE.SYSTEM>
0

>  <SCORE.SYSTEM.CONST>
0

>  <SCORE.SYSTEM.DIHEDRAL>
0

>  <SCORE.SYSTEM.SOLV>
0

>  <SCORE.SYSTEM.norm>
0

>  <SCORE.heavy>
31

>  <SCORE.norm>
-0.318019

>  <RMSD>
8.711

$$$$
ligand
 OpenBabel11021811493D
libRbt.so/2013.1/901 2013/11/27
 31 33  0  0  0  0  0  0  0  0999 V2000
  -22.6074  -12.4678  -17.0153 C   0  0  2  0  0  0  0  0  0  0  0  0
  -21.5240  -11.5690  -16.8282 O   0  0  0  0  0  0  0  0  0  0  0  0
  -18.0051  -11.5982  -14.4217 C   0  0  2  0  0  0  0  0  0  0  0  0
  -17.1764  -11.5877  -13.2596 N   0  0  0  0  0  0  0  0  0  0  0  0
  -17.2409  -14.4929  -13.3386 C   0  0  2  0  0  0  0  0  0  0  0  0
  -23.1241  -12.2668  -18.5002 C   0  0  2  0  0  0  0  0  0  0  0  0
  -22.0253  -12.5432  -19.4373 N   0  0  0  0  0  0  0  0  0  0  0  0
  -18.9055  -10.2871  -14.4084 C   0  0  0  0  0  0  0  0  0  0  0  0
  -16.4273  -15.6939  -13.9251 C   0  0  2  0  0  0  0  0  0  0  0  0
  -15.7644  -15.2470  -15.0842 O   0  0  0  0  0  0  0  0  0  0  0  0
  -23.6649  -10.7935  -18.6833 C   0  0  0  0  0  0  0  0  0  0  0  0
  -19.8273  -10.2940  -15.7101 C   0  0  2  0  0  0  0  0  0  0  0  0
  -20.6702   -9.0788  -15.7202 N   0  0  0  0  0  0  0  0  0  0  0  0
  -17.4172  -16.8886  -14.2506 C   0  0  1  0  0  0  0  0  0  0  0  0
  -16.6517  -18.0547  -14.8204 N   0  0  0  0  0  0  0  0  0  0  0  0
  -24.4760  -10.2852  -17.4199 C   0  0  0  0  0  0  0  0  0  0  0  0
  -20.7466  -11.5837  -15.6828 C   0  0  2  0  0  0  0  0  0  0  0  0
  -18.1528  -17.3597  -12.8779 C   0  0  1  0  0  0  0  0  0  0  0  0
  -17.2506  -17.8264  -11.8954 O   0  0  0  0  0  0  0  0  0  0  0  0
  -24.4515  -10.9690  -16.2534 C   0  0  2  0  0  0  0  0  0  0  0  0
  -23.7049  -12.1789  -16.0870 O   0  0  0  0  0  0  0  0  0  0  0  0
  -19.8347  -12.8783  -15.6765 C   0  0  2  0  0  0  0  0  0  0  0  0
  -20.6747  -14.0441  -15.6414 O   0  0  0  0  0  0  0  0  0  0  0  0
  -18.9384  -16.1408  -12.2896 C   0  0  0  0  0  0  0  0  0  0  0  0
  -18.0026  -14.9474  -12.1070 O   0  0  0  0  0  0  0  0  0  0  0  0
  -25.2221  -10.5108  -15.0161 C   0  0  0  0  0  0  0  0  0  0  0  0
  -24.2737  -10.2788  -13.9631 O   0  0  0  0  0  0  0  0  0  0  0  0
  -18.9188  -12.8758  -14.3888 C   0  0  1  0  0  0  0  0  0  0  0  0
  -18.1111  -14.0397  -14.4263 O   0  0  0  0  0  0  0  0  0  0  0  0
  -19.1641  -18.5129  -13.0523 C   0  0  0  0  0  0  0  0  0  0  0  0
  -16.2863  -17.9655  -16.2488 C   0  0  0  0  0  0  0  0  0  0  0  0
  1  2  1  1  0  0  0
  1  6  1  0  0  0  0
  1 21  1  0  0  0  0
  3  4  1  1  0  0  0
  3  8  1  0  0  0  0
  3 28  1  0  0  0  0
  5  9  1  0  0  0  0
  5 25  1  0  0  0  0
  5 29  1  6  0  0  0
  6  7  1  6  0  0  0
  6 11  1  0  0  0  0
  8 12  1  0  0  0  0
  9 10  1  6  0  0  0
  9 14  1  0  0  0  0
 11 16  1  0  0  0  0
 12 13  1  1  0  0  0
 12 17  1  0  0  0  0
 14 15  1  1  0  0  0
 14 18  1  0  0  0  0
 15 31  1  0  0  0  0
 16 20  1  0  0  0  0
 17  2  1  6  0  0  0
 17 22  1  0  0  0  0
 18 19  1  1  0  0  0
 18 24  1  0  0  0  0
 18 30  1  0  0  0  0
 20 21  1  0  0  0  0
 20 26  1  6  0  0  0
 22 23  1  1  0  0  0
 22 28  1  0  0  0  0
 24 25  1  0  0  0  0
 26 27  1  0  0  0  0
 28 29  1  6  0  0  0
M  END
>  <CHROM.1>
-173.00869375,-172.63600402,-79.43894905,-169.82224350,-119.64071018,69.46313205
-19.97405024,-13.42521003,-15.09008396,2.52351169,-0.58096683,0.17451696

>  <Name>
ligand

>  <RI>
0

>  <Rbt.Current_Directory>
/home/itssahil/PROJECTS/Mol_Feturizer/New_Systems/rnas/4GPW

>  <Rbt.Executable>
rbdock ($Id: //depot/dev/client3/rdock/2013.1/src/exe/rbdock.cxx#4 $)

>  <Rbt.Library>
libRbt.so (2013.1, Build901 2013/11/27)

>  <Rbt.Parameter_File>
/export/apps/rDock/src/rDock_2013.1_src/data/scripts/dock_solv.prm

>  <Rbt.Receptor>
prm/pocket_docking_5.prm

>  <SCORE>
-16.4942

>  <SCORE.INTER>
-8.93713

>  <SCORE.INTER.CONST>
1

>  <SCORE.INTER.POLAR>
0

>  <SCORE.INTER.ROT>
6

>  <SCORE.INTER.SOLV>
8.70219

>  <SCORE.INTER.VDW>
-16.4588

>  <SCORE.INTER.norm>
-0.288295

>  <SCORE.INTRA>
-7.5571

>  <SCORE.INTRA.DIHEDRAL>
-15.8392

>  <SCORE.INTRA.DIHEDRAL.0>
19.2558

>  <SCORE.INTRA.POLAR>
0

>  <SCORE.INTRA.POLAR.0>
0

>  <SCORE.INTRA.REPUL>
0

>  <SCORE.INTRA.REPUL.0>
0

>  <SCORE.INTRA.SOLV>
-2.12394

>  <SCORE.INTRA.SOLV.lig_0>
-64.5929

>  <SCORE.INTRA.VDW>
1.42448

>  <SCORE.INTRA.VDW.0>
-4.40538

>  <SCORE.INTRA.norm>
-0.243777

>  <SCORE.RESTR>
0

>  <SCORE.RESTR.CAVITY>
0

>  <SCORE.RESTR.norm>
0

>  <SCORE.SYSTEM>
0

>  <SCORE.SYSTEM.CONST>
0

>  <SCORE.SYSTEM.DIHEDRAL>
0

>  <SCORE.SYSTEM.SOLV>
0

>  <SCORE.SYSTEM.norm>
0

>  <SCORE.heavy>
31

>  <SCORE.norm>
-0.532072

>  <RMSD>
8.714

$$$$
ligand
 OpenBabel11021811493D
libRbt.so/2013.1/901 2013/11/27
 31 33  0  0  0  0  0  0  0  0999 V2000
  -20.9421  -10.3528  -16.5936 C   0  0  2  0  0  0  0  0  0  0  0  0
  -19.7189  -10.4226  -15.8756 O   0  0  0  0  0  0  0  0  0  0  0  0
  -18.1154  -13.2296  -13.0964 C   0  0  2  0  0  0  0  0  0  0  0  0
  -17.9468  -13.9742  -11.8904 N   0  0  0  0  0  0  0  0  0  0  0  0
  -18.8539  -15.5826  -15.0366 C   0  0  2  0  0  0  0  0  0  0  0  0
  -20.6454   -9.5673  -17.9380 C   0  0  2  0  0  0  0  0  0  0  0  0
  -19.6122  -10.2839  -18.7000 N   0  0  0  0  0  0  0  0  0  0  0  0
  -17.9791  -11.6822  -12.7544 C   0  0  0  0  0  0  0  0  0  0  0  0
  -19.4469  -17.0274  -15.1319 C   0  0  2  0  0  0  0  0  0  0  0  0
  -20.8236  -16.9165  -15.4062 O   0  0  0  0  0  0  0  0  0  0  0  0
  -20.1812   -8.0941  -17.6050 C   0  0  0  0  0  0  0  0  0  0  0  0
  -18.1606  -10.8489  -14.1024 C   0  0  2  0  0  0  0  0  0  0  0  0
  -18.0320   -9.4054  -13.8074 N   0  0  0  0  0  0  0  0  0  0  0  0
  -19.1901  -17.7908  -13.7664 C   0  0  1  0  0  0  0  0  0  0  0  0
  -19.7580  -19.1847  -13.8377 N   0  0  0  0  0  0  0  0  0  0  0  0
  -21.0001   -7.4578  -16.4063 C   0  0  0  0  0  0  0  0  0  0  0  0
  -19.5957  -11.1475  -14.7027 C   0  0  2  0  0  0  0  0  0  0  0  0
  -17.5873  -17.8862  -13.5031 C   0  0  1  0  0  0  0  0  0  0  0  0
  -16.8996  -18.5992  -14.5111 O   0  0  0  0  0  0  0  0  0  0  0  0
  -21.8027   -8.2186  -15.6279 C   0  0  2  0  0  0  0  0  0  0  0  0
  -21.9642   -9.6259  -15.8341 O   0  0  0  0  0  0  0  0  0  0  0  0
  -19.7211  -12.6942  -15.0188 C   0  0  2  0  0  0  0  0  0  0  0  0
  -21.0286  -12.9596  -15.5534 O   0  0  0  0  0  0  0  0  0  0  0  0
  -17.0053  -16.4350  -13.4385 C   0  0  0  0  0  0  0  0  0  0  0  0
  -17.3755  -15.6604  -14.7020 O   0  0  0  0  0  0  0  0  0  0  0  0
  -22.6084   -7.6400  -14.4656 C   0  0  0  0  0  0  0  0  0  0  0  0
  -22.1891   -8.3015  -13.2620 O   0  0  0  0  0  0  0  0  0  0  0  0
  -19.5414  -13.5242  -13.6862 C   0  0  1  0  0  0  0  0  0  0  0  0
  -19.6469  -14.8995  -14.0119 O   0  0  0  0  0  0  0  0  0  0  0  0
  -17.1915  -18.5952  -12.1902 C   0  0  0  0  0  0  0  0  0  0  0  0
  -20.1443  -19.8029  -12.5531 C   0  0  0  0  0  0  0  0  0  0  0  0
  1  2  1  1  0  0  0
  1  6  1  0  0  0  0
  1 21  1  0  0  0  0
  3  4  1  1  0  0  0
  3  8  1  0  0  0  0
  3 28  1  0  0  0  0
  5  9  1  0  0  0  0
  5 25  1  0  0  0  0
  5 29  1  1  0  0  0
  6  7  1  1  0  0  0
  6 11  1  0  0  0  0
  8 12  1  0  0  0  0
  9 10  1  1  0  0  0
  9 14  1  0  0  0  0
 11 16  1  0  0  0  0
 12 13  1  1  0  0  0
 12 17  1  0  0  0  0
 14 15  1  6  0  0  0
 14 18  1  0  0  0  0
 15 31  1  0  0  0  0
 16 20  1  0  0  0  0
 17  2  1  6  0  0  0
 17 22  1  0  0  0  0
 18 19  1  6  0  0  0
 18 24  1  0  0  0  0
 18 30  1  0  0  0  0
 20 21  1  0  0  0  0
 20 26  1  6  0  0  0
 22 23  1  1  0  0  0
 22 28  1  0  0  0  0
 24 25  1  0  0  0  0
 26 27  1  0  0  0  0
 28 29  1  6  0  0  0
M  END
>  <CHROM.1>
-174.24699092,-173.61418946,-153.91499273,-173.15715740,-120.09355377,-64.38416717
-19.52460947,-13.18165639,-14.67288684,2.01091247,-0.93874727,0.12323437

>  <Name>
ligand

>  <RI>
0

>  <Rbt.Current_Directory>
/home/itssahil/PROJECTS/Mol_Feturizer/New_Systems/rnas/4GPW

>  <Rbt.Executable>
rbdock ($Id: //depot/dev/client3/rdock/2013.1/src/exe/rbdock.cxx#4 $)

>  <Rbt.Library>
libRbt.so (2013.1, Build901 2013/11/27)

>  <Rbt.Parameter_File>
/export/apps/rDock/src/rDock_2013.1_src/data/scripts/dock_solv.prm

>  <Rbt.Receptor>
prm/pocket_docking_5.prm

>  <SCORE>
-10.2294

>  <SCORE.INTER>
-3.19966

>  <SCORE.INTER.CONST>
1

>  <SCORE.INTER.POLAR>
0

>  <SCORE.INTER.ROT>
6

>  <SCORE.INTER.SOLV>
10.4613

>  <SCORE.INTER.VDW>
-13.2202

>  <SCORE.INTER.norm>
-0.103215

>  <SCORE.INTRA>
-7.02973

>  <SCORE.INTRA.DIHEDRAL>
-16.3955

>  <SCORE.INTRA.DIHEDRAL.0>
19.2558

>  <SCORE.INTRA.POLAR>
0

>  <SCORE.INTRA.POLAR.0>
0

>  <SCORE.INTRA.REPUL>
0

>  <SCORE.INTRA.REPUL.0>
0

>  <SCORE.INTRA.SOLV>
-1.31306

>  <SCORE.INTRA.SOLV.lig_0>
-64.5929

>  <SCORE.INTRA.VDW>
1.82455

>  <SCORE.INTRA.VDW.0>
-4.40538

>  <SCORE.INTRA.norm>
-0.226765

>  <SCORE.RESTR>
0

>  <SCORE.RESTR.CAVITY>
0

>  <SCORE.RESTR.norm>
0

>  <SCORE.SYSTEM>
0

>  <SCORE.SYSTEM.CONST>
0

>  <SCORE.SYSTEM.DIHEDRAL>
0

>  <SCORE.SYSTEM.SOLV>
0

>  <SCORE.SYSTEM.norm>
0

>  <SCORE.heavy>
31

>  <SCORE.norm>
-0.32998

>  <RMSD>
8.751

$$$$
ligand
 OpenBabel11021811493D
libRbt.so/2013.1/901 2013/11/27
 31 33  0  0  0  0  0  0  0  0999 V2000
  -24.0061  -17.5525  -15.3966 C   0  0  2  0  0  0  0  0  0  0  0  0
  -23.0318  -17.6834  -16.4213 O   0  0  0  0  0  0  0  0  0  0  0  0
  -18.7861  -17.2975  -16.4374 C   0  0  2  0  0  0  0  0  0  0  0  0
  -17.4957  -16.6897  -16.3846 N   0  0  0  0  0  0  0  0  0  0  0  0
  -18.8863  -17.2046  -12.6166 C   0  0  2  0  0  0  0  0  0  0  0  0
  -25.3455  -18.1976  -15.9463 C   0  0  2  0  0  0  0  0  0  0  0  0
  -25.1016  -19.6081  -16.2825 N   0  0  0  0  0  0  0  0  0  0  0  0
  -19.5973  -16.6502  -17.6428 C   0  0  0  0  0  0  0  0  0  0  0  0
  -17.6227  -17.8217  -11.9306 C   0  0  2  0  0  0  0  0  0  0  0  0
  -16.4862  -17.3904  -12.6414 O   0  0  0  0  0  0  0  0  0  0  0  0
  -25.8457  -17.3942  -17.2116 C   0  0  0  0  0  0  0  0  0  0  0  0
  -21.0373  -17.3333  -17.7073 C   0  0  2  0  0  0  0  0  0  0  0  0
  -21.8073  -16.7487  -18.8266 N   0  0  0  0  0  0  0  0  0  0  0  0
  -17.7419  -19.4025  -11.9369 C   0  0  1  0  0  0  0  0  0  0  0  0
  -16.5308  -20.0157  -11.2828 N   0  0  0  0  0  0  0  0  0  0  0  0
  -25.6548  -15.8291  -17.0491 C   0  0  0  0  0  0  0  0  0  0  0  0
  -21.7937  -17.0694  -16.3408 C   0  0  2  0  0  0  0  0  0  0  0  0
  -19.0700  -19.8396  -11.1049 C   0  0  1  0  0  0  0  0  0  0  0  0
  -19.0374  -19.4329   -9.7518 O   0  0  0  0  0  0  0  0  0  0  0  0
  -24.9084  -15.3177  -16.0440 C   0  0  2  0  0  0  0  0  0  0  0  0
  -24.2542  -16.1436  -15.0751 O   0  0  0  0  0  0  0  0  0  0  0  0
  -20.9633  -17.7027  -15.1504 C   0  0  2  0  0  0  0  0  0  0  0  0
  -21.6498  -17.4509  -13.9130 O   0  0  0  0  0  0  0  0  0  0  0  0
  -20.3211  -19.1921  -11.7865 C   0  0  0  0  0  0  0  0  0  0  0  0
  -20.1373  -17.6800  -11.9005 O   0  0  0  0  0  0  0  0  0  0  0  0
  -24.7040  -13.8153  -15.8548 C   0  0  0  0  0  0  0  0  0  0  0  0
  -25.2403  -13.4523  -14.5730 O   0  0  0  0  0  0  0  0  0  0  0  0
  -19.5352  -17.0295  -15.0827 C   0  0  1  0  0  0  0  0  0  0  0  0
  -18.8204  -17.6304  -14.0166 O   0  0  0  0  0  0  0  0  0  0  0  0
  -19.3201  -21.3617  -11.0445 C   0  0  0  0  0  0  0  0  0  0  0  0
  -16.0417  -21.2828  -11.8632 C   0  0  0  0  0  0  0  0  0  0  0  0
  1  2  1  6  0  0  0
  1  6  1  0  0  0  0
  1 21  1  0  0  0  0
  3  4  1  1  0  0  0
  3  8  1  0  0  0  0
  3 28  1  0  0  0  0
  5  9  1  0  0  0  0
  5 25  1  0  0  0  0
  5 29  1  6  0  0  0
  6  7  1  6  0  0  0
  6 11  1  0  0  0  0
  8 12  1  0  0  0  0
  9 10  1  6  0  0  0
  9 14  1  0  0  0  0
 11 16  1  0  0  0  0
 12 13  1  6  0  0  0
 12 17  1  0  0  0  0
 14 15  1  1  0  0  0
 14 18  1  0  0  0  0
 15 31  1  0  0  0  0
 16 20  1  0  0  0  0
 17  2  1  6  0  0  0
 17 22  1  0  0  0  0
 18 19  1  1  0  0  0
 18 24  1  0  0  0  0
 18 30  1  0  0  0  0
 20 21  1  0  0  0  0
 20 26  1  1  0  0  0
 22 23  1  1  0  0  0
 22 28  1  0  0  0  0
 24 25  1  0  0  0  0
 26 27  1  0  0  0  0
 28 29  1  1  0  0  0
M  END
>  <CHROM.1>
171.40323532,-161.96697571,-143.85945131,-175.08412514,118.82936527,155.55694311
-20.99035842,-17.64455120,-14.44604881,2.45452023,0.09796658,-1.10687484

>  <Name>
ligand

>  <RI>
0

>  <Rbt.Current_Directory>
/home/itssahil/PROJECTS/Mol_Feturizer/New_Systems/rnas/4GPW

>  <Rbt.Executable>
rbdock ($Id: //depot/dev/client3/rdock/2013.1/src/exe/rbdock.cxx#4 $)

>  <Rbt.Library>
libRbt.so (2013.1, Build901 2013/11/27)

>  <Rbt.Parameter_File>
/export/apps/rDock/src/rDock_2013.1_src/data/scripts/dock_solv.prm

>  <Rbt.Receptor>
prm/pocket_docking_5.prm

>  <SCORE>
-13.7359

>  <SCORE.INTER>
-7.65279

>  <SCORE.INTER.CONST>
1

>  <SCORE.INTER.POLAR>
0

>  <SCORE.INTER.ROT>
6

>  <SCORE.INTER.SOLV>
16.7003

>  <SCORE.INTER.VDW>
-18.2686

>  <SCORE.INTER.norm>
-0.246864

>  <SCORE.INTRA>
-6.08315

>  <SCORE.INTRA.DIHEDRAL>
-12.2398

>  <SCORE.INTRA.DIHEDRAL.0>
19.2558

>  <SCORE.INTRA.POLAR>
0

>  <SCORE.INTRA.POLAR.0>
0

>  <SCORE.INTRA.REPUL>
0

>  <SCORE.INTRA.REPUL.0>
0

>  <SCORE.INTRA.SOLV>
-3.11787

>  <SCORE.INTRA.SOLV.lig_0>
-64.5929

>  <SCORE.INTRA.VDW>
1.59571

>  <SCORE.INTRA.VDW.0>
-4.40538

>  <SCORE.INTRA.norm>
-0.196231

>  <SCORE.RESTR>
0

>  <SCORE.RESTR.CAVITY>
0

>  <SCORE.RESTR.norm>
0

>  <SCORE.SYSTEM>
0

>  <SCORE.SYSTEM.CONST>
0

>  <SCORE.SYSTEM.DIHEDRAL>
0

>  <SCORE.SYSTEM.SOLV>
0

>  <SCORE.SYSTEM.norm>
0

>  <SCORE.heavy>
31

>  <SCORE.norm>
-0.443095

>  <RMSD>
8.756

$$$$
ligand
 OpenBabel11021811493D
libRbt.so/2013.1/901 2013/11/27
 31 33  0  0  0  0  0  0  0  0999 V2000
  -22.4803  -12.5577  -17.3385 C   0  0  2  0  0  0  0  0  0  0  0  0
  -21.4188  -11.6393  -17.1234 O   0  0  0  0  0  0  0  0  0  0  0  0
  -17.9384  -11.6280  -14.6614 C   0  0  2  0  0  0  0  0  0  0  0  0
  -17.1286  -11.6147  -13.4861 N   0  0  0  0  0  0  0  0  0  0  0  0
  -17.0854  -14.4825  -13.6243 C   0  0  2  0  0  0  0  0  0  0  0  0
  -23.0290  -12.2963  -18.8024 C   0  0  2  0  0  0  0  0  0  0  0  0
  -21.9399  -12.4934  -19.7704 N   0  0  0  0  0  0  0  0  0  0  0  0
  -18.8642  -10.3347  -14.6481 C   0  0  0  0  0  0  0  0  0  0  0  0
  -16.2521  -15.6674  -14.2157 C   0  0  2  0  0  0  0  0  0  0  0  0
  -15.6333  -15.2180  -15.3980 O   0  0  0  0  0  0  0  0  0  0  0  0
  -23.6131  -10.8314  -18.9006 C   0  0  0  0  0  0  0  0  0  0  0  0
  -19.7651  -10.3446  -15.9643 C   0  0  2  0  0  0  0  0  0  0  0  0
  -20.6312   -9.1458  -15.9746 N   0  0  0  0  0  0  0  0  0  0  0  0
  -17.2142  -16.8953  -14.4986 C   0  0  1  0  0  0  0  0  0  0  0  0
  -16.4294  -18.0465  -15.0725 N   0  0  0  0  0  0  0  0  0  0  0  0
  -24.4151  -10.4112  -17.5996 C   0  0  0  0  0  0  0  0  0  0  0  0
  -20.6595  -11.6519  -15.9659 C   0  0  2  0  0  0  0  0  0  0  0  0
  -17.8993  -17.3680  -13.1005 C   0  0  1  0  0  0  0  0  0  0  0  0
  -16.9582  -17.7938  -12.1360 O   0  0  0  0  0  0  0  0  0  0  0  0
  -24.3509  -11.1524  -16.4704 C   0  0  2  0  0  0  0  0  0  0  0  0
  -23.5686  -12.3476  -16.3785 O   0  0  0  0  0  0  0  0  0  0  0  0
  -19.7228  -12.9288  -15.9593 C   0  0  2  0  0  0  0  0  0  0  0  0
  -20.5404  -14.1108  -15.9505 O   0  0  0  0  0  0  0  0  0  0  0  0
  -18.7052  -16.1644  -12.5082 C   0  0  0  0  0  0  0  0  0  0  0  0
  -17.8009  -14.9414  -12.3668 O   0  0  0  0  0  0  0  0  0  0  0  0
  -25.1115  -10.7797  -15.1985 C   0  0  0  0  0  0  0  0  0  0  0  0
  -26.0019  -11.8607  -14.8809 O   0  0  0  0  0  0  0  0  0  0  0  0
  -18.8276  -12.9232  -14.6571 C   0  0  1  0  0  0  0  0  0  0  0  0
  -17.9969  -14.0709  -14.6945 O   0  0  0  0  0  0  0  0  0  0  0  0
  -18.8800  -18.5528  -13.2322 C   0  0  0  0  0  0  0  0  0  0  0  0
  -16.1782  -18.0094  -16.5276 C   0  0  0  0  0  0  0  0  0  0  0  0
  1  2  1  1  0  0  0
  1  6  1  0  0  0  0
  1 21  1  0  0  0  0
  3  4  1  1  0  0  0
  3  8  1  0  0  0  0
  3 28  1  0  0  0  0
  5  9  1  0  0  0  0
  5 25  1  0  0  0  0
  5 29  1  6  0  0  0
  6  7  1  6  0  0  0
  6 11  1  0  0  0  0
  8 12  1  0  0  0  0
  9 10  1  6  0  0  0
  9 14  1  0  0  0  0
 11 16  1  0  0  0  0
 12 13  1  1  0  0  0
 12 17  1  0  0  0  0
 14 15  1  1  0  0  0
 14 18  1  0  0  0  0
 15 31  1  0  0  0  0
 16 20  1  0  0  0  0
 17  2  1  6  0  0  0
 17 22  1  0  0  0  0
 18 19  1  1  0  0  0
 18 24  1  0  0  0  0
 18 30  1  0  0  0  0
 20 21  1  0  0  0  0
 20 26  1  6  0  0  0
 22 23  1  1  0  0  0
 22 28  1  0  0  0  0
 24 25  1  0  0  0  0
 26 27  1  0  0  0  0
 28 29  1  6  0  0  0
M  END
>  <CHROM.1>
-175.97623790,-171.95320450,-83.19304427,-169.90709542,120.06295967,66.24804228
-19.90976448,-13.52831018,-15.37314368,2.44134466,-0.36087903,-0.12029369

>  <Name>
ligand

>  <RI>
0

>  <Rbt.Current_Directory>
/home/itssahil/PROJECTS/Mol_Feturizer/New_Systems/rnas/4GPW

>  <Rbt.Executable>
rbdock ($Id: //depot/dev/client3/rdock/2013.1/src/exe/rbdock.cxx#4 $)

>  <Rbt.Library>
libRbt.so (2013.1, Build901 2013/11/27)

>  <Rbt.Parameter_File>
/export/apps/rDock/src/rDock_2013.1_src/data/scripts/dock_solv.prm

>  <Rbt.Receptor>
prm/pocket_docking_5.prm

>  <SCORE>
-16.2029

>  <SCORE.INTER>
-8.52729

>  <SCORE.INTER.CONST>
1

>  <SCORE.INTER.POLAR>
0

>  <SCORE.INTER.ROT>
6

>  <SCORE.INTER.SOLV>
10.3032

>  <SCORE.INTER.VDW>
-16.7193

>  <SCORE.INTER.norm>
-0.275074

>  <SCORE.INTRA>
-7.67565

>  <SCORE.INTRA.DIHEDRAL>
-16.0912

>  <SCORE.INTRA.DIHEDRAL.0>
19.2558

>  <SCORE.INTRA.POLAR>
0

>  <SCORE.INTRA.POLAR.0>
0

>  <SCORE.INTRA.REPUL>
0

>  <SCORE.INTRA.REPUL.0>
0

>  <SCORE.INTRA.SOLV>
-2.2823

>  <SCORE.INTRA.SOLV.lig_0>
-64.5929

>  <SCORE.INTRA.VDW>
1.51113

>  <SCORE.INTRA.VDW.0>
-4.40538

>  <SCORE.INTRA.norm>
-0.247601

>  <SCORE.RESTR>
0

>  <SCORE.RESTR.CAVITY>
0

>  <SCORE.RESTR.norm>
0

>  <SCORE.SYSTEM>
0

>  <SCORE.SYSTEM.CONST>
0

>  <SCORE.SYSTEM.DIHEDRAL>
0

>  <SCORE.SYSTEM.SOLV>
0

>  <SCORE.SYSTEM.norm>
0

>  <SCORE.heavy>
31

>  <SCORE.norm>
-0.522675

>  <RMSD>
8.757

$$$$
ligand
 OpenBabel11021811493D
libRbt.so/2013.1/901 2013/11/27
 31 33  0  0  0  0  0  0  0  0999 V2000
  -24.8852  -13.8721  -15.5805 C   0  0  2  0  0  0  0  0  0  0  0  0
  -23.4695  -13.9016  -15.4733 O   0  0  0  0  0  0  0  0  0  0  0  0
  -20.3364  -15.0379  -12.8149 C   0  0  2  0  0  0  0  0  0  0  0  0
  -19.6405  -15.2920  -11.5949 N   0  0  0  0  0  0  0  0  0  0  0  0
  -20.0092  -17.8398  -13.5894 C   0  0  2  0  0  0  0  0  0  0  0  0
  -25.2322  -13.8694  -17.1271 C   0  0  2  0  0  0  0  0  0  0  0  0
  -24.6684  -15.0747  -17.7523 N   0  0  0  0  0  0  0  0  0  0  0  0
  -20.7835  -13.5116  -12.8297 C   0  0  0  0  0  0  0  0  0  0  0  0
  -20.1828  -19.3945  -13.6172 C   0  0  2  0  0  0  0  0  0  0  0  0
  -21.4155  -19.6848  -14.2328 O   0  0  0  0  0  0  0  0  0  0  0  0
  -24.6566  -12.5617  -17.8017 C   0  0  0  0  0  0  0  0  0  0  0  0
  -21.5555  -13.2243  -14.1956 C   0  0  2  0  0  0  0  0  0  0  0  0
  -21.9760  -11.8069  -14.2323 N   0  0  0  0  0  0  0  0  0  0  0  0
  -20.1318  -19.9545  -12.1350 C   0  0  1  0  0  0  0  0  0  0  0  0
  -20.3009  -21.4518  -12.1411 N   0  0  0  0  0  0  0  0  0  0  0  0
  -24.8304  -11.2807  -16.8845 C   0  0  0  0  0  0  0  0  0  0  0  0
  -22.8287  -14.1634  -14.2744 C   0  0  2  0  0  0  0  0  0  0  0  0
  -18.6894  -19.5886  -11.4769 C   0  0  1  0  0  0  0  0  0  0  0  0
  -17.5998  -20.1598  -12.1724 O   0  0  0  0  0  0  0  0  0  0  0  0
  -25.1922  -11.3955  -15.5866 C   0  0  2  0  0  0  0  0  0  0  0  0
  -25.4403  -12.6617  -14.9667 O   0  0  0  0  0  0  0  0  0  0  0  0
  -22.3671  -15.6778  -14.2388 C   0  0  2  0  0  0  0  0  0  0  0  0
  -23.5273  -16.5239  -14.3003 O   0  0  0  0  0  0  0  0  0  0  0  0
  -18.5193  -18.0329  -11.4821 C   0  0  0  0  0  0  0  0  0  0  0  0
  -18.7064  -17.4856  -12.8959 O   0  0  0  0  0  0  0  0  0  0  0  0
  -25.3714  -10.1837  -14.6733 C   0  0  0  0  0  0  0  0  0  0  0  0
  -24.5910  -10.4020  -13.4878 O   0  0  0  0  0  0  0  0  0  0  0  0
  -21.6010  -15.9672  -12.8873 C   0  0  1  0  0  0  0  0  0  0  0  0
  -21.1941  -17.3247  -12.8992 O   0  0  0  0  0  0  0  0  0  0  0  0
  -18.5079  -20.0624  -10.0190 C   0  0  0  0  0  0  0  0  0  0  0  0
  -20.7929  -22.0623  -10.8892 C   0  0  0  0  0  0  0  0  0  0  0  0
  1  2  1  6  0  0  0
  1  6  1  0  0  0  0
  1 21  1  0  0  0  0
  3  4  1  1  0  0  0
  3  8  1  0  0  0  0
  3 28  1  0  0  0  0
  5  9  1  0  0  0  0
  5 25  1  0  0  0  0
  5 29  1  1  0  0  0
  6  7  1  6  0  0  0
  6 11  1  0  0  0  0
  8 12  1  0  0  0  0
  9 10  1  1  0  0  0
  9 14  1  0  0  0  0
 11 16  1  0  0  0  0
 12 13  1  1  0  0  0
 12 17  1  0  0  0  0
 14 15  1  6  0  0  0
 14 18  1  0  0  0  0
 15 31  1  0  0  0  0
 16 20  1  0  0  0  0
 17  2  1  6  0  0  0
 17 22  1  0  0  0  0
 18 19  1  6  0  0  0
 18 24  1  0  0  0  0
 18 30  1  0  0  0  0
 20 21  1  0  0  0  0
 20 26  1  6  0  0  0
 22 23  1  1  0  0  0
 22 28  1  0  0  0  0
 24 25  1  0  0  0  0
 26 27  1  0  0  0  0
 28 29  1  6  0  0  0
M  END
>  <CHROM.1>
-167.60539182,-166.11709935,-157.10183023,-141.48432167,-127.99539562,-37.31969374
-21.90323448,-15.81119267,-13.80010646,2.36167917,-0.74696480,0.14541668

>  <Name>
ligand

>  <RI>
0

>  <Rbt.Current_Directory>
/home/itssahil/PROJECTS/Mol_Feturizer/New_Systems/rnas/4GPW

>  <Rbt.Executable>
rbdock ($Id: //depot/dev/client3/rdock/2013.1/src/exe/rbdock.cxx#4 $)

>  <Rbt.Library>
libRbt.so (2013.1, Build901 2013/11/27)

>  <Rbt.Parameter_File>
/export/apps/rDock/src/rDock_2013.1_src/data/scripts/dock_solv.prm

>  <Rbt.Receptor>
prm/pocket_docking_3.prm

>  <SCORE>
-12.7699

>  <SCORE.INTER>
-11.6169

>  <SCORE.INTER.CONST>
1

>  <SCORE.INTER.POLAR>
0

>  <SCORE.INTER.ROT>
6

>  <SCORE.INTER.SOLV>
15.3975

>  <SCORE.INTER.VDW>
-20.4771

>  <SCORE.INTER.norm>
-0.374738

>  <SCORE.INTRA>
-1.1805

>  <SCORE.INTRA.DIHEDRAL>
-8.05698

>  <SCORE.INTRA.DIHEDRAL.0>
19.2558

>  <SCORE.INTRA.POLAR>
0

>  <SCORE.INTRA.POLAR.0>
0

>  <SCORE.INTRA.REPUL>
0

>  <SCORE.INTRA.REPUL.0>
0

>  <SCORE.INTRA.SOLV>
2.15409

>  <SCORE.INTRA.SOLV.lig_0>
-64.5929

>  <SCORE.INTRA.VDW>
1.77094

>  <SCORE.INTRA.VDW.0>
-4.40538

>  <SCORE.INTRA.norm>
-0.0380807

>  <SCORE.RESTR>
0.0274893

>  <SCORE.RESTR.CAVITY>
0.0274893

>  <SCORE.RESTR.norm>
0.000886752

>  <SCORE.SYSTEM>
0

>  <SCORE.SYSTEM.CONST>
0

>  <SCORE.SYSTEM.DIHEDRAL>
0

>  <SCORE.SYSTEM.SOLV>
0

>  <SCORE.SYSTEM.norm>
0

>  <SCORE.heavy>
31

>  <SCORE.norm>
-0.411932

>  <RMSD>
8.759

$$$$
ligand
 OpenBabel11021811493D
libRbt.so/2013.1/901 2013/11/27
 31 33  0  0  0  0  0  0  0  0999 V2000
  -22.6336  -12.4839  -17.0284 C   0  0  2  0  0  0  0  0  0  0  0  0
  -21.5382  -11.6016  -16.8328 O   0  0  0  0  0  0  0  0  0  0  0  0
  -18.0498  -11.6150  -14.3821 C   0  0  2  0  0  0  0  0  0  0  0  0
  -17.2362  -11.6101  -13.2095 N   0  0  0  0  0  0  0  0  0  0  0  0
  -17.2375  -14.5012  -13.3425 C   0  0  2  0  0  0  0  0  0  0  0  0
  -23.1506  -12.2585  -18.5097 C   0  0  2  0  0  0  0  0  0  0  0  0
  -22.0573  -12.5379  -19.4523 N   0  0  0  0  0  0  0  0  0  0  0  0
  -18.9703  -10.3180  -14.3603 C   0  0  0  0  0  0  0  0  0  0  0  0
  -16.4302  -15.7077  -13.9264 C   0  0  2  0  0  0  0  0  0  0  0  0
  -15.7789  -15.2714  -15.0961 O   0  0  0  0  0  0  0  0  0  0  0  0
  -23.6725  -10.7762  -18.6740 C   0  0  0  0  0  0  0  0  0  0  0  0
  -19.8754  -10.3186  -15.6737 C   0  0  2  0  0  0  0  0  0  0  0  0
  -20.7366   -9.1162  -15.6761 N   0  0  0  0  0  0  0  0  0  0  0  0
  -17.4236  -16.9049  -14.2313 C   0  0  1  0  0  0  0  0  0  0  0  0
  -16.6641  -18.0763  -14.7983 N   0  0  0  0  0  0  0  0  0  0  0  0
  -24.4744  -10.2725  -17.4029 C   0  0  0  0  0  0  0  0  0  0  0  0
  -20.7752  -11.6223  -15.6779 C   0  0  2  0  0  0  0  0  0  0  0  0
  -18.1455  -17.3635  -12.8471 C   0  0  1  0  0  0  0  0  0  0  0  0
  -17.2335  -17.8217  -11.8696 O   0  0  0  0  0  0  0  0  0  0  0  0
  -24.4565  -10.9705  -16.2448 C   0  0  2  0  0  0  0  0  0  0  0  0
  -23.7254  -12.1919  -16.0943 O   0  0  0  0  0  0  0  0  0  0  0  0
  -19.8438  -12.9029  -15.6797 C   0  0  2  0  0  0  0  0  0  0  0  0
  -20.6662  -14.0817  -15.6733 O   0  0  0  0  0  0  0  0  0  0  0  0
  -18.9249  -16.1391  -12.2618 C   0  0  0  0  0  0  0  0  0  0  0  0
  -17.9870  -14.9444  -12.0993 O   0  0  0  0  0  0  0  0  0  0  0  0
  -25.2187  -10.5171  -15.0004 C   0  0  0  0  0  0  0  0  0  0  0  0
  -25.2774   -9.0824  -15.0140 O   0  0  0  0  0  0  0  0  0  0  0  0
  -18.9443  -12.9066  -14.3805 C   0  0  1  0  0  0  0  0  0  0  0  0
  -18.1185  -14.0575  -14.4254 O   0  0  0  0  0  0  0  0  0  0  0  0
  -19.1588  -18.5179  -13.0010 C   0  0  0  0  0  0  0  0  0  0  0  0
  -16.3323  -18.0100  -16.2361 C   0  0  0  0  0  0  0  0  0  0  0  0
  1  2  1  1  0  0  0
  1  6  1  0  0  0  0
  1 21  1  0  0  0  0
  3  4  1  1  0  0  0
  3  8  1  0  0  0  0
  3 28  1  0  0  0  0
  5  9  1  0  0  0  0
  5 25  1  0  0  0  0
  5 29  1  6  0  0  0
  6  7  1  6  0  0  0
  6 11  1  0  0  0  0
  8 12  1  0  0  0  0
  9 10  1  6  0  0  0
  9 14  1  0  0  0  0
 11 16  1  0  0  0  0
 12 13  1  1  0  0  0
 12 17  1  0  0  0  0
 14 15  1  1  0  0  0
 14 18  1  0  0  0  0
 15 31  1  0  0  0  0
 16 20  1  0  0  0  0
 17  2  1  6  0  0  0
 17 22  1  0  0  0  0
 18 19  1  1  0  0  0
 18 24  1  0  0  0  0
 18 30  1  0  0  0  0
 20 21  1  0  0  0  0
 20 26  1  6  0  0  0
 22 23  1  1  0  0  0
 22 28  1  0  0  0  0
 24 25  1  0  0  0  0
 26 27  1  0  0  0  0
 28 29  1  6  0  0  0
M  END
>  <CHROM.1>
-174.31381888,-173.87587442,-80.40198499,-167.66785813,-30.54796743,68.33015226
-20.02601091,-13.39575277,-15.11655242,2.53689546,-0.59216316,0.20287964

>  <Name>
ligand

>  <RI>
0

>  <Rbt.Current_Directory>
/home/itssahil/PROJECTS/Mol_Feturizer/New_Systems/rnas/4GPW

>  <Rbt.Executable>
rbdock ($Id: //depot/dev/client3/rdock/2013.1/src/exe/rbdock.cxx#4 $)

>  <Rbt.Library>
libRbt.so (2013.1, Build901 2013/11/27)

>  <Rbt.Parameter_File>
/export/apps/rDock/src/rDock_2013.1_src/data/scripts/dock_solv.prm

>  <Rbt.Receptor>
prm/pocket_docking_7.prm

>  <SCORE>
-15.9699

>  <SCORE.INTER>
-9.56806

>  <SCORE.INTER.CONST>
1

>  <SCORE.INTER.POLAR>
0

>  <SCORE.INTER.ROT>
6

>  <SCORE.INTER.SOLV>
10.185

>  <SCORE.INTER.VDW>
-17.3737

>  <SCORE.INTER.norm>
-0.308647

>  <SCORE.INTRA>
-6.40187

>  <SCORE.INTRA.DIHEDRAL>
-14.8558

>  <SCORE.INTRA.DIHEDRAL.0>
19.2558

>  <SCORE.INTRA.POLAR>
0

>  <SCORE.INTRA.POLAR.0>
0

>  <SCORE.INTRA.REPUL>
0

>  <SCORE.INTRA.REPUL.0>
0

>  <SCORE.INTRA.SOLV>
-2.23999

>  <SCORE.INTRA.SOLV.lig_0>
-64.5929

>  <SCORE.INTRA.VDW>
2.14601

>  <SCORE.INTRA.VDW.0>
-4.40538

>  <SCORE.INTRA.norm>
-0.206512

>  <SCORE.RESTR>
0

>  <SCORE.RESTR.CAVITY>
0

>  <SCORE.RESTR.norm>
0

>  <SCORE.SYSTEM>
0

>  <SCORE.SYSTEM.CONST>
0

>  <SCORE.SYSTEM.DIHEDRAL>
0

>  <SCORE.SYSTEM.SOLV>
0

>  <SCORE.SYSTEM.norm>
0

>  <SCORE.heavy>
31

>  <SCORE.norm>
-0.515159

>  <RMSD>
8.784

$$$$
ligand
 OpenBabel11021811493D
libRbt.so/2013.1/901 2013/11/27
 31 33  0  0  0  0  0  0  0  0999 V2000
  -21.5066  -22.3931   -9.7070 C   0  0  2  0  0  0  0  0  0  0  0  0
  -20.1594  -22.1339   -9.3405 O   0  0  0  0  0  0  0  0  0  0  0  0
  -16.4755  -20.5937  -10.8341 C   0  0  2  0  0  0  0  0  0  0  0  0
  -15.4656  -20.2016  -11.7636 N   0  0  0  0  0  0  0  0  0  0  0  0
  -17.5659  -17.3491  -11.9368 C   0  0  2  0  0  0  0  0  0  0  0  0
  -22.0919  -23.4028   -8.6344 C   0  0  2  0  0  0  0  0  0  0  0  0
  -22.0031  -22.7956   -7.2983 N   0  0  0  0  0  0  0  0  0  0  0  0
  -16.7727  -22.1427  -11.0391 C   0  0  0  0  0  0  0  0  0  0  0  0
  -19.0032  -16.7374  -11.8451 C   0  0  2  0  0  0  0  0  0  0  0  0
  -19.1999  -16.2816  -10.5274 O   0  0  0  0  0  0  0  0  0  0  0  0
  -21.2923  -24.7644   -8.6900 C   0  0  0  0  0  0  0  0  0  0  0  0
  -17.8963  -22.5840   -9.9965 C   0  0  2  0  0  0  0  0  0  0  0  0
  -18.1844  -24.0246  -10.1667 N   0  0  0  0  0  0  0  0  0  0  0  0
  -20.0695  -17.8424  -12.2389 C   0  0  1  0  0  0  0  0  0  0  0  0
  -21.4617  -17.2723  -12.1530 N   0  0  0  0  0  0  0  0  0  0  0  0
  -20.9426  -25.2008  -10.1731 C   0  0  0  0  0  0  0  0  0  0  0  0
  -19.2089  -21.7394  -10.2664 C   0  0  2  0  0  0  0  0  0  0  0  0
  -19.7917  -18.3301  -13.7661 C   0  0  1  0  0  0  0  0  0  0  0  0
  -19.9081  -17.2873  -14.7128 O   0  0  0  0  0  0  0  0  0  0  0  0
  -21.1001  -24.3448  -11.2080 C   0  0  2  0  0  0  0  0  0  0  0  0
  -21.5877  -23.0102  -11.0345 O   0  0  0  0  0  0  0  0  0  0  0  0
  -18.8906  -20.1997  -10.0774 C   0  0  2  0  0  0  0  0  0  0  0  0
  -20.0827  -19.4388  -10.3335 O   0  0  0  0  0  0  0  0  0  0  0  0
  -18.3417  -18.9130  -13.8474 C   0  0  0  0  0  0  0  0  0  0  0  0
  -17.3308  -17.8883  -13.3360 O   0  0  0  0  0  0  0  0  0  0  0  0
  -20.7756  -24.7309  -12.6504 C   0  0  0  0  0  0  0  0  0  0  0  0
  -19.9063  -23.7255  -13.1943 O   0  0  0  0  0  0  0  0  0  0  0  0
  -17.7772  -19.7577  -11.1080 C   0  0  1  0  0  0  0  0  0  0  0  0
  -17.5116  -18.3813  -10.8990 O   0  0  0  0  0  0  0  0  0  0  0  0
  -20.7526  -19.4248  -14.2774 C   0  0  0  0  0  0  0  0  0  0  0  0
  -21.7153  -16.0392  -12.9255 C   0  0  0  0  0  0  0  0  0  0  0  0
  1  2  1  1  0  0  0
  1  6  1  0  0  0  0
  1 21  1  0  0  0  0
  3  4  1  6  0  0  0
  3  8  1  0  0  0  0
  3 28  1  0  0  0  0
  5  9  1  0  0  0  0
  5 25  1  0  0  0  0
  5 29  1  1  0  0  0
  6  7  1  1  0  0  0
  6 11  1  0  0  0  0
  8 12  1  0  0  0  0
  9 10  1  1  0  0  0
  9 14  1  0  0  0  0
 11 16  1  0  0  0  0
 12 13  1  6  0  0  0
 12 17  1  0  0  0  0
 14 15  1  6  0  0  0
 14 18  1  0  0  0  0
 15 31  1  0  0  0  0
 16 20  1  0  0  0  0
 17  2  1  1  0  0  0
 17 22  1  0  0  0  0
 18 19  1  6  0  0  0
 18 24  1  0  0  0  0
 18 30  1  0  0  0  0
 20 21  1  0  0  0  0
 20 26  1  6  0  0  0
 22 23  1  6  0  0  0
 22 28  1  0  0  0  0
 24 25  1  0  0  0  0
 26 27  1  0  0  0  0
 28 29  1  1  0  0  0
M  END
>  <CHROM.1>
154.67798154,94.54956826,54.42602692,-135.09070245,-128.23456922,115.86433149
-19.52060571,-20.57707181,-11.31739751,1.79321354,-0.01683263,2.74744493

>  <Name>
ligand

>  <RI>
0

>  <Rbt.Current_Directory>
/home/itssahil/PROJECTS/Mol_Feturizer/New_Systems/rnas/4GPW

>  <Rbt.Executable>
rbdock ($Id: //depot/dev/client3/rdock/2013.1/src/exe/rbdock.cxx#4 $)

>  <Rbt.Library>
libRbt.so (2013.1, Build901 2013/11/27)

>  <Rbt.Parameter_File>
/export/apps/rDock/src/rDock_2013.1_src/data/scripts/dock_solv.prm

>  <Rbt.Receptor>
prm/blind_docking_100.prm

>  <SCORE>
33.8636

>  <SCORE.INTER>
8.29144

>  <SCORE.INTER.CONST>
1

>  <SCORE.INTER.POLAR>
0

>  <SCORE.INTER.ROT>
6

>  <SCORE.INTER.SOLV>
25.7542

>  <SCORE.INTER.VDW>
-10.6571

>  <SCORE.INTER.norm>
0.267466

>  <SCORE.INTRA>
7.02568

>  <SCORE.INTRA.DIHEDRAL>
2.9523

>  <SCORE.INTRA.DIHEDRAL.0>
19.2558

>  <SCORE.INTRA.POLAR>
0

>  <SCORE.INTRA.POLAR.0>
0

>  <SCORE.INTRA.REPUL>
0

>  <SCORE.INTRA.REPUL.0>
0

>  <SCORE.INTRA.SOLV>
3.63871

>  <SCORE.INTRA.SOLV.lig_0>
-64.5929

>  <SCORE.INTRA.VDW>
3.73017

>  <SCORE.INTRA.VDW.0>
-4.40538

>  <SCORE.INTRA.norm>
0.226635

>  <SCORE.RESTR>
18.5465

>  <SCORE.RESTR.CAVITY>
18.5465

>  <SCORE.RESTR.norm>
0.598273

>  <SCORE.SYSTEM>
0

>  <SCORE.SYSTEM.CONST>
0

>  <SCORE.SYSTEM.DIHEDRAL>
0

>  <SCORE.SYSTEM.SOLV>
0

>  <SCORE.SYSTEM.norm>
0

>  <SCORE.heavy>
31

>  <SCORE.norm>
1.09237

>  <RMSD>
8.806

$$$$
ligand
 OpenBabel11021811493D
libRbt.so/2013.1/901 2013/11/27
 31 33  0  0  0  0  0  0  0  0999 V2000
  -22.8019  -12.9246  -19.7997 C   0  0  2  0  0  0  0  0  0  0  0  0
  -22.5610  -14.2262  -19.2854 O   0  0  0  0  0  0  0  0  0  0  0  0
  -20.5295  -13.2863  -15.6571 C   0  0  2  0  0  0  0  0  0  0  0  0
  -19.9274  -13.4605  -14.3748 N   0  0  0  0  0  0  0  0  0  0  0  0
  -17.4935  -13.6411  -15.6752 C   0  0  2  0  0  0  0  0  0  0  0  0
  -23.5870  -13.1045  -21.1649 C   0  0  2  0  0  0  0  0  0  0  0  0
  -24.8428  -13.8255  -20.9103 N   0  0  0  0  0  0  0  0  0  0  0  0
  -22.0516  -13.7383  -15.5628 C   0  0  0  0  0  0  0  0  0  0  0  0
  -16.1198  -13.2302  -16.3017 C   0  0  2  0  0  0  0  0  0  0  0  0
  -16.3147  -12.0495  -17.0437 O   0  0  0  0  0  0  0  0  0  0  0  0
  -22.6863  -13.8878  -22.2002 C   0  0  0  0  0  0  0  0  0  0  0  0
  -22.7278  -13.5378  -16.9935 C   0  0  2  0  0  0  0  0  0  0  0  0
  -24.1472  -13.9478  -16.9266 N   0  0  0  0  0  0  0  0  0  0  0  0
  -15.5891  -14.4082  -17.2203 C   0  0  1  0  0  0  0  0  0  0  0  0
  -14.2671  -14.0292  -17.8361 N   0  0  0  0  0  0  0  0  0  0  0  0
  -21.1669  -13.4404  -22.1406 C   0  0  0  0  0  0  0  0  0  0  0  0
  -21.9616  -14.4304  -18.0544 C   0  0  2  0  0  0  0  0  0  0  0  0
  -15.3852  -15.7420  -16.3109 C   0  0  1  0  0  0  0  0  0  0  0  0
  -14.4410  -15.5689  -15.2737 O   0  0  0  0  0  0  0  0  0  0  0  0
  -20.7051  -12.6711  -21.1288 C   0  0  2  0  0  0  0  0  0  0  0  0
  -21.5459  -12.2158  -20.0636 O   0  0  0  0  0  0  0  0  0  0  0  0
  -20.4447  -13.9806  -18.1212 C   0  0  2  0  0  0  0  0  0  0  0  0
  -19.7535  -14.8009  -19.0777 O   0  0  0  0  0  0  0  0  0  0  0  0
  -16.7608  -16.1232  -15.6695 C   0  0  0  0  0  0  0  0  0  0  0  0
  -17.3317  -14.9347  -14.8981 O   0  0  0  0  0  0  0  0  0  0  0  0
  -19.2482  -12.2189  -21.0394 C   0  0  0  0  0  0  0  0  0  0  0  0
  -19.2219  -10.7859  -21.1288 O   0  0  0  0  0  0  0  0  0  0  0  0
  -19.7704  -14.1767  -16.7056 C   0  0  1  0  0  0  0  0  0  0  0  0
  -18.4217  -13.7523  -16.8028 O   0  0  0  0  0  0  0  0  0  0  0  0
  -14.8848  -16.9796  -17.0860 C   0  0  0  0  0  0  0  0  0  0  0  0
  -14.3134  -13.4897  -19.2103 C   0  0  0  0  0  0  0  0  0  0  0  0
  1  2  1  6  0  0  0
  1  6  1  0  0  0  0
  1 21  1  0  0  0  0
  3  4  1  1  0  0  0
  3  8  1  0  0  0  0
  3 28  1  0  0  0  0
  5  9  1  0  0  0  0
  5 25  1  0  0  0  0
  5 29  1  6  0  0  0
  6  7  1  1  0  0  0
  6 11  1  0  0  0  0
  8 12  1  0  0  0  0
  9 10  1  6  0  0  0
  9 14  1  0  0  0  0
 11 16  1  0  0  0  0
 12 13  1  1  0  0  0
 12 17  1  0  0  0  0
 14 15  1  1  0  0  0
 14 18  1  0  0  0  0
 15 31  1  0  0  0  0
 16 20  1  0  0  0  0
 17  2  1  6  0  0  0
 17 22  1  0  0  0  0
 18 19  1  1  0  0  0
 18 24  1  0  0  0  0
 18 30  1  0  0  0  0
 20 21  1  0  0  0  0
 20 26  1  6  0  0  0
 22 23  1  6  0  0  0
 22 28  1  0  0  0  0
 24 25  1  0  0  0  0
 26 27  1  0  0  0  0
 28 29  1  6  0  0  0
M  END
>  <CHROM.1>
-176.01458848,176.34826590,-97.12761826,50.21703990,116.77136416,54.98085450
-19.33919248,-13.81973666,-18.06240764,2.63197753,0.04474799,-1.28569281

>  <Name>
ligand

>  <RI>
0

>  <Rbt.Current_Directory>
/home/itssahil/PROJECTS/Mol_Feturizer/New_Systems/rnas/4GPW

>  <Rbt.Executable>
rbdock ($Id: //depot/dev/client3/rdock/2013.1/src/exe/rbdock.cxx#4 $)

>  <Rbt.Library>
libRbt.so (2013.1, Build901 2013/11/27)

>  <Rbt.Parameter_File>
/export/apps/rDock/src/rDock_2013.1_src/data/scripts/dock_solv.prm

>  <Rbt.Receptor>
prm/pocket_docking_8.prm

>  <SCORE>
-7.10714

>  <SCORE.INTER>
-0.306427

>  <SCORE.INTER.CONST>
1

>  <SCORE.INTER.POLAR>
0

>  <SCORE.INTER.ROT>
6

>  <SCORE.INTER.SOLV>
5.8825

>  <SCORE.INTER.VDW>
-9.76512

>  <SCORE.INTER.norm>
-0.00988473

>  <SCORE.INTRA>
-6.80071

>  <SCORE.INTRA.DIHEDRAL>
-15.9962

>  <SCORE.INTRA.DIHEDRAL.0>
19.2558

>  <SCORE.INTRA.POLAR>
0

>  <SCORE.INTRA.POLAR.0>
0

>  <SCORE.INTRA.REPUL>
0

>  <SCORE.INTRA.REPUL.0>
0

>  <SCORE.INTRA.SOLV>
-0.61835

>  <SCORE.INTRA.SOLV.lig_0>
-64.5929

>  <SCORE.INTRA.VDW>
1.50656

>  <SCORE.INTRA.VDW.0>
-4.40538

>  <SCORE.INTRA.norm>
-0.219378

>  <SCORE.RESTR>
0

>  <SCORE.RESTR.CAVITY>
0

>  <SCORE.RESTR.norm>
0

>  <SCORE.SYSTEM>
0

>  <SCORE.SYSTEM.CONST>
0

>  <SCORE.SYSTEM.DIHEDRAL>
0

>  <SCORE.SYSTEM.SOLV>
0

>  <SCORE.SYSTEM.norm>
0

>  <SCORE.heavy>
31

>  <SCORE.norm>
-0.229263

>  <RMSD>
8.819

$$$$
ligand
 OpenBabel11021811493D
libRbt.so/2013.1/901 2013/11/27
 31 33  0  0  0  0  0  0  0  0999 V2000
  -21.4876  -22.3253   -9.7058 C   0  0  2  0  0  0  0  0  0  0  0  0
  -20.1171  -22.1823   -9.3624 O   0  0  0  0  0  0  0  0  0  0  0  0
  -16.4441  -20.5987  -10.8374 C   0  0  2  0  0  0  0  0  0  0  0  0
  -15.4350  -20.1930  -11.7619 N   0  0  0  0  0  0  0  0  0  0  0  0
  -17.5595  -17.3625  -11.9340 C   0  0  2  0  0  0  0  0  0  0  0  0
  -22.1623  -23.1943   -8.5648 C   0  0  2  0  0  0  0  0  0  0  0  0
  -21.9977  -22.5105   -7.2736 N   0  0  0  0  0  0  0  0  0  0  0  0
  -16.7244  -22.1500  -11.0488 C   0  0  0  0  0  0  0  0  0  0  0  0
  -18.9923  -16.7427  -11.8298 C   0  0  2  0  0  0  0  0  0  0  0  0
  -19.1759  -16.2882  -10.5097 O   0  0  0  0  0  0  0  0  0  0  0  0
  -21.5074  -24.6318   -8.5298 C   0  0  0  0  0  0  0  0  0  0  0  0
  -17.8471  -22.6065  -10.0118 C   0  0  2  0  0  0  0  0  0  0  0  0
  -18.1195  -24.0495  -10.1879 N   0  0  0  0  0  0  0  0  0  0  0  0
  -20.0682  -17.8407  -12.2171 C   0  0  1  0  0  0  0  0  0  0  0  0
  -21.4563  -17.2628  -12.1191 N   0  0  0  0  0  0  0  0  0  0  0  0
  -21.2197  -25.2013   -9.9807 C   0  0  0  0  0  0  0  0  0  0  0  0
  -19.1675  -21.7747  -10.2836 C   0  0  2  0  0  0  0  0  0  0  0  0
  -19.8054  -18.3272  -13.7473 C   0  0  1  0  0  0  0  0  0  0  0  0
  -19.9232  -17.2820  -14.6912 O   0  0  0  0  0  0  0  0  0  0  0  0
  -21.2993  -24.4056  -11.0712 C   0  0  2  0  0  0  0  0  0  0  0  0
  -21.6454  -23.0192  -10.9878 O   0  0  0  0  0  0  0  0  0  0  0  0
  -18.8658  -20.2324  -10.0881 C   0  0  2  0  0  0  0  0  0  0  0  0
  -20.0649  -19.4832  -10.3460 O   0  0  0  0  0  0  0  0  0  0  0  0
  -18.3594  -18.9184  -13.8412 C   0  0  0  0  0  0  0  0  0  0  0  0
  -17.3386  -17.9006  -13.3359 O   0  0  0  0  0  0  0  0  0  0  0  0
  -21.0312  -24.9199  -12.4849 C   0  0  0  0  0  0  0  0  0  0  0  0
  -20.0767  -24.0427  -13.1028 O   0  0  0  0  0  0  0  0  0  0  0  0
  -17.7534  -19.7754  -11.1131 C   0  0  1  0  0  0  0  0  0  0  0  0
  -17.5030  -18.3970  -10.8986 O   0  0  0  0  0  0  0  0  0  0  0  0
  -20.7767  -19.4153  -14.2530 C   0  0  0  0  0  0  0  0  0  0  0  0
  -21.6802  -15.9724  -12.8022 C   0  0  0  0  0  0  0  0  0  0  0  0
  1  2  1  1  0  0  0
  1  6  1  0  0  0  0
  1 21  1  0  0  0  0
  3  4  1  6  0  0  0
  3  8  1  0  0  0  0
  3 28  1  0  0  0  0
  5  9  1  0  0  0  0
  5 25  1  0  0  0  0
  5 29  1  1  0  0  0
  6  7  1  1  0  0  0
  6 11  1  0  0  0  0
  8 12  1  0  0  0  0
  9 10  1  1  0  0  0
  9 14  1  0  0  0  0
 11 16  1  0  0  0  0
 12 13  1  6  0  0  0
 12 17  1  0  0  0  0
 14 15  1  6  0  0  0
 14 18  1  0  0  0  0
 15 31  1  0  0  0  0
 16 20  1  0  0  0  0
 17  2  1  1  0  0  0
 17 22  1  0  0  0  0
 18 19  1  6  0  0  0
 18 24  1  0  0  0  0
 18 30  1  0  0  0  0
 20 21  1  0  0  0  0
 20 26  1  6  0  0  0
 22 23  1  6  0  0  0
 22 28  1  0  0  0  0
 24 25  1  0  0  0  0
 26 27  1  0  0  0  0
 28 29  1  1  0  0  0
M  END
>  <CHROM.1>
163.56468496,95.81362152,49.88295066,-141.51652606,-128.67625670,115.62747449
-19.54768751,-20.58152866,-11.28312699,1.81367602,-0.03562960,2.75602287

>  <Name>
ligand

>  <RI>
0

>  <Rbt.Current_Directory>
/home/itssahil/PROJECTS/Mol_Feturizer/New_Systems/rnas/4GPW

>  <Rbt.Executable>
rbdock ($Id: //depot/dev/client3/rdock/2013.1/src/exe/rbdock.cxx#4 $)

>  <Rbt.Library>
libRbt.so (2013.1, Build901 2013/11/27)

>  <Rbt.Parameter_File>
/export/apps/rDock/src/rDock_2013.1_src/data/scripts/dock_solv.prm

>  <Rbt.Receptor>
prm/blind_docking_100.prm

>  <SCORE>
31.6694

>  <SCORE.INTER>
7.23244

>  <SCORE.INTER.CONST>
1

>  <SCORE.INTER.POLAR>
0

>  <SCORE.INTER.ROT>
6

>  <SCORE.INTER.SOLV>
26.3415

>  <SCORE.INTER.VDW>
-11.5589

>  <SCORE.INTER.norm>
0.233304

>  <SCORE.INTRA>
5.33864

>  <SCORE.INTRA.DIHEDRAL>
0.780625

>  <SCORE.INTRA.DIHEDRAL.0>
19.2558

>  <SCORE.INTRA.POLAR>
0

>  <SCORE.INTRA.POLAR.0>
0

>  <SCORE.INTRA.REPUL>
0

>  <SCORE.INTRA.REPUL.0>
0

>  <SCORE.INTRA.SOLV>
2.76487

>  <SCORE.INTRA.SOLV.lig_0>
-64.5929

>  <SCORE.INTRA.VDW>
3.56589

>  <SCORE.INTRA.VDW.0>
-4.40538

>  <SCORE.INTRA.norm>
0.172214

>  <SCORE.RESTR>
19.0983

>  <SCORE.RESTR.CAVITY>
19.0983

>  <SCORE.RESTR.norm>
0.616075

>  <SCORE.SYSTEM>
0

>  <SCORE.SYSTEM.CONST>
0

>  <SCORE.SYSTEM.DIHEDRAL>
0

>  <SCORE.SYSTEM.SOLV>
0

>  <SCORE.SYSTEM.norm>
0

>  <SCORE.heavy>
31

>  <SCORE.norm>
1.02159

>  <RMSD>
8.825

$$$$
ligand
 OpenBabel11021811493D
libRbt.so/2013.1/901 2013/11/27
 31 33  0  0  0  0  0  0  0  0999 V2000
  -21.4590  -22.3290   -9.7232 C   0  0  2  0  0  0  0  0  0  0  0  0
  -20.0895  -22.1988   -9.3711 O   0  0  0  0  0  0  0  0  0  0  0  0
  -16.4171  -20.5765  -10.8052 C   0  0  2  0  0  0  0  0  0  0  0  0
  -15.4013  -20.1621  -11.7182 N   0  0  0  0  0  0  0  0  0  0  0  0
  -17.5560  -17.3584  -11.9289 C   0  0  2  0  0  0  0  0  0  0  0  0
  -22.1454  -23.2060   -8.5952 C   0  0  2  0  0  0  0  0  0  0  0  0
  -21.9832  -22.5374   -7.2958 N   0  0  0  0  0  0  0  0  0  0  0  0
  -16.6761  -22.1319  -11.0141 C   0  0  0  0  0  0  0  0  0  0  0  0
  -18.9930  -16.7461  -11.8382 C   0  0  2  0  0  0  0  0  0  0  0  0
  -19.1891  -16.2869  -10.5216 O   0  0  0  0  0  0  0  0  0  0  0  0
  -21.5000  -24.6480   -8.5725 C   0  0  0  0  0  0  0  0  0  0  0  0
  -17.8064  -22.5980   -9.9897 C   0  0  2  0  0  0  0  0  0  0  0  0
  -18.0592  -24.0448  -10.1637 N   0  0  0  0  0  0  0  0  0  0  0  0
  -20.0598  -17.8518  -12.2288 C   0  0  1  0  0  0  0  0  0  0  0  0
  -21.4518  -17.2812  -12.1439 N   0  0  0  0  0  0  0  0  0  0  0  0
  -21.2084  -25.2036  -10.0281 C   0  0  0  0  0  0  0  0  0  0  0  0
  -19.1331  -21.7832  -10.2816 C   0  0  2  0  0  0  0  0  0  0  0  0
  -19.7827  -18.3434  -13.7548 C   0  0  1  0  0  0  0  0  0  0  0  0
  -19.8991  -17.3030  -14.7042 O   0  0  0  0  0  0  0  0  0  0  0  0
  -21.2770  -24.3956  -11.1102 C   0  0  2  0  0  0  0  0  0  0  0  0
  -21.6145  -23.0079  -11.0135 O   0  0  0  0  0  0  0  0  0  0  0  0
  -18.8526  -20.2367  -10.0884 C   0  0  2  0  0  0  0  0  0  0  0  0
  -20.0572  -19.5029  -10.3645 O   0  0  0  0  0  0  0  0  0  0  0  0
  -18.3328  -18.9269  -13.8352 C   0  0  0  0  0  0  0  0  0  0  0  0
  -17.3215  -17.9012  -13.3267 O   0  0  0  0  0  0  0  0  0  0  0  0
  -21.0048  -24.8962  -12.5280 C   0  0  0  0  0  0  0  0  0  0  0  0
  -20.0688  -23.9979  -13.1439 O   0  0  0  0  0  0  0  0  0  0  0  0
  -17.7326  -19.7701  -11.1009 C   0  0  1  0  0  0  0  0  0  0  0  0
  -17.5016  -18.3880  -10.8885 O   0  0  0  0  0  0  0  0  0  0  0  0
  -20.7440  -19.4391  -14.2631 C   0  0  0  0  0  0  0  0  0  0  0  0
  -21.6870  -16.0134  -12.8644 C   0  0  0  0  0  0  0  0  0  0  0  0
  1  2  1  1  0  0  0
  1  6  1  0  0  0  0
  1 21  1  0  0  0  0
  3  4  1  6  0  0  0
  3  8  1  0  0  0  0
  3 28  1  0  0  0  0
  5  9  1  0  0  0  0
  5 25  1  0  0  0  0
  5 29  1  1  0  0  0
  6  7  1  1  0  0  0
  6 11  1  0  0  0  0
  8 12  1  0  0  0  0
  9 10  1  1  0  0  0
  9 14  1  0  0  0  0
 11 16  1  0  0  0  0
 12 13  1  6  0  0  0
 12 17  1  0  0  0  0
 14 15  1  6  0  0  0
 14 18  1  0  0  0  0
 15 31  1  0  0  0  0
 16 20  1  0  0  0  0
 17  2  1  1  0  0  0
 17 22  1  0  0  0  0
 18 19  1  6  0  0  0
 18 24  1  0  0  0  0
 18 30  1  0  0  0  0
 20 21  1  0  0  0  0
 20 26  1  6  0  0  0
 22 23  1  6  0  0  0
 22 28  1  0  0  0  0
 24 25  1  0  0  0  0
 26 27  1  0  0  0  0
 28 29  1  1  0  0  0
M  END
>  <CHROM.1>
163.77976900,96.32418822,51.46148496,-143.04471968,-130.20788105,115.56643895
-19.52860517,-20.58350463,-11.29271391,1.81272679,0.00540209,2.74642503

>  <Name>
ligand

>  <RI>
0

>  <Rbt.Current_Directory>
/home/itssahil/PROJECTS/Mol_Feturizer/New_Systems/rnas/4GPW

>  <Rbt.Executable>
rbdock ($Id: //depot/dev/client3/rdock/2013.1/src/exe/rbdock.cxx#4 $)

>  <Rbt.Library>
libRbt.so (2013.1, Build901 2013/11/27)

>  <Rbt.Parameter_File>
/export/apps/rDock/src/rDock_2013.1_src/data/scripts/dock_solv.prm

>  <Rbt.Receptor>
prm/blind_docking_100.prm

>  <SCORE>
32.158

>  <SCORE.INTER>
8.03572

>  <SCORE.INTER.CONST>
1

>  <SCORE.INTER.POLAR>
0

>  <SCORE.INTER.ROT>
6

>  <SCORE.INTER.SOLV>
26.4608

>  <SCORE.INTER.VDW>
-11.0631

>  <SCORE.INTER.norm>
0.259217

>  <SCORE.INTRA>
5.18575

>  <SCORE.INTRA.DIHEDRAL>
0.587762

>  <SCORE.INTRA.DIHEDRAL.0>
19.2558

>  <SCORE.INTRA.POLAR>
0

>  <SCORE.INTRA.POLAR.0>
0

>  <SCORE.INTRA.REPUL>
0

>  <SCORE.INTRA.REPUL.0>
0

>  <SCORE.INTRA.SOLV>
2.54241

>  <SCORE.INTRA.SOLV.lig_0>
-64.5929

>  <SCORE.INTRA.VDW>
3.62066

>  <SCORE.INTRA.VDW.0>
-4.40538

>  <SCORE.INTRA.norm>
0.167282

>  <SCORE.RESTR>
18.9365

>  <SCORE.RESTR.CAVITY>
18.9365

>  <SCORE.RESTR.norm>
0.610856

>  <SCORE.SYSTEM>
0

>  <SCORE.SYSTEM.CONST>
0

>  <SCORE.SYSTEM.DIHEDRAL>
0

>  <SCORE.SYSTEM.SOLV>
0

>  <SCORE.SYSTEM.norm>
0

>  <SCORE.heavy>
31

>  <SCORE.norm>
1.03736

>  <RMSD>
8.832

$$$$
ligand
 OpenBabel11021811493D
libRbt.so/2013.1/901 2013/11/27
 31 33  0  0  0  0  0  0  0  0999 V2000
  -22.2161  -11.1464  -17.5125 C   0  0  2  0  0  0  0  0  0  0  0  0
  -22.3784  -10.0224  -16.6600 O   0  0  0  0  0  0  0  0  0  0  0  0
  -20.2296   -8.5814  -13.2716 C   0  0  2  0  0  0  0  0  0  0  0  0
  -19.7107   -8.5137  -11.9437 N   0  0  0  0  0  0  0  0  0  0  0  0
  -17.3722   -9.9947  -12.9229 C   0  0  2  0  0  0  0  0  0  0  0  0
  -22.5653  -10.6666  -18.9823 C   0  0  2  0  0  0  0  0  0  0  0  0
  -21.6645   -9.5677  -19.3602 N   0  0  0  0  0  0  0  0  0  0  0  0
  -21.8178   -8.6094  -13.1894 C   0  0  0  0  0  0  0  0  0  0  0  0
  -15.9390   -9.8057  -13.5215 C   0  0  2  0  0  0  0  0  0  0  0  0
  -15.9007   -8.5599  -14.1765 O   0  0  0  0  0  0  0  0  0  0  0  0
  -24.0755  -10.2070  -19.0499 C   0  0  0  0  0  0  0  0  0  0  0  0
  -22.3994   -8.6783  -14.6731 C   0  0  2  0  0  0  0  0  0  0  0  0
  -23.8772   -8.6999  -14.6197 N   0  0  0  0  0  0  0  0  0  0  0  0
  -15.6282  -10.9943  -14.5234 C   0  0  1  0  0  0  0  0  0  0  0  0
  -14.2518  -10.8277  -15.1136 N   0  0  0  0  0  0  0  0  0  0  0  0
  -25.0330  -11.1488  -18.2081 C   0  0  0  0  0  0  0  0  0  0  0  0
  -21.8691   -9.9967  -15.3730 C   0  0  2  0  0  0  0  0  0  0  0  0
  -15.6882  -12.4037  -13.7126 C   0  0  1  0  0  0  0  0  0  0  0  0
  -14.7400  -12.4850  -12.6678 O   0  0  0  0  0  0  0  0  0  0  0  0
  -24.5320  -12.0607  -17.3443 C   0  0  2  0  0  0  0  0  0  0  0  0
  -23.1260  -12.2336  -17.1387 O   0  0  0  0  0  0  0  0  0  0  0  0
  -20.2869   -9.9614  -15.4287 C   0  0  2  0  0  0  0  0  0  0  0  0
  -19.8122  -11.1646  -16.0555 O   0  0  0  0  0  0  0  0  0  0  0  0
  -17.1180  -12.5643  -13.0969 C   0  0  0  0  0  0  0  0  0  0  0  0
  -17.4645  -11.3475  -12.2410 O   0  0  0  0  0  0  0  0  0  0  0  0
  -25.4237  -12.9865  -16.5181 C   0  0  0  0  0  0  0  0  0  0  0  0
  -25.1543  -14.3383  -16.9211 O   0  0  0  0  0  0  0  0  0  0  0  0
  -19.7057   -9.8925  -13.9609 C   0  0  1  0  0  0  0  0  0  0  0  0
  -18.2922   -9.8493  -14.0534 O   0  0  0  0  0  0  0  0  0  0  0  0
  -15.4201  -13.6552  -14.5756 C   0  0  0  0  0  0  0  0  0  0  0  0
  -14.1820  -10.2086  -16.4528 C   0  0  0  0  0  0  0  0  0  0  0  0
  1  2  1  1  0  0  0
  1  6  1  0  0  0  0
  1 21  1  0  0  0  0
  3  4  1  1  0  0  0
  3  8  1  0  0  0  0
  3 28  1  0  0  0  0
  5  9  1  0  0  0  0
  5 25  1  0  0  0  0
  5 29  1  6  0  0  0
  6  7  1  1  0  0  0
  6 11  1  0  0  0  0
  8 12  1  0  0  0  0
  9 10  1  6  0  0  0
  9 14  1  0  0  0  0
 11 16  1  0  0  0  0
 12 13  1  1  0  0  0
 12 17  1  0  0  0  0
 14 15  1  1  0  0  0
 14 18  1  0  0  0  0
 15 31  1  0  0  0  0
 16 20  1  0  0  0  0
 17  2  1  6  0  0  0
 17 22  1  0  0  0  0
 18 19  1  1  0  0  0
 18 24  1  0  0  0  0
 18 30  1  0  0  0  0
 20 21  1  0  0  0  0
 20 26  1  6  0  0  0
 22 23  1  1  0  0  0
 22 28  1  0  0  0  0
 24 25  1  0  0  0  0
 26 27  1  0  0  0  0
 28 29  1  6  0  0  0
M  END
>  <CHROM.1>
-164.88594519,-177.30226570,-97.87462694,-172.89323750,116.57583705,71.97972704
-19.90774022,-10.71454481,-15.26600077,-2.83574404,-0.26626876,0.79759171

>  <Name>
ligand

>  <RI>
0

>  <Rbt.Current_Directory>
/home/itssahil/PROJECTS/Mol_Feturizer/New_Systems/rnas/4GPW

>  <Rbt.Executable>
rbdock ($Id: //depot/dev/client3/rdock/2013.1/src/exe/rbdock.cxx#4 $)

>  <Rbt.Library>
libRbt.so (2013.1, Build901 2013/11/27)

>  <Rbt.Parameter_File>
/export/apps/rDock/src/rDock_2013.1_src/data/scripts/dock_solv.prm

>  <Rbt.Receptor>
prm/pocket_docking_8.prm

>  <SCORE>
-13.9229

>  <SCORE.INTER>
-6.54834

>  <SCORE.INTER.CONST>
1

>  <SCORE.INTER.POLAR>
0

>  <SCORE.INTER.ROT>
6

>  <SCORE.INTER.SOLV>
13.9904

>  <SCORE.INTER.VDW>
-16.629

>  <SCORE.INTER.norm>
-0.211237

>  <SCORE.INTRA>
-7.37452

>  <SCORE.INTRA.DIHEDRAL>
-14.6674

>  <SCORE.INTRA.DIHEDRAL.0>
19.2558

>  <SCORE.INTRA.POLAR>
0

>  <SCORE.INTRA.POLAR.0>
0

>  <SCORE.INTRA.REPUL>
0

>  <SCORE.INTRA.REPUL.0>
0

>  <SCORE.INTRA.SOLV>
-2.41394

>  <SCORE.INTRA.SOLV.lig_0>
-64.5929

>  <SCORE.INTRA.VDW>
1.16616

>  <SCORE.INTRA.VDW.0>
-4.40538

>  <SCORE.INTRA.norm>
-0.237888

>  <SCORE.RESTR>
0

>  <SCORE.RESTR.CAVITY>
0

>  <SCORE.RESTR.norm>
0

>  <SCORE.SYSTEM>
0

>  <SCORE.SYSTEM.CONST>
0

>  <SCORE.SYSTEM.DIHEDRAL>
0

>  <SCORE.SYSTEM.SOLV>
0

>  <SCORE.SYSTEM.norm>
0

>  <SCORE.heavy>
31

>  <SCORE.norm>
-0.449125

>  <RMSD>
8.835

$$$$
ligand
 OpenBabel11021811493D
libRbt.so/2013.1/901 2013/11/27
 31 33  0  0  0  0  0  0  0  0999 V2000
  -21.0422  -11.8932  -18.4980 C   0  0  2  0  0  0  0  0  0  0  0  0
  -21.2592  -11.9050  -17.0947 O   0  0  0  0  0  0  0  0  0  0  0  0
  -19.5345  -14.1703  -13.9216 C   0  0  2  0  0  0  0  0  0  0  0  0
  -19.2281  -15.2839  -13.0829 N   0  0  0  0  0  0  0  0  0  0  0  0
  -16.9205  -15.7128  -14.6874 C   0  0  2  0  0  0  0  0  0  0  0  0
  -21.4269  -10.4446  -19.0136 C   0  0  2  0  0  0  0  0  0  0  0  0
  -20.5894   -9.4485  -18.3293 N   0  0  0  0  0  0  0  0  0  0  0  0
  -21.1098  -13.9505  -13.9090 C   0  0  0  0  0  0  0  0  0  0  0  0
  -15.4167  -15.5297  -15.0787 C   0  0  2  0  0  0  0  0  0  0  0  0
  -15.0358  -14.2161  -14.7439 O   0  0  0  0  0  0  0  0  0  0  0  0
  -22.9602  -10.1719  -18.7466 C   0  0  0  0  0  0  0  0  0  0  0  0
  -21.4533  -12.7021  -14.8405 C   0  0  2  0  0  0  0  0  0  0  0  0
  -22.9149  -12.4765  -14.8386 N   0  0  0  0  0  0  0  0  0  0  0  0
  -15.2414  -15.8036  -16.6303 C   0  0  1  0  0  0  0  0  0  0  0  0
  -13.7984  -15.6284  -17.0273 N   0  0  0  0  0  0  0  0  0  0  0  0
  -23.8596  -11.4463  -19.0286 C   0  0  0  0  0  0  0  0  0  0  0  0
  -20.9601  -13.0086  -16.3142 C   0  0  2  0  0  0  0  0  0  0  0  0
  -15.6971  -17.3312  -16.9561 C   0  0  1  0  0  0  0  0  0  0  0  0
  -14.9245  -18.2992  -16.2754 O   0  0  0  0  0  0  0  0  0  0  0  0
  -23.3041  -12.6648  -19.2164 C   0  0  2  0  0  0  0  0  0  0  0  0
  -21.8894  -12.8795  -19.1758 O   0  0  0  0  0  0  0  0  0  0  0  0
  -19.3941  -13.2441  -16.3055 C   0  0  2  0  0  0  0  0  0  0  0  0
  -18.9551  -13.5316  -17.6435 O   0  0  0  0  0  0  0  0  0  0  0  0
  -17.1938  -17.5060  -16.5335 C   0  0  0  0  0  0  0  0  0  0  0  0
  -17.3797  -17.1079  -15.0705 O   0  0  0  0  0  0  0  0  0  0  0  0
  -24.1387  -13.9146  -19.4925 C   0  0  0  0  0  0  0  0  0  0  0  0
  -23.7918  -14.4006  -20.7985 O   0  0  0  0  0  0  0  0  0  0  0  0
  -19.0486  -14.4799  -15.3832 C   0  0  1  0  0  0  0  0  0  0  0  0
  -17.6416  -14.6496  -15.3911 O   0  0  0  0  0  0  0  0  0  0  0  0
  -15.5936  -17.7309  -18.4436 C   0  0  0  0  0  0  0  0  0  0  0  0
  -13.5501  -14.9808  -18.3314 C   0  0  0  0  0  0  0  0  0  0  0  0
  1  2  1  1  0  0  0
  1  6  1  0  0  0  0
  1 21  1  0  0  0  0
  3  4  1  1  0  0  0
  3  8  1  0  0  0  0
  3 28  1  0  0  0  0
  5  9  1  0  0  0  0
  5 25  1  0  0  0  0
  5 29  1  6  0  0  0
  6  7  1  1  0  0  0
  6 11  1  0  0  0  0
  8 12  1  0  0  0  0
  9 10  1  6  0  0  0
  9 14  1  0  0  0  0
 11 16  1  0  0  0  0
 12 13  1  6  0  0  0
 12 17  1  0  0  0  0
 14 15  1  1  0  0  0
 14 18  1  0  0  0  0
 15 31  1  0  0  0  0
 16 20  1  0  0  0  0
 17  2  1  6  0  0  0
 17 22  1  0  0  0  0
 18 19  1  1  0  0  0
 18 24  1  0  0  0  0
 18 30  1  0  0  0  0
 20 21  1  0  0  0  0
 20 26  1  6  0  0  0
 22 23  1  6  0  0  0
 22 28  1  0  0  0  0
 24 25  1  0  0  0  0
 26 27  1  0  0  0  0
 28 29  1  1  0  0  0
M  END
>  <CHROM.1>
-176.91912710,176.36036010,-141.04580244,-174.96977164,117.02196157,63.52807041
-19.17850184,-14.10824084,-16.82612845,-2.87413720,-0.54019769,1.58151055

>  <Name>
ligand

>  <RI>
0

>  <Rbt.Current_Directory>
/home/itssahil/PROJECTS/Mol_Feturizer/New_Systems/rnas/4GPW

>  <Rbt.Executable>
rbdock ($Id: //depot/dev/client3/rdock/2013.1/src/exe/rbdock.cxx#4 $)

>  <Rbt.Library>
libRbt.so (2013.1, Build901 2013/11/27)

>  <Rbt.Parameter_File>
/export/apps/rDock/src/rDock_2013.1_src/data/scripts/dock_solv.prm

>  <Rbt.Receptor>
prm/pocket_docking_8.prm

>  <SCORE>
-11.37

>  <SCORE.INTER>
-3.58482

>  <SCORE.INTER.CONST>
1

>  <SCORE.INTER.POLAR>
0

>  <SCORE.INTER.ROT>
6

>  <SCORE.INTER.SOLV>
8.43833

>  <SCORE.INTER.VDW>
-12.8027

>  <SCORE.INTER.norm>
-0.115639

>  <SCORE.INTRA>
-7.78522

>  <SCORE.INTRA.DIHEDRAL>
-16.3773

>  <SCORE.INTRA.DIHEDRAL.0>
19.2558

>  <SCORE.INTRA.POLAR>
0

>  <SCORE.INTRA.POLAR.0>
0

>  <SCORE.INTRA.REPUL>
0

>  <SCORE.INTRA.REPUL.0>
0

>  <SCORE.INTRA.SOLV>
-2.39182

>  <SCORE.INTRA.SOLV.lig_0>
-64.5929

>  <SCORE.INTRA.VDW>
1.59936

>  <SCORE.INTRA.VDW.0>
-4.40538

>  <SCORE.INTRA.norm>
-0.251136

>  <SCORE.RESTR>
0

>  <SCORE.RESTR.CAVITY>
0

>  <SCORE.RESTR.norm>
0

>  <SCORE.SYSTEM>
0

>  <SCORE.SYSTEM.CONST>
0

>  <SCORE.SYSTEM.DIHEDRAL>
0

>  <SCORE.SYSTEM.SOLV>
0

>  <SCORE.SYSTEM.norm>
0

>  <SCORE.heavy>
31

>  <SCORE.norm>
-0.366775

>  <RMSD>
8.880

$$$$
ligand
 OpenBabel11021811493D
libRbt.so/2013.1/901 2013/11/27
 31 33  0  0  0  0  0  0  0  0999 V2000
  -20.1828  -22.0648   -8.1787 C   0  0  2  0  0  0  0  0  0  0  0  0
  -18.7970  -21.7557   -8.1552 O   0  0  0  0  0  0  0  0  0  0  0  0
  -15.6386  -20.9222  -10.8947 C   0  0  2  0  0  0  0  0  0  0  0  0
  -14.7792  -21.0481  -12.0273 N   0  0  0  0  0  0  0  0  0  0  0  0
  -18.2380  -19.1375  -13.0788 C   0  0  2  0  0  0  0  0  0  0  0  0
  -20.3414  -23.5249   -7.5826 C   0  0  2  0  0  0  0  0  0  0  0  0
  -19.8058  -23.5501   -6.2136 N   0  0  0  0  0  0  0  0  0  0  0  0
  -15.5556  -22.2669  -10.0493 C   0  0  0  0  0  0  0  0  0  0  0  0
  -17.7606  -17.8209  -13.7765 C   0  0  2  0  0  0  0  0  0  0  0  0
  -16.4906  -18.0596  -14.3360 O   0  0  0  0  0  0  0  0  0  0  0  0
  -19.5862  -24.5632   -8.5035 C   0  0  0  0  0  0  0  0  0  0  0  0
  -16.5104  -22.1252   -8.7794 C   0  0  2  0  0  0  0  0  0  0  0  0
  -16.4439  -23.3647   -7.9754 N   0  0  0  0  0  0  0  0  0  0  0  0
  -17.7102  -16.6501  -12.7089 C   0  0  1  0  0  0  0  0  0  0  0  0
  -17.2486  -15.3731  -13.3622 N   0  0  0  0  0  0  0  0  0  0  0  0
  -19.7647  -24.2458  -10.0462 C   0  0  0  0  0  0  0  0  0  0  0  0
  -17.9956  -21.8876   -9.2763 C   0  0  2  0  0  0  0  0  0  0  0  0
  -19.2008  -16.4220  -12.0980 C   0  0  1  0  0  0  0  0  0  0  0  0
  -20.1514  -16.0497  -13.0753 O   0  0  0  0  0  0  0  0  0  0  0  0
  -20.2868  -23.0693  -10.4608 C   0  0  2  0  0  0  0  0  0  0  0  0
  -20.7080  -22.0507   -9.5476 O   0  0  0  0  0  0  0  0  0  0  0  0
  -18.0563  -20.5565  -10.1320 C   0  0  2  0  0  0  0  0  0  0  0  0
  -19.4040  -20.3525  -10.5880 O   0  0  0  0  0  0  0  0  0  0  0  0
  -19.6749  -17.7550  -11.4289 C   0  0  0  0  0  0  0  0  0  0  0  0
  -19.5898  -18.9072  -12.4282 O   0  0  0  0  0  0  0  0  0  0  0  0
  -20.4757  -22.7295  -11.9385 C   0  0  0  0  0  0  0  0  0  0  0  0
  -19.2283  -22.9626  -12.6106 O   0  0  0  0  0  0  0  0  0  0  0  0
  -17.1112  -20.6917  -11.3912 C   0  0  1  0  0  0  0  0  0  0  0  0
  -17.1829  -19.4796  -12.1221 O   0  0  0  0  0  0  0  0  0  0  0  0
  -19.2952  -15.3150  -11.0262 C   0  0  0  0  0  0  0  0  0  0  0  0
  -17.8762  -15.0327  -14.6552 C   0  0  0  0  0  0  0  0  0  0  0  0
  1  2  1  6  0  0  0
  1  6  1  0  0  0  0
  1 21  1  0  0  0  0
  3  4  1  6  0  0  0
  3  8  1  0  0  0  0
  3 28  1  0  0  0  0
  5  9  1  0  0  0  0
  5 25  1  0  0  0  0
  5 29  1  1  0  0  0
  6  7  1  1  0  0  0
  6 11  1  0  0  0  0
  8 12  1  0  0  0  0
  9 10  1  1  0  0  0
  9 14  1  0  0  0  0
 11 16  1  0  0  0  0
 12 13  1  6  0  0  0
 12 17  1  0  0  0  0
 14 15  1  6  0  0  0
 14 18  1  0  0  0  0
 15 31  1  0  0  0  0
 16 20  1  0  0  0  0
 17  2  1  1  0  0  0
 17 22  1  0  0  0  0
 18 19  1  6  0  0  0
 18 24  1  0  0  0  0
 18 30  1  0  0  0  0
 20 21  1  0  0  0  0
 20 26  1  1  0  0  0
 22 23  1  6  0  0  0
 22 28  1  0  0  0  0
 24 25  1  0  0  0  0
 26 27  1  0  0  0  0
 28 29  1  1  0  0  0
M  END
>  <CHROM.1>
98.49785540,-171.37419537,45.87077200,-154.12922482,-51.48235107,159.57446199
-18.44490062,-20.28373621,-10.95483156,1.68530663,-0.28950353,2.58026717

>  <Name>
ligand

>  <RI>
0

>  <Rbt.Current_Directory>
/home/itssahil/PROJECTS/Mol_Feturizer/New_Systems/rnas/4GPW

>  <Rbt.Executable>
rbdock ($Id: //depot/dev/client3/rdock/2013.1/src/exe/rbdock.cxx#4 $)

>  <Rbt.Library>
libRbt.so (2013.1, Build901 2013/11/27)

>  <Rbt.Parameter_File>
/export/apps/rDock/src/rDock_2013.1_src/data/scripts/dock_solv.prm

>  <Rbt.Receptor>
prm/blind_docking_100.prm

>  <SCORE>
30.497

>  <SCORE.INTER>
2.07293

>  <SCORE.INTER.CONST>
1

>  <SCORE.INTER.POLAR>
0

>  <SCORE.INTER.ROT>
6

>  <SCORE.INTER.SOLV>
17.3496

>  <SCORE.INTER.VDW>
-12.0012

>  <SCORE.INTER.norm>
0.0668687

>  <SCORE.INTRA>
4.29672

>  <SCORE.INTRA.DIHEDRAL>
-5.38051

>  <SCORE.INTRA.DIHEDRAL.0>
19.2558

>  <SCORE.INTRA.POLAR>
0

>  <SCORE.INTRA.POLAR.0>
0

>  <SCORE.INTRA.REPUL>
0

>  <SCORE.INTRA.REPUL.0>
0

>  <SCORE.INTRA.SOLV>
0.850849

>  <SCORE.INTRA.SOLV.lig_0>
-64.5929

>  <SCORE.INTRA.VDW>
6.56155

>  <SCORE.INTRA.VDW.0>
-4.40538

>  <SCORE.INTRA.norm>
0.138604

>  <SCORE.RESTR>
24.1273

>  <SCORE.RESTR.CAVITY>
24.1273

>  <SCORE.RESTR.norm>
0.778301

>  <SCORE.SYSTEM>
0

>  <SCORE.SYSTEM.CONST>
0

>  <SCORE.SYSTEM.DIHEDRAL>
0

>  <SCORE.SYSTEM.SOLV>
0

>  <SCORE.SYSTEM.norm>
0

>  <SCORE.heavy>
31

>  <SCORE.norm>
0.983773

>  <RMSD>
8.915

$$$$
ligand
 OpenBabel11021811493D
libRbt.so/2013.1/901 2013/11/27
 31 33  0  0  0  0  0  0  0  0999 V2000
  -23.5825  -10.6222  -18.8972 C   0  0  2  0  0  0  0  0  0  0  0  0
  -22.4155  -11.1145  -18.2551 O   0  0  0  0  0  0  0  0  0  0  0  0
  -18.7496   -9.3700  -16.9539 C   0  0  2  0  0  0  0  0  0  0  0  0
  -17.8474   -8.5128  -16.2550 N   0  0  0  0  0  0  0  0  0  0  0  0
  -19.0222  -11.7809  -13.9588 C   0  0  2  0  0  0  0  0  0  0  0  0
  -24.7371  -10.6081  -17.8113 C   0  0  2  0  0  0  0  0  0  0  0  0
  -24.3354   -9.7484  -16.6882 N   0  0  0  0  0  0  0  0  0  0  0  0
  -19.7437   -8.4660  -17.8050 C   0  0  0  0  0  0  0  0  0  0  0  0
  -17.7129  -11.8284  -13.1033 C   0  0  2  0  0  0  0  0  0  0  0  0
  -17.2750  -10.5054  -12.9024 O   0  0  0  0  0  0  0  0  0  0  0  0
  -25.0260  -12.0814  -17.3191 C   0  0  0  0  0  0  0  0  0  0  0  0
  -20.7484   -9.4228  -18.5921 C   0  0  2  0  0  0  0  0  0  0  0  0
  -21.6796   -8.6013  -19.3954 N   0  0  0  0  0  0  0  0  0  0  0  0
  -16.6203  -12.6888  -13.8643 C   0  0  1  0  0  0  0  0  0  0  0  0
  -15.3494  -12.7432  -13.0566 N   0  0  0  0  0  0  0  0  0  0  0  0
  -24.9784  -13.1351  -18.5023 C   0  0  0  0  0  0  0  0  0  0  0  0
  -21.5635  -10.2868  -17.5441 C   0  0  2  0  0  0  0  0  0  0  0  0
  -17.1817  -14.2023  -14.0684 C   0  0  1  0  0  0  0  0  0  0  0  0
  -17.4534  -14.8637  -12.8495 O   0  0  0  0  0  0  0  0  0  0  0  0
  -24.4858  -12.7996  -19.7161 C   0  0  2  0  0  0  0  0  0  0  0  0
  -23.9852  -11.4907  -20.0078 O   0  0  0  0  0  0  0  0  0  0  0  0
  -20.5578  -11.1652  -16.6927 C   0  0  2  0  0  0  0  0  0  0  0  0
  -21.3028  -11.9387  -15.7375 O   0  0  0  0  0  0  0  0  0  0  0  0
  -18.5051  -14.1352  -14.9010 C   0  0  0  0  0  0  0  0  0  0  0  0
  -19.5042  -13.1943  -14.2303 O   0  0  0  0  0  0  0  0  0  0  0  0
  -24.4261  -13.7876  -20.8803 C   0  0  0  0  0  0  0  0  0  0  0  0
  -25.0063  -15.0259  -20.4419 O   0  0  0  0  0  0  0  0  0  0  0  0
  -19.5597  -10.2216  -15.9114 C   0  0  1  0  0  0  0  0  0  0  0  0
  -18.6706  -11.0429  -15.1741 O   0  0  0  0  0  0  0  0  0  0  0  0
  -16.2200  -15.1505  -14.8162 C   0  0  0  0  0  0  0  0  0  0  0  0
  -14.2469  -11.8696  -13.5073 C   0  0  0  0  0  0  0  0  0  0  0  0
  1  2  1  1  0  0  0
  1  6  1  0  0  0  0
  1 21  1  0  0  0  0
  3  4  1  1  0  0  0
  3  8  1  0  0  0  0
  3 28  1  0  0  0  0
  5  9  1  0  0  0  0
  5 25  1  0  0  0  0
  5 29  1  6  0  0  0
  6  7  1  1  0  0  0
  6 11  1  0  0  0  0
  8 12  1  0  0  0  0
  9 10  1  6  0  0  0
  9 14  1  0  0  0  0
 11 16  1  0  0  0  0
 12 13  1  1  0  0  0
 12 17  1  0  0  0  0
 14 15  1  1  0  0  0
 14 18  1  0  0  0  0
 15 31  1  0  0  0  0
 16 20  1  0  0  0  0
 17  2  1  6  0  0  0
 17 22  1  0  0  0  0
 18 19  1  1  0  0  0
 18 24  1  0  0  0  0
 18 30  1  0  0  0  0
 20 21  1  0  0  0  0
 20 26  1  6  0  0  0
 22 23  1  1  0  0  0
 22 28  1  0  0  0  0
 24 25  1  0  0  0  0
 26 27  1  0  0  0  0
 28 29  1  6  0  0  0
M  END
>  <CHROM.1>
-85.48069195,-148.52429905,-102.85311199,-73.73807900,1.92918636,167.99494898
-20.39821436,-11.73086306,-16.43310342,-2.93535975,0.60470055,2.92011856

>  <Name>
ligand

>  <RI>
0

>  <Rbt.Current_Directory>
/home/itssahil/PROJECTS/Mol_Feturizer/New_Systems/rnas/4GPW

>  <Rbt.Executable>
rbdock ($Id: //depot/dev/client3/rdock/2013.1/src/exe/rbdock.cxx#4 $)

>  <Rbt.Library>
libRbt.so (2013.1, Build901 2013/11/27)

>  <Rbt.Parameter_File>
/export/apps/rDock/src/rDock_2013.1_src/data/scripts/dock_solv.prm

>  <Rbt.Receptor>
prm/pocket_docking_8.prm

>  <SCORE>
-6.78074

>  <SCORE.INTER>
-4.95679

>  <SCORE.INTER.CONST>
1

>  <SCORE.INTER.POLAR>
0

>  <SCORE.INTER.ROT>
6

>  <SCORE.INTER.SOLV>
13.752

>  <SCORE.INTER.VDW>
-15.4885

>  <SCORE.INTER.norm>
-0.159896

>  <SCORE.INTRA>
-1.82395

>  <SCORE.INTRA.DIHEDRAL>
-8.37081

>  <SCORE.INTRA.DIHEDRAL.0>
19.2558

>  <SCORE.INTRA.POLAR>
0

>  <SCORE.INTRA.POLAR.0>
0

>  <SCORE.INTRA.REPUL>
0

>  <SCORE.INTRA.REPUL.0>
0

>  <SCORE.INTRA.SOLV>
-0.149001

>  <SCORE.INTRA.SOLV.lig_0>
-64.5929

>  <SCORE.INTRA.VDW>
2.43595

>  <SCORE.INTRA.VDW.0>
-4.40538

>  <SCORE.INTRA.norm>
-0.0588372

>  <SCORE.RESTR>
0

>  <SCORE.RESTR.CAVITY>
0

>  <SCORE.RESTR.norm>
0

>  <SCORE.SYSTEM>
0

>  <SCORE.SYSTEM.CONST>
0

>  <SCORE.SYSTEM.DIHEDRAL>
0

>  <SCORE.SYSTEM.SOLV>
0

>  <SCORE.SYSTEM.norm>
0

>  <SCORE.heavy>
31

>  <SCORE.norm>
-0.218734

>  <RMSD>
8.924

$$$$
ligand
 OpenBabel11021811493D
libRbt.so/2013.1/901 2013/11/27
 31 33  0  0  0  0  0  0  0  0999 V2000
  -19.8228  -24.3338   -9.8499 C   0  0  2  0  0  0  0  0  0  0  0  0
  -18.8444  -23.3410   -9.5789 O   0  0  0  0  0  0  0  0  0  0  0  0
  -16.0853  -20.7044  -11.4791 C   0  0  2  0  0  0  0  0  0  0  0  0
  -15.4629  -19.9251  -12.5002 N   0  0  0  0  0  0  0  0  0  0  0  0
  -17.5481  -17.6681  -11.6933 C   0  0  2  0  0  0  0  0  0  0  0  0
  -20.4898  -23.9594  -11.2382 C   0  0  2  0  0  0  0  0  0  0  0  0
  -19.4531  -23.9244  -12.2801 N   0  0  0  0  0  0  0  0  0  0  0  0
  -16.1096  -22.2232  -11.9510 C   0  0  0  0  0  0  0  0  0  0  0  0
  -18.9742  -17.0477  -11.5220 C   0  0  2  0  0  0  0  0  0  0  0  0
  -19.1743  -16.7858  -10.1530 O   0  0  0  0  0  0  0  0  0  0  0  0
  -21.2197  -22.5629  -11.1211 C   0  0  0  0  0  0  0  0  0  0  0  0
  -16.7989  -23.0965  -10.8079 C   0  0  2  0  0  0  0  0  0  0  0  0
  -16.8269  -24.5152  -11.2248 N   0  0  0  0  0  0  0  0  0  0  0  0
  -20.0577  -18.0615  -12.0801 C   0  0  1  0  0  0  0  0  0  0  0  0
  -21.4396  -17.4824  -11.9203 N   0  0  0  0  0  0  0  0  0  0  0  0
  -21.9713  -22.3870   -9.7366 C   0  0  0  0  0  0  0  0  0  0  0  0
  -18.2774  -22.5747  -10.5828 C   0  0  2  0  0  0  0  0  0  0  0  0
  -19.7753  -18.3260  -13.6605 C   0  0  1  0  0  0  0  0  0  0  0  0
  -19.8632  -17.1538  -14.4449 O   0  0  0  0  0  0  0  0  0  0  0  0
  -21.7605  -23.2463   -8.7140 C   0  0  2  0  0  0  0  0  0  0  0  0
  -20.8606  -24.3549   -8.8143 O   0  0  0  0  0  0  0  0  0  0  0  0
  -18.2357  -21.0569  -10.1328 C   0  0  2  0  0  0  0  0  0  0  0  0
  -19.5803  -20.5872   -9.9402 O   0  0  0  0  0  0  0  0  0  0  0  0
  -18.3358  -18.9197  -13.8172 C   0  0  0  0  0  0  0  0  0  0  0  0
  -17.3104  -18.0014  -13.1549 O   0  0  0  0  0  0  0  0  0  0  0  0
  -22.4682  -23.1095   -7.3667 C   0  0  0  0  0  0  0  0  0  0  0  0
  -21.5631  -22.4714   -6.4525 O   0  0  0  0  0  0  0  0  0  0  0  0
  -17.5530  -20.1875  -11.2620 C   0  0  1  0  0  0  0  0  0  0  0  0
  -17.5228  -18.8420  -10.8177 O   0  0  0  0  0  0  0  0  0  0  0  0
  -20.7520  -19.3145  -14.3326 C   0  0  0  0  0  0  0  0  0  0  0  0
  -21.6893  -16.1865  -12.5837 C   0  0  0  0  0  0  0  0  0  0  0  0
  1  2  1  1  0  0  0
  1  6  1  0  0  0  0
  1 21  1  0  0  0  0
  3  4  1  6  0  0  0
  3  8  1  0  0  0  0
  3 28  1  0  0  0  0
  5  9  1  0  0  0  0
  5 25  1  0  0  0  0
  5 29  1  1  0  0  0
  6  7  1  6  0  0  0
  6 11  1  0  0  0  0
  8 12  1  0  0  0  0
  9 10  1  1  0  0  0
  9 14  1  0  0  0  0
 11 16  1  0  0  0  0
 12 13  1  6  0  0  0
 12 17  1  0  0  0  0
 14 15  1  6  0  0  0
 14 18  1  0  0  0  0
 15 31  1  0  0  0  0
 16 20  1  0  0  0  0
 17  2  1  1  0  0  0
 17 22  1  0  0  0  0
 18 19  1  6  0  0  0
 18 24  1  0  0  0  0
 18 30  1  0  0  0  0
 20 21  1  0  0  0  0
 20 26  1  6  0  0  0
 22 23  1  6  0  0  0
 22 28  1  0  0  0  0
 24 25  1  0  0  0  0
 26 27  1  0  0  0  0
 28 29  1  1  0  0  0
M  END
>  <CHROM.1>
-22.56683866,107.52847785,58.44247736,-106.16696412,-99.40549003,90.35387956
-19.24464330,-20.69002922,-11.11628170,-1.77067944,0.42091793,-0.44951706

>  <Name>
ligand

>  <RI>
0

>  <Rbt.Current_Directory>
/home/itssahil/PROJECTS/Mol_Feturizer/New_Systems/rnas/4GPW

>  <Rbt.Executable>
rbdock ($Id: //depot/dev/client3/rdock/2013.1/src/exe/rbdock.cxx#4 $)

>  <Rbt.Library>
libRbt.so (2013.1, Build901 2013/11/27)

>  <Rbt.Parameter_File>
/export/apps/rDock/src/rDock_2013.1_src/data/scripts/dock_solv.prm

>  <Rbt.Receptor>
prm/blind_docking_80.prm

>  <SCORE>
59.0468

>  <SCORE.INTER>
25.4426

>  <SCORE.INTER.CONST>
1

>  <SCORE.INTER.POLAR>
0

>  <SCORE.INTER.ROT>
6

>  <SCORE.INTER.SOLV>
27.901

>  <SCORE.INTER.VDW>
0.0613946

>  <SCORE.INTER.norm>
0.820729

>  <SCORE.INTRA>
12.4144

>  <SCORE.INTRA.DIHEDRAL>
4.3145

>  <SCORE.INTRA.DIHEDRAL.0>
19.2558

>  <SCORE.INTRA.POLAR>
0

>  <SCORE.INTRA.POLAR.0>
0

>  <SCORE.INTRA.REPUL>
0

>  <SCORE.INTRA.REPUL.0>
0

>  <SCORE.INTRA.SOLV>
5.06073

>  <SCORE.INTRA.SOLV.lig_0>
-64.5929

>  <SCORE.INTRA.VDW>
7.72676

>  <SCORE.INTRA.VDW.0>
-4.40538

>  <SCORE.INTRA.norm>
0.400464

>  <SCORE.RESTR>
21.1899

>  <SCORE.RESTR.CAVITY>
21.1899

>  <SCORE.RESTR.norm>
0.683544

>  <SCORE.SYSTEM>
0

>  <SCORE.SYSTEM.CONST>
0

>  <SCORE.SYSTEM.DIHEDRAL>
0

>  <SCORE.SYSTEM.SOLV>
0

>  <SCORE.SYSTEM.norm>
0

>  <SCORE.heavy>
31

>  <SCORE.norm>
1.90474

>  <RMSD>
8.931

$$$$
ligand
 OpenBabel11021811493D
libRbt.so/2013.1/901 2013/11/27
 31 33  0  0  0  0  0  0  0  0999 V2000
  -21.4333  -13.5341  -13.9771 C   0  0  2  0  0  0  0  0  0  0  0  0
  -20.6398  -14.0773  -15.0220 O   0  0  0  0  0  0  0  0  0  0  0  0
  -18.0105  -17.4220  -15.2955 C   0  0  2  0  0  0  0  0  0  0  0  0
  -16.8702  -18.2515  -15.0744 N   0  0  0  0  0  0  0  0  0  0  0  0
  -19.6857  -18.6404  -12.0478 C   0  0  2  0  0  0  0  0  0  0  0  0
  -22.6777  -12.8287  -14.6599 C   0  0  2  0  0  0  0  0  0  0  0  0
  -23.4258  -13.8207  -15.4461 N   0  0  0  0  0  0  0  0  0  0  0  0
  -17.5134  -16.0333  -15.8910 C   0  0  0  0  0  0  0  0  0  0  0  0
  -18.4013  -18.8881  -11.1892 C   0  0  2  0  0  0  0  0  0  0  0  0
  -17.5418  -17.7863  -11.3624 O   0  0  0  0  0  0  0  0  0  0  0  0
  -22.1824  -11.6401  -15.5755 C   0  0  0  0  0  0  0  0  0  0  0  0
  -18.7872  -15.1075  -16.1451 C   0  0  2  0  0  0  0  0  0  0  0  0
  -18.3472  -13.8112  -16.7047 N   0  0  0  0  0  0  0  0  0  0  0  0
  -17.7113  -20.2373  -11.6549 C   0  0  1  0  0  0  0  0  0  0  0  0
  -16.4690  -20.4914  -10.8409 N   0  0  0  0  0  0  0  0  0  0  0  0
  -20.9924  -10.8250  -14.9181 C   0  0  0  0  0  0  0  0  0  0  0  0
  -19.5343  -14.8711  -14.7684 C   0  0  2  0  0  0  0  0  0  0  0  0
  -18.7495  -21.4703  -11.4333 C   0  0  1  0  0  0  0  0  0  0  0  0
  -19.1267  -21.6438  -10.0825 O   0  0  0  0  0  0  0  0  0  0  0  0
  -20.3439  -11.2939  -13.8281 C   0  0  2  0  0  0  0  0  0  0  0  0
  -20.6860  -12.5364  -13.2051 O   0  0  0  0  0  0  0  0  0  0  0  0
  -20.0047  -16.2643  -14.1805 C   0  0  2  0  0  0  0  0  0  0  0  0
  -20.6726  -16.0435  -12.9271 O   0  0  0  0  0  0  0  0  0  0  0  0
  -20.0390  -21.1940  -12.2758 C   0  0  0  0  0  0  0  0  0  0  0  0
  -20.6216  -19.8281  -11.9177 O   0  0  0  0  0  0  0  0  0  0  0  0
  -19.1944  -10.5351  -13.1663 C   0  0  0  0  0  0  0  0  0  0  0  0
  -19.5639  -10.2690  -11.8044 O   0  0  0  0  0  0  0  0  0  0  0  0
  -18.7460  -17.1856  -13.9275 C   0  0  1  0  0  0  0  0  0  0  0  0
  -19.2080  -18.4236  -13.4154 O   0  0  0  0  0  0  0  0  0  0  0  0
  -18.2105  -22.8513  -11.8640 C   0  0  0  0  0  0  0  0  0  0  0  0
  -15.3575  -21.1734  -11.5345 C   0  0  0  0  0  0  0  0  0  0  0  0
  1  2  1  6  0  0  0
  1  6  1  0  0  0  0
  1 21  1  0  0  0  0
  3  4  1  1  0  0  0
  3  8  1  0  0  0  0
  3 28  1  0  0  0  0
  5  9  1  0  0  0  0
  5 25  1  0  0  0  0
  5 29  1  6  0  0  0
  6  7  1  6  0  0  0
  6 11  1  0  0  0  0
  8 12  1  0  0  0  0
  9 10  1  6  0  0  0
  9 14  1  0  0  0  0
 11 16  1  0  0  0  0
 12 13  1  1  0  0  0
 12 17  1  0  0  0  0
 14 15  1  1  0  0  0
 14 18  1  0  0  0  0
 15 31  1  0  0  0  0
 16 20  1  0  0  0  0
 17  2  1  6  0  0  0
 17 22  1  0  0  0  0
 18 19  1  1  0  0  0
 18 24  1  0  0  0  0
 18 30  1  0  0  0  0
 20 21  1  0  0  0  0
 20 26  1  1  0  0  0
 22 23  1  1  0  0  0
 22 28  1  0  0  0  0
 24 25  1  0  0  0  0
 26 27  1  0  0  0  0
 28 29  1  6  0  0  0
M  END
>  <CHROM.1>
-173.93191797,-83.85143716,-147.02464733,-171.73550549,120.80310228,166.60841728
-19.37868151,-16.42772421,-13.38117725,1.90475113,0.53258039,-0.48635094

>  <Name>
ligand

>  <RI>
0

>  <Rbt.Current_Directory>
/home/itssahil/PROJECTS/Mol_Feturizer/New_Systems/rnas/4GPW

>  <Rbt.Executable>
rbdock ($Id: //depot/dev/client3/rdock/2013.1/src/exe/rbdock.cxx#4 $)

>  <Rbt.Library>
libRbt.so (2013.1, Build901 2013/11/27)

>  <Rbt.Parameter_File>
/export/apps/rDock/src/rDock_2013.1_src/data/scripts/dock_solv.prm

>  <Rbt.Receptor>
prm/pocket_docking_6.prm

>  <SCORE>
-7.60284

>  <SCORE.INTER>
-1.42805

>  <SCORE.INTER.CONST>
1

>  <SCORE.INTER.POLAR>
0

>  <SCORE.INTER.ROT>
6

>  <SCORE.INTER.SOLV>
13.3597

>  <SCORE.INTER.VDW>
-13.0053

>  <SCORE.INTER.norm>
-0.0460662

>  <SCORE.INTRA>
-6.17478

>  <SCORE.INTRA.DIHEDRAL>
-13.044

>  <SCORE.INTRA.DIHEDRAL.0>
19.2558

>  <SCORE.INTRA.POLAR>
0

>  <SCORE.INTRA.POLAR.0>
0

>  <SCORE.INTRA.REPUL>
0

>  <SCORE.INTRA.REPUL.0>
0

>  <SCORE.INTRA.SOLV>
-2.53378

>  <SCORE.INTRA.SOLV.lig_0>
-64.5929

>  <SCORE.INTRA.VDW>
1.61409

>  <SCORE.INTRA.VDW.0>
-4.40538

>  <SCORE.INTRA.norm>
-0.199187

>  <SCORE.RESTR>
0

>  <SCORE.RESTR.CAVITY>
0

>  <SCORE.RESTR.norm>
0

>  <SCORE.SYSTEM>
0

>  <SCORE.SYSTEM.CONST>
0

>  <SCORE.SYSTEM.DIHEDRAL>
0

>  <SCORE.SYSTEM.SOLV>
0

>  <SCORE.SYSTEM.norm>
0

>  <SCORE.heavy>
31

>  <SCORE.norm>
-0.245253

>  <RMSD>
8.940

$$$$
ligand
 OpenBabel11021811493D
libRbt.so/2013.1/901 2013/11/27
 31 33  0  0  0  0  0  0  0  0999 V2000
  -16.3841  -23.6050  -12.4583 C   0  0  2  0  0  0  0  0  0  0  0  0
  -16.8495  -24.0705  -11.2001 O   0  0  0  0  0  0  0  0  0  0  0  0
  -20.5662  -22.0019  -10.9143 C   0  0  2  0  0  0  0  0  0  0  0  0
  -21.8047  -21.5401  -10.3755 N   0  0  0  0  0  0  0  0  0  0  0  0
  -18.4231  -19.2791  -10.7501 C   0  0  2  0  0  0  0  0  0  0  0  0
  -15.1041  -24.4648  -12.8252 C   0  0  2  0  0  0  0  0  0  0  0  0
  -15.4746  -25.8867  -12.8790 N   0  0  0  0  0  0  0  0  0  0  0  0
  -20.6003  -23.5914  -10.9611 C   0  0  0  0  0  0  0  0  0  0  0  0
  -19.1285  -17.8922  -10.9151 C   0  0  2  0  0  0  0  0  0  0  0  0
  -19.4382  -17.4049   -9.6308 O   0  0  0  0  0  0  0  0  0  0  0  0
  -13.9690  -24.2174  -11.7543 C   0  0  0  0  0  0  0  0  0  0  0  0
  -19.2195  -24.1087  -11.5693 C   0  0  2  0  0  0  0  0  0  0  0  0
  -19.2322  -25.5865  -11.6268 N   0  0  0  0  0  0  0  0  0  0  0  0
  -20.4347  -18.0696  -11.7957 C   0  0  1  0  0  0  0  0  0  0  0  0
  -21.1305  -16.7436  -11.9629 N   0  0  0  0  0  0  0  0  0  0  0  0
  -13.8794  -22.6994  -11.3070 C   0  0  0  0  0  0  0  0  0  0  0  0
  -18.0328  -23.6188  -10.6414 C   0  0  2  0  0  0  0  0  0  0  0  0
  -20.0152  -18.6348  -13.2626 C   0  0  1  0  0  0  0  0  0  0  0  0
  -19.1555  -17.7637  -13.9692 O   0  0  0  0  0  0  0  0  0  0  0  0
  -14.8507  -21.8171  -11.6337 C   0  0  2  0  0  0  0  0  0  0  0  0
  -16.0041  -22.1902  -12.3949 O   0  0  0  0  0  0  0  0  0  0  0  0
  -18.0256  -22.0360  -10.5903 C   0  0  2  0  0  0  0  0  0  0  0  0
  -16.9533  -21.5986   -9.7390 O   0  0  0  0  0  0  0  0  0  0  0  0
  -19.2867  -20.0075  -13.0785 C   0  0  0  0  0  0  0  0  0  0  0  0
  -18.1084  -19.8558  -12.1183 O   0  0  0  0  0  0  0  0  0  0  0  0
  -14.7973  -20.3466  -11.2220 C   0  0  0  0  0  0  0  0  0  0  0  0
  -13.6889  -19.7356  -11.9006 O   0  0  0  0  0  0  0  0  0  0  0  0
  -19.3922  -21.5184   -9.9889 C   0  0  1  0  0  0  0  0  0  0  0  0
  -19.3521  -20.1018   -9.9719 O   0  0  0  0  0  0  0  0  0  0  0  0
  -21.1994  -18.8722  -14.2241 C   0  0  0  0  0  0  0  0  0  0  0  0
  -20.2864  -15.6078  -12.3863 C   0  0  0  0  0  0  0  0  0  0  0  0
  1  2  1  1  0  0  0
  1  6  1  0  0  0  0
  1 21  1  0  0  0  0
  3  4  1  1  0  0  0
  3  8  1  0  0  0  0
  3 28  1  0  0  0  0
  5  9  1  0  0  0  0
  5 25  1  0  0  0  0
  5 29  1  6  0  0  0
  6  7  1  1  0  0  0
  6 11  1  0  0  0  0
  8 12  1  0  0  0  0
  9 10  1  1  0  0  0
  9 14  1  0  0  0  0
 11 16  1  0  0  0  0
 12 13  1  1  0  0  0
 12 17  1  0  0  0  0
 14 15  1  6  0  0  0
 14 18  1  0  0  0  0
 15 31  1  0  0  0  0
 16 20  1  0  0  0  0
 17  2  1  6  0  0  0
 17 22  1  0  0  0  0
 18 19  1  6  0  0  0
 18 24  1  0  0  0  0
 18 30  1  0  0  0  0
 20 21  1  0  0  0  0
 20 26  1  6  0  0  0
 22 23  1  1  0  0  0
 22 28  1  0  0  0  0
 24 25  1  0  0  0  0
 26 27  1  0  0  0  0
 28 29  1  6  0  0  0
M  END
>  <CHROM.1>
-173.73763748,155.47757334,49.12061498,65.65640250,65.78222672,-100.55334425
-18.06848424,-21.07606312,-11.61410114,0.92358245,-0.08909836,3.04209325

>  <Name>
ligand

>  <RI>
0

>  <Rbt.Current_Directory>
/home/itssahil/PROJECTS/Mol_Feturizer/New_Systems/rnas/4GPW

>  <Rbt.Executable>
rbdock ($Id: //depot/dev/client3/rdock/2013.1/src/exe/rbdock.cxx#4 $)

>  <Rbt.Library>
libRbt.so (2013.1, Build901 2013/11/27)

>  <Rbt.Parameter_File>
/export/apps/rDock/src/rDock_2013.1_src/data/scripts/dock_solv.prm

>  <Rbt.Receptor>
prm/blind_docking_100.prm

>  <SCORE>
37.7917

>  <SCORE.INTER>
14.5475

>  <SCORE.INTER.CONST>
1

>  <SCORE.INTER.POLAR>
0

>  <SCORE.INTER.ROT>
6

>  <SCORE.INTER.SOLV>
26.6625

>  <SCORE.INTER.VDW>
-6.78918

>  <SCORE.INTER.norm>
0.469273

>  <SCORE.INTRA>
4.61944

>  <SCORE.INTRA.DIHEDRAL>
-7.18153

>  <SCORE.INTRA.DIHEDRAL.0>
19.2558

>  <SCORE.INTRA.POLAR>
0

>  <SCORE.INTRA.POLAR.0>
0

>  <SCORE.INTRA.REPUL>
0.788382

>  <SCORE.INTRA.REPUL.0>
0

>  <SCORE.INTRA.SOLV>
-0.478444

>  <SCORE.INTRA.SOLV.lig_0>
-64.5929

>  <SCORE.INTRA.VDW>
4.50752

>  <SCORE.INTRA.VDW.0>
-4.40538

>  <SCORE.INTRA.norm>
0.149014

>  <SCORE.RESTR>
18.6248

>  <SCORE.RESTR.CAVITY>
18.6248

>  <SCORE.RESTR.norm>
0.6008

>  <SCORE.SYSTEM>
0

>  <SCORE.SYSTEM.CONST>
0

>  <SCORE.SYSTEM.DIHEDRAL>
0

>  <SCORE.SYSTEM.SOLV>
0

>  <SCORE.SYSTEM.norm>
0

>  <SCORE.heavy>
31

>  <SCORE.norm>
1.21909

>  <RMSD>
8.977

$$$$
ligand
 OpenBabel11021811493D
libRbt.so/2013.1/901 2013/11/27
 31 33  0  0  0  0  0  0  0  0999 V2000
  -19.0925  -24.8314   -9.5980 C   0  0  2  0  0  0  0  0  0  0  0  0
  -18.0856  -23.8380   -9.4722 O   0  0  0  0  0  0  0  0  0  0  0  0
  -16.6284  -20.2096  -11.1709 C   0  0  2  0  0  0  0  0  0  0  0  0
  -16.4635  -19.1339  -12.0945 N   0  0  0  0  0  0  0  0  0  0  0  0
  -19.4547  -18.0757  -10.3520 C   0  0  2  0  0  0  0  0  0  0  0  0
  -19.1050  -25.2879  -11.1159 C   0  0  2  0  0  0  0  0  0  0  0  0
  -17.7797  -25.8138  -11.4747 N   0  0  0  0  0  0  0  0  0  0  0  0
  -16.2901  -21.5712  -11.9202 C   0  0  0  0  0  0  0  0  0  0  0  0
  -20.2395  -18.7565  -11.5219 C   0  0  2  0  0  0  0  0  0  0  0  0
  -20.6900  -20.0125  -11.0721 O   0  0  0  0  0  0  0  0  0  0  0  0
  -19.4960  -24.0660  -12.0383 C   0  0  0  0  0  0  0  0  0  0  0  0
  -16.4673  -22.7738  -10.8875 C   0  0  2  0  0  0  0  0  0  0  0  0
  -16.1519  -24.0509  -11.5635 N   0  0  0  0  0  0  0  0  0  0  0  0
  -19.2847  -18.9021  -12.7790 C   0  0  1  0  0  0  0  0  0  0  0  0
  -20.0226  -19.5597  -13.9163 N   0  0  0  0  0  0  0  0  0  0  0  0
  -20.6415  -23.1719  -11.4052 C   0  0  0  0  0  0  0  0  0  0  0  0
  -17.9657  -22.7948  -10.3743 C   0  0  2  0  0  0  0  0  0  0  0  0
  -18.7965  -17.4235  -13.2509 C   0  0  1  0  0  0  0  0  0  0  0  0
  -19.8643  -16.5825  -13.6380 O   0  0  0  0  0  0  0  0  0  0  0  0
  -21.0160  -23.3280  -10.1152 C   0  0  2  0  0  0  0  0  0  0  0  0
  -20.4133  -24.2974   -9.2514 O   0  0  0  0  0  0  0  0  0  0  0  0
  -18.2914  -21.4254   -9.6488 C   0  0  2  0  0  0  0  0  0  0  0  0
  -19.6549  -21.4472   -9.1948 O   0  0  0  0  0  0  0  0  0  0  0  0
  -18.0385  -16.7454  -12.0615 C   0  0  0  0  0  0  0  0  0  0  0  0
  -18.9182  -16.7328  -10.8128 O   0  0  0  0  0  0  0  0  0  0  0  0
  -22.1171  -22.4863   -9.4717 C   0  0  0  0  0  0  0  0  0  0  0  0
  -21.7601  -22.2630   -8.0988 O   0  0  0  0  0  0  0  0  0  0  0  0
  -18.1166  -20.2304  -10.6679 C   0  0  1  0  0  0  0  0  0  0  0  0
  -18.4033  -19.0252   -9.9797 O   0  0  0  0  0  0  0  0  0  0  0  0
  -17.8411  -17.4172  -14.4634 C   0  0  0  0  0  0  0  0  0  0  0  0
  -21.2597  -18.8922  -14.3698 C   0  0  0  0  0  0  0  0  0  0  0  0
  1  2  1  6  0  0  0
  1  6  1  0  0  0  0
  1 21  1  0  0  0  0
  3  4  1  6  0  0  0
  3  8  1  0  0  0  0
  3 28  1  0  0  0  0
  5  9  1  0  0  0  0
  5 25  1  0  0  0  0
  5 29  1  6  0  0  0
  6  7  1  6  0  0  0
  6 11  1  0  0  0  0
  8 12  1  0  0  0  0
  9 10  1  1  0  0  0
  9 14  1  0  0  0  0
 11 16  1  0  0  0  0
 12 13  1  6  0  0  0
 12 17  1  0  0  0  0
 14 15  1  6  0  0  0
 14 18  1  0  0  0  0
 15 31  1  0  0  0  0
 16 20  1  0  0  0  0
 17  2  1  1  0  0  0
 17 22  1  0  0  0  0
 18 19  1  6  0  0  0
 18 24  1  0  0  0  0
 18 30  1  0  0  0  0
 20 21  1  0  0  0  0
 20 26  1  6  0  0  0
 22 23  1  6  0  0  0
 22 28  1  0  0  0  0
 24 25  1  0  0  0  0
 26 27  1  0  0  0  0
 28 29  1  1  0  0  0
M  END
>  <CHROM.1>
46.17281151,5.95958415,57.23150988,-127.39071966,-145.27016317,120.99632428
-19.01659118,-20.97786099,-11.19882722,1.59965222,-0.37364961,2.78106835

>  <Name>
ligand

>  <RI>
0

>  <Rbt.Current_Directory>
/home/itssahil/PROJECTS/Mol_Feturizer/New_Systems/rnas/4GPW

>  <Rbt.Executable>
rbdock ($Id: //depot/dev/client3/rdock/2013.1/src/exe/rbdock.cxx#4 $)

>  <Rbt.Library>
libRbt.so (2013.1, Build901 2013/11/27)

>  <Rbt.Parameter_File>
/export/apps/rDock/src/rDock_2013.1_src/data/scripts/dock_solv.prm

>  <Rbt.Receptor>
prm/blind_docking_100.prm

>  <SCORE>
35.1524

>  <SCORE.INTER>
-5.14286

>  <SCORE.INTER.CONST>
1

>  <SCORE.INTER.POLAR>
0

>  <SCORE.INTER.ROT>
6

>  <SCORE.INTER.SOLV>
21.2305

>  <SCORE.INTER.VDW>
-18.1054

>  <SCORE.INTER.norm>
-0.165899

>  <SCORE.INTRA>
24.9646

>  <SCORE.INTRA.DIHEDRAL>
5.20378

>  <SCORE.INTRA.DIHEDRAL.0>
19.2558

>  <SCORE.INTRA.POLAR>
0

>  <SCORE.INTRA.POLAR.0>
0

>  <SCORE.INTRA.REPUL>
0

>  <SCORE.INTRA.REPUL.0>
0

>  <SCORE.INTRA.SOLV>
9.80559

>  <SCORE.INTRA.SOLV.lig_0>
-64.5929

>  <SCORE.INTRA.VDW>
17.46

>  <SCORE.INTRA.VDW.0>
-4.40538

>  <SCORE.INTRA.norm>
0.805311

>  <SCORE.RESTR>
15.3306

>  <SCORE.RESTR.CAVITY>
15.3306

>  <SCORE.RESTR.norm>
0.494536

>  <SCORE.SYSTEM>
0

>  <SCORE.SYSTEM.CONST>
0

>  <SCORE.SYSTEM.DIHEDRAL>
0

>  <SCORE.SYSTEM.SOLV>
0

>  <SCORE.SYSTEM.norm>
0

>  <SCORE.heavy>
31

>  <SCORE.norm>
1.13395

>  <RMSD>
8.977

$$$$
ligand
 OpenBabel11021811493D
libRbt.so/2013.1/901 2013/11/27
 31 33  0  0  0  0  0  0  0  0999 V2000
  -20.4564  -21.9583   -8.4832 C   0  0  2  0  0  0  0  0  0  0  0  0
  -19.0459  -21.8277   -8.3827 O   0  0  0  0  0  0  0  0  0  0  0  0
  -15.7146  -20.9613  -10.8980 C   0  0  2  0  0  0  0  0  0  0  0  0
  -14.8319  -21.0148  -12.0183 N   0  0  0  0  0  0  0  0  0  0  0  0
  -17.4119  -18.8195  -13.2950 C   0  0  2  0  0  0  0  0  0  0  0  0
  -20.8798  -23.1508   -7.5286 C   0  0  2  0  0  0  0  0  0  0  0  0
  -20.4628  -22.8417   -6.1529 N   0  0  0  0  0  0  0  0  0  0  0  0
  -15.8103  -22.4168  -10.2639 C   0  0  0  0  0  0  0  0  0  0  0  0
  -17.5460  -17.2605  -13.2885 C   0  0  2  0  0  0  0  0  0  0  0  0
  -16.3327  -16.7204  -12.8206 O   0  0  0  0  0  0  0  0  0  0  0  0
  -20.2203  -24.4964   -8.0294 C   0  0  0  0  0  0  0  0  0  0  0  0
  -16.7912  -22.3572   -9.0075 C   0  0  2  0  0  0  0  0  0  0  0  0
  -16.8903  -23.7014   -8.3987 N   0  0  0  0  0  0  0  0  0  0  0  0
  -18.7603  -16.8425  -12.3590 C   0  0  1  0  0  0  0  0  0  0  0  0
  -18.9032  -15.3426  -12.3372 N   0  0  0  0  0  0  0  0  0  0  0  0
  -20.2276  -24.6226   -9.6094 C   0  0  0  0  0  0  0  0  0  0  0  0
  -18.2220  -21.8823   -9.4938 C   0  0  2  0  0  0  0  0  0  0  0  0
  -20.1299  -17.4952  -12.9468 C   0  0  1  0  0  0  0  0  0  0  0  0
  -20.4392  -17.0556  -14.2538 O   0  0  0  0  0  0  0  0  0  0  0  0
  -20.5321  -23.5631  -10.3927 C   0  0  2  0  0  0  0  0  0  0  0  0
  -20.8648  -22.2793   -9.8544 O   0  0  0  0  0  0  0  0  0  0  0  0
  -18.1052  -20.4411  -10.1397 C   0  0  2  0  0  0  0  0  0  0  0  0
  -19.4046  -20.0208  -10.5877 O   0  0  0  0  0  0  0  0  0  0  0  0
  -19.9693  -19.0517  -12.9731 C   0  0  0  0  0  0  0  0  0  0  0  0
  -18.7174  -19.4405  -13.7572 O   0  0  0  0  0  0  0  0  0  0  0  0
  -20.5514  -23.6479  -11.9183 C   0  0  0  0  0  0  0  0  0  0  0  0
  -19.3993  -22.9500  -12.4163 O   0  0  0  0  0  0  0  0  0  0  0  0
  -17.1337  -20.4948  -11.3848 C   0  0  1  0  0  0  0  0  0  0  0  0
  -17.0455  -19.1877  -11.9254 O   0  0  0  0  0  0  0  0  0  0  0  0
  -21.3977  -17.1814  -12.1238 C   0  0  0  0  0  0  0  0  0  0  0  0
  -18.9764  -14.7092  -11.0049 C   0  0  0  0  0  0  0  0  0  0  0  0
  1  2  1  6  0  0  0
  1  6  1  0  0  0  0
  1 21  1  0  0  0  0
  3  4  1  6  0  0  0
  3  8  1  0  0  0  0
  3 28  1  0  0  0  0
  5  9  1  0  0  0  0
  5 25  1  0  0  0  0
  5 29  1  1  0  0  0
  6  7  1  1  0  0  0
  6 11  1  0  0  0  0
  8 12  1  0  0  0  0
  9 10  1  1  0  0  0
  9 14  1  0  0  0  0
 11 16  1  0  0  0  0
 12 13  1  6  0  0  0
 12 17  1  0  0  0  0
 14 15  1  6  0  0  0
 14 18  1  0  0  0  0
 15 31  1  0  0  0  0
 16 20  1  0  0  0  0
 17  2  1  1  0  0  0
 17 22  1  0  0  0  0
 18 19  1  6  0  0  0
 18 24  1  0  0  0  0
 18 30  1  0  0  0  0
 20 21  1  0  0  0  0
 20 26  1  1  0  0  0
 22 23  1  6  0  0  0
 22 28  1  0  0  0  0
 24 25  1  0  0  0  0
 26 27  1  0  0  0  0
 28 29  1  1  0  0  0
M  END
>  <CHROM.1>
124.37907009,163.84234416,-128.80112544,-154.73893546,-107.01950586,121.02155980
-18.76438171,-20.41111014,-10.93736534,1.68082793,-0.15821118,2.59792198

>  <Name>
ligand

>  <RI>
0

>  <Rbt.Current_Directory>
/home/itssahil/PROJECTS/Mol_Feturizer/New_Systems/rnas/4GPW

>  <Rbt.Executable>
rbdock ($Id: //depot/dev/client3/rdock/2013.1/src/exe/rbdock.cxx#4 $)

>  <Rbt.Library>
libRbt.so (2013.1, Build901 2013/11/27)

>  <Rbt.Parameter_File>
/export/apps/rDock/src/rDock_2013.1_src/data/scripts/dock_solv.prm

>  <Rbt.Receptor>
prm/blind_docking_100.prm

>  <SCORE>
24.8454

>  <SCORE.INTER>
1.59986

>  <SCORE.INTER.CONST>
1

>  <SCORE.INTER.POLAR>
0

>  <SCORE.INTER.ROT>
6

>  <SCORE.INTER.SOLV>
17.5251

>  <SCORE.INTER.VDW>
-12.3751

>  <SCORE.INTER.norm>
0.0516083

>  <SCORE.INTRA>
1.65433

>  <SCORE.INTRA.DIHEDRAL>
1.99102

>  <SCORE.INTRA.DIHEDRAL.0>
19.2558

>  <SCORE.INTRA.POLAR>
0

>  <SCORE.INTRA.POLAR.0>
0

>  <SCORE.INTRA.REPUL>
0

>  <SCORE.INTRA.REPUL.0>
0

>  <SCORE.INTRA.SOLV>
-0.0347186

>  <SCORE.INTRA.SOLV.lig_0>
-64.5929

>  <SCORE.INTRA.VDW>
0.676178

>  <SCORE.INTRA.VDW.0>
-4.40538

>  <SCORE.INTRA.norm>
0.0533655

>  <SCORE.RESTR>
21.5912

>  <SCORE.RESTR.CAVITY>
21.5912

>  <SCORE.RESTR.norm>
0.69649

>  <SCORE.SYSTEM>
0

>  <SCORE.SYSTEM.CONST>
0

>  <SCORE.SYSTEM.DIHEDRAL>
0

>  <SCORE.SYSTEM.SOLV>
0

>  <SCORE.SYSTEM.norm>
0

>  <SCORE.heavy>
31

>  <SCORE.norm>
0.801464

>  <RMSD>
9.000

$$$$
ligand
 OpenBabel11021811493D
libRbt.so/2013.1/901 2013/11/27
 31 33  0  0  0  0  0  0  0  0999 V2000
  -20.8352  -11.9151  -18.5945 C   0  0  2  0  0  0  0  0  0  0  0  0
  -20.7831  -11.6633  -17.1979 O   0  0  0  0  0  0  0  0  0  0  0  0
  -19.0787  -13.6593  -13.8385 C   0  0  2  0  0  0  0  0  0  0  0  0
  -18.8409  -14.6704  -12.8595 N   0  0  0  0  0  0  0  0  0  0  0  0
  -16.7909  -15.7348  -14.6399 C   0  0  2  0  0  0  0  0  0  0  0  0
  -20.6751  -10.5166  -19.3232 C   0  0  2  0  0  0  0  0  0  0  0  0
  -19.3945   -9.9098  -18.9313 N   0  0  0  0  0  0  0  0  0  0  0  0
  -20.6059  -13.2236  -13.7498 C   0  0  0  0  0  0  0  0  0  0  0  0
  -15.2813  -15.7179  -15.0513 C   0  0  2  0  0  0  0  0  0  0  0  0
  -14.7567  -14.4506  -14.7328 O   0  0  0  0  0  0  0  0  0  0  0  0
  -21.8856   -9.5746  -18.9438 C   0  0  0  0  0  0  0  0  0  0  0  0
  -20.8716  -12.0887  -14.8388 C   0  0  2  0  0  0  0  0  0  0  0  0
  -22.2868  -11.6648  -14.7696 N   0  0  0  0  0  0  0  0  0  0  0  0
  -15.1570  -16.0209  -16.6024 C   0  0  1  0  0  0  0  0  0  0  0  0
  -13.7089  -16.0054  -17.0185 N   0  0  0  0  0  0  0  0  0  0  0  0
  -23.2641  -10.3546  -18.8845 C   0  0  0  0  0  0  0  0  0  0  0  0
  -20.5566  -12.6721  -16.2774 C   0  0  2  0  0  0  0  0  0  0  0  0
  -15.7789  -17.4929  -16.9089 C   0  0  1  0  0  0  0  0  0  0  0  0
  -15.1062  -18.5334  -16.2291 O   0  0  0  0  0  0  0  0  0  0  0  0
  -23.3026  -11.7062  -18.9041 C   0  0  2  0  0  0  0  0  0  0  0  0
  -22.1194  -12.5081  -18.9808 O   0  0  0  0  0  0  0  0  0  0  0  0
  -19.0386  -13.1187  -16.3418 C   0  0  2  0  0  0  0  0  0  0  0  0
  -18.7623  -13.6561  -17.6459 O   0  0  0  0  0  0  0  0  0  0  0  0
  -17.2800  -17.5020  -16.4664 C   0  0  0  0  0  0  0  0  0  0  0  0
  -17.4027  -17.0750  -15.0049 O   0  0  0  0  0  0  0  0  0  0  0  0
  -24.6122  -12.4918  -18.8507 C   0  0  0  0  0  0  0  0  0  0  0  0
  -24.6181  -13.2632  -17.6395 O   0  0  0  0  0  0  0  0  0  0  0  0
  -18.7701  -14.2428  -15.2642 C   0  0  1  0  0  0  0  0  0  0  0  0
  -17.4023  -14.6054  -15.3442 O   0  0  0  0  0  0  0  0  0  0  0  0
  -15.7386  -17.9126  -18.3939 C   0  0  0  0  0  0  0  0  0  0  0  0
  -13.3920  -15.2819  -18.2667 C   0  0  0  0  0  0  0  0  0  0  0  0
  1  2  1  1  0  0  0
  1  6  1  0  0  0  0
  1 21  1  0  0  0  0
  3  4  1  1  0  0  0
  3  8  1  0  0  0  0
  3 28  1  0  0  0  0
  5  9  1  0  0  0  0
  5 25  1  0  0  0  0
  5 29  1  6  0  0  0
  6  7  1  1  0  0  0
  6 11  1  0  0  0  0
  8 12  1  0  0  0  0
  9 10  1  6  0  0  0
  9 14  1  0  0  0  0
 11 16  1  0  0  0  0
 12 13  1  6  0  0  0
 12 17  1  0  0  0  0
 14 15  1  1  0  0  0
 14 18  1  0  0  0  0
 15 31  1  0  0  0  0
 16 20  1  0  0  0  0
 17  2  1  6  0  0  0
 17 22  1  0  0  0  0
 18 19  1  1  0  0  0
 18 24  1  0  0  0  0
 18 30  1  0  0  0  0
 20 21  1  0  0  0  0
 20 26  1  6  0  0  0
 22 23  1  6  0  0  0
 22 28  1  0  0  0  0
 24 25  1  0  0  0  0
 26 27  1  0  0  0  0
 28 29  1  1  0  0  0
M  END
>  <CHROM.1>
-163.48871078,179.88399714,-135.23480701,-168.11487943,-116.56470561,70.29144840
-18.95785721,-13.87590899,-16.67372145,-2.75661887,-0.53797679,1.88392134

>  <Name>
ligand

>  <RI>
0

>  <Rbt.Current_Directory>
/home/itssahil/PROJECTS/Mol_Feturizer/New_Systems/rnas/4GPW

>  <Rbt.Executable>
rbdock ($Id: //depot/dev/client3/rdock/2013.1/src/exe/rbdock.cxx#4 $)

>  <Rbt.Library>
libRbt.so (2013.1, Build901 2013/11/27)

>  <Rbt.Parameter_File>
/export/apps/rDock/src/rDock_2013.1_src/data/scripts/dock_solv.prm

>  <Rbt.Receptor>
prm/pocket_docking_8.prm

>  <SCORE>
-11.3327

>  <SCORE.INTER>
-4.26625

>  <SCORE.INTER.CONST>
1

>  <SCORE.INTER.POLAR>
0

>  <SCORE.INTER.ROT>
6

>  <SCORE.INTER.SOLV>
10.2174

>  <SCORE.INTER.VDW>
-13.85

>  <SCORE.INTER.norm>
-0.137621

>  <SCORE.INTRA>
-7.0664

>  <SCORE.INTRA.DIHEDRAL>
-14.078

>  <SCORE.INTRA.DIHEDRAL.0>
19.2558

>  <SCORE.INTRA.POLAR>
0

>  <SCORE.INTRA.POLAR.0>
0

>  <SCORE.INTRA.REPUL>
0

>  <SCORE.INTRA.REPUL.0>
0

>  <SCORE.INTRA.SOLV>
-1.89864

>  <SCORE.INTRA.SOLV.lig_0>
-64.5929

>  <SCORE.INTRA.VDW>
0.921924

>  <SCORE.INTRA.VDW.0>
-4.40538

>  <SCORE.INTRA.norm>
-0.227949

>  <SCORE.RESTR>
0

>  <SCORE.RESTR.CAVITY>
0

>  <SCORE.RESTR.norm>
0

>  <SCORE.SYSTEM>
0

>  <SCORE.SYSTEM.CONST>
0

>  <SCORE.SYSTEM.DIHEDRAL>
0

>  <SCORE.SYSTEM.SOLV>
0

>  <SCORE.SYSTEM.norm>
0

>  <SCORE.heavy>
31

>  <SCORE.norm>
-0.36557

>  <RMSD>
9.012

$$$$
ligand
 OpenBabel11021811493D
libRbt.so/2013.1/901 2013/11/27
 31 33  0  0  0  0  0  0  0  0999 V2000
  -19.0498  -24.6251  -10.7090 C   0  0  2  0  0  0  0  0  0  0  0  0
  -18.7264  -24.1011  -11.9886 O   0  0  0  0  0  0  0  0  0  0  0  0
  -15.8847  -21.0962  -10.9541 C   0  0  2  0  0  0  0  0  0  0  0  0
  -14.8483  -20.1255  -11.0989 N   0  0  0  0  0  0  0  0  0  0  0  0
  -17.1218  -18.1055  -11.7478 C   0  0  2  0  0  0  0  0  0  0  0  0
  -20.5553  -25.1161  -10.7770 C   0  0  2  0  0  0  0  0  0  0  0  0
  -20.6850  -26.1371  -11.8271 N   0  0  0  0  0  0  0  0  0  0  0  0
  -15.3335  -22.4990  -11.4625 C   0  0  0  0  0  0  0  0  0  0  0  0
  -18.3365  -17.1312  -11.5939 C   0  0  2  0  0  0  0  0  0  0  0  0
  -18.8040  -17.2230  -10.2689 O   0  0  0  0  0  0  0  0  0  0  0  0
  -21.5060  -23.8872  -11.0643 C   0  0  0  0  0  0  0  0  0  0  0  0
  -16.4884  -23.5864  -11.2950 C   0  0  2  0  0  0  0  0  0  0  0  0
  -15.9943  -24.9014  -11.7576 N   0  0  0  0  0  0  0  0  0  0  0  0
  -19.4647  -17.5315  -12.6331 C   0  0  1  0  0  0  0  0  0  0  0  0
  -20.6457  -16.6055  -12.4975 N   0  0  0  0  0  0  0  0  0  0  0  0
  -21.0666  -22.5847  -10.2750 C   0  0  0  0  0  0  0  0  0  0  0  0
  -17.7382  -23.1476  -12.1637 C   0  0  2  0  0  0  0  0  0  0  0  0
  -18.8673  -17.4081  -14.1415 C   0  0  1  0  0  0  0  0  0  0  0  0
  -18.4495  -16.0983  -14.4689 O   0  0  0  0  0  0  0  0  0  0  0  0
  -19.8669  -22.5160   -9.6546 C   0  0  2  0  0  0  0  0  0  0  0  0
  -18.9311  -23.5991   -9.6683 O   0  0  0  0  0  0  0  0  0  0  0  0
  -18.2616  -21.7413  -11.6576 C   0  0  2  0  0  0  0  0  0  0  0  0
  -19.3887  -21.3446  -12.4563 O   0  0  0  0  0  0  0  0  0  0  0  0
  -17.6371  -18.3669  -14.2705 C   0  0  0  0  0  0  0  0  0  0  0  0
  -16.6140  -18.0637  -13.1775 O   0  0  0  0  0  0  0  0  0  0  0  0
  -19.4107  -21.2786   -8.8829 C   0  0  0  0  0  0  0  0  0  0  0  0
  -19.5611  -20.1385   -9.7430 O   0  0  0  0  0  0  0  0  0  0  0  0
  -17.1204  -20.6604  -11.8209 C   0  0  1  0  0  0  0  0  0  0  0  0
  -17.6217  -19.4225  -11.3465 O   0  0  0  0  0  0  0  0  0  0  0  0
  -19.8606  -17.7876  -15.2607 C   0  0  0  0  0  0  0  0  0  0  0  0
  -21.8713  -16.9933  -13.2251 C   0  0  0  0  0  0  0  0  0  0  0  0
  1  2  1  6  0  0  0
  1  6  1  0  0  0  0
  1 21  1  0  0  0  0
  3  4  1  6  0  0  0
  3  8  1  0  0  0  0
  3 28  1  0  0  0  0
  5  9  1  0  0  0  0
  5 25  1  0  0  0  0
  5 29  1  6  0  0  0
  6  7  1  6  0  0  0
  6 11  1  0  0  0  0
  8 12  1  0  0  0  0
  9 10  1  1  0  0  0
  9 14  1  0  0  0  0
 11 16  1  0  0  0  0
 12 13  1  6  0  0  0
 12 17  1  0  0  0  0
 14 15  1  6  0  0  0
 14 18  1  0  0  0  0
 15 31  1  0  0  0  0
 16 20  1  0  0  0  0
 17  2  1  1  0  0  0
 17 22  1  0  0  0  0
 18 19  1  6  0  0  0
 18 24  1  0  0  0  0
 18 30  1  0  0  0  0
 20 21  1  0  0  0  0
 20 26  1  1  0  0  0
 22 23  1  6  0  0  0
 22 28  1  0  0  0  0
 24 25  1  0  0  0  0
 26 27  1  0  0  0  0
 28 29  1  1  0  0  0
M  END
>  <CHROM.1>
154.39995090,152.09158480,-169.43788332,44.35383406,-52.00664279,85.52014873
-18.58854230,-20.72494388,-11.74468339,1.57907127,-0.03586049,2.83786491

>  <Name>
ligand

>  <RI>
0

>  <Rbt.Current_Directory>
/home/itssahil/PROJECTS/Mol_Feturizer/New_Systems/rnas/4GPW

>  <Rbt.Executable>
rbdock ($Id: //depot/dev/client3/rdock/2013.1/src/exe/rbdock.cxx#4 $)

>  <Rbt.Library>
libRbt.so (2013.1, Build901 2013/11/27)

>  <Rbt.Parameter_File>
/export/apps/rDock/src/rDock_2013.1_src/data/scripts/dock_solv.prm

>  <Rbt.Receptor>
prm/blind_docking_100.prm

>  <SCORE>
32.2448

>  <SCORE.INTER>
10.026

>  <SCORE.INTER.CONST>
1

>  <SCORE.INTER.POLAR>
0

>  <SCORE.INTER.ROT>
6

>  <SCORE.INTER.SOLV>
24.5613

>  <SCORE.INTER.VDW>
-9.1031

>  <SCORE.INTER.norm>
0.323418

>  <SCORE.INTRA>
3.78257

>  <SCORE.INTRA.DIHEDRAL>
-5.75273

>  <SCORE.INTRA.DIHEDRAL.0>
19.2558

>  <SCORE.INTRA.POLAR>
0

>  <SCORE.INTRA.POLAR.0>
0

>  <SCORE.INTRA.REPUL>
0.0146939

>  <SCORE.INTRA.REPUL.0>
0

>  <SCORE.INTRA.SOLV>
0.437951

>  <SCORE.INTRA.SOLV.lig_0>
-64.5929

>  <SCORE.INTRA.VDW>
6.36649

>  <SCORE.INTRA.VDW.0>
-4.40538

>  <SCORE.INTRA.norm>
0.122018

>  <SCORE.RESTR>
18.4363

>  <SCORE.RESTR.CAVITY>
18.4363

>  <SCORE.RESTR.norm>
0.594719

>  <SCORE.SYSTEM>
0

>  <SCORE.SYSTEM.CONST>
0

>  <SCORE.SYSTEM.DIHEDRAL>
0

>  <SCORE.SYSTEM.SOLV>
0

>  <SCORE.SYSTEM.norm>
0

>  <SCORE.heavy>
31

>  <SCORE.norm>
1.04016

>  <RMSD>
9.034

$$$$
ligand
 OpenBabel11021811493D
libRbt.so/2013.1/901 2013/11/27
 31 33  0  0  0  0  0  0  0  0999 V2000
  -19.1943  -23.8567   -9.7498 C   0  0  2  0  0  0  0  0  0  0  0  0
  -18.6397  -24.0112  -11.0479 O   0  0  0  0  0  0  0  0  0  0  0  0
  -15.5299  -21.0970  -10.9413 C   0  0  2  0  0  0  0  0  0  0  0  0
  -14.3689  -20.3616  -11.3270 N   0  0  0  0  0  0  0  0  0  0  0  0
  -17.3778  -18.9368  -13.4394 C   0  0  2  0  0  0  0  0  0  0  0  0
  -20.7190  -24.2792   -9.8448 C   0  0  2  0  0  0  0  0  0  0  0  0
  -20.8080  -25.6719  -10.3078 N   0  0  0  0  0  0  0  0  0  0  0  0
  -15.1238  -22.6258  -10.7751 C   0  0  0  0  0  0  0  0  0  0  0  0
  -17.4544  -17.4093  -13.1093 C   0  0  2  0  0  0  0  0  0  0  0  0
  -16.2134  -17.0163  -12.5725 O   0  0  0  0  0  0  0  0  0  0  0  0
  -21.4827  -23.3073  -10.8291 C   0  0  0  0  0  0  0  0  0  0  0  0
  -16.4187  -23.4479  -10.3375 C   0  0  2  0  0  0  0  0  0  0  0  0
  -16.0615  -24.8735  -10.1719 N   0  0  0  0  0  0  0  0  0  0  0  0
  -18.6346  -17.1532  -12.0823 C   0  0  1  0  0  0  0  0  0  0  0  0
  -18.7219  -15.6863  -11.7491 N   0  0  0  0  0  0  0  0  0  0  0  0
  -21.0221  -21.7991  -10.6688 C   0  0  0  0  0  0  0  0  0  0  0  0
  -17.5260  -23.2998  -11.4605 C   0  0  2  0  0  0  0  0  0  0  0  0
  -20.0382  -17.6266  -12.7553 C   0  0  1  0  0  0  0  0  0  0  0  0
  -20.3561  -16.9173  -13.9356 O   0  0  0  0  0  0  0  0  0  0  0  0
  -19.9213  -21.4780   -9.9519 C   0  0  2  0  0  0  0  0  0  0  0  0
  -19.1143  -22.4637   -9.2992 O   0  0  0  0  0  0  0  0  0  0  0  0
  -17.9041  -21.7710  -11.6266 C   0  0  2  0  0  0  0  0  0  0  0  0
  -18.9014  -21.6429  -12.6536 O   0  0  0  0  0  0  0  0  0  0  0  0
  -19.9353  -19.1485  -13.1049 C   0  0  0  0  0  0  0  0  0  0  0  0
  -18.7138  -19.4071  -13.9848 O   0  0  0  0  0  0  0  0  0  0  0  0
  -19.4485  -20.0359   -9.7739 C   0  0  0  0  0  0  0  0  0  0  0  0
  -18.0126  -20.0380   -9.7603 O   0  0  0  0  0  0  0  0  0  0  0  0
  -16.6239  -20.9520  -12.0595 C   0  0  1  0  0  0  0  0  0  0  0  0
  -16.9990  -19.5910  -12.1847 O   0  0  0  0  0  0  0  0  0  0  0  0
  -21.2777  -17.4488  -11.8524 C   0  0  0  0  0  0  0  0  0  0  0  0
  -18.7615  -14.7540  -12.8941 C   0  0  0  0  0  0  0  0  0  0  0  0
  1  2  1  6  0  0  0
  1  6  1  0  0  0  0
  1 21  1  0  0  0  0
  3  4  1  6  0  0  0
  3  8  1  0  0  0  0
  3 28  1  0  0  0  0
  5  9  1  0  0  0  0
  5 25  1  0  0  0  0
  5 29  1  1  0  0  0
  6  7  1  6  0  0  0
  6 11  1  0  0  0  0
  8 12  1  0  0  0  0
  9 10  1  1  0  0  0
  9 14  1  0  0  0  0
 11 16  1  0  0  0  0
 12 13  1  6  0  0  0
 12 17  1  0  0  0  0
 14 15  1  6  0  0  0
 14 18  1  0  0  0  0
 15 31  1  0  0  0  0
 16 20  1  0  0  0  0
 17  2  1  1  0  0  0
 17 22  1  0  0  0  0
 18 19  1  6  0  0  0
 18 24  1  0  0  0  0
 18 30  1  0  0  0  0
 20 21  1  0  0  0  0
 20 26  1  1  0  0  0
 22 23  1  6  0  0  0
 22 28  1  0  0  0  0
 24 25  1  0  0  0  0
 26 27  1  0  0  0  0
 28 29  1  1  0  0  0
M  END
>  <CHROM.1>
155.56474516,-170.28272777,50.66970980,49.39292235,-144.45318859,145.79912552
-18.43950807,-20.54419106,-11.51019543,1.56457039,-0.03483971,2.80108768

>  <Name>
ligand

>  <RI>
0

>  <Rbt.Current_Directory>
/home/itssahil/PROJECTS/Mol_Feturizer/New_Systems/rnas/4GPW

>  <Rbt.Executable>
rbdock ($Id: //depot/dev/client3/rdock/2013.1/src/exe/rbdock.cxx#4 $)

>  <Rbt.Library>
libRbt.so (2013.1, Build901 2013/11/27)

>  <Rbt.Parameter_File>
/export/apps/rDock/src/rDock_2013.1_src/data/scripts/dock_solv.prm

>  <Rbt.Receptor>
prm/blind_docking_100.prm

>  <SCORE>
43.1381

>  <SCORE.INTER>
21.3259

>  <SCORE.INTER.CONST>
1

>  <SCORE.INTER.POLAR>
0

>  <SCORE.INTER.ROT>
6

>  <SCORE.INTER.SOLV>
21.8306

>  <SCORE.INTER.VDW>
-0.659587

>  <SCORE.INTER.norm>
0.687932

>  <SCORE.INTRA>
3.7246

>  <SCORE.INTRA.DIHEDRAL>
-8.86799

>  <SCORE.INTRA.DIHEDRAL.0>
19.2558

>  <SCORE.INTRA.POLAR>
0

>  <SCORE.INTRA.POLAR.0>
0

>  <SCORE.INTRA.REPUL>
0

>  <SCORE.INTRA.REPUL.0>
0

>  <SCORE.INTRA.SOLV>
0.384892

>  <SCORE.INTRA.SOLV.lig_0>
-64.5929

>  <SCORE.INTRA.VDW>
7.96615

>  <SCORE.INTRA.VDW.0>
-4.40538

>  <SCORE.INTRA.norm>
0.120148

>  <SCORE.RESTR>
18.0876

>  <SCORE.RESTR.CAVITY>
18.0876

>  <SCORE.RESTR.norm>
0.583469

>  <SCORE.SYSTEM>
0

>  <SCORE.SYSTEM.CONST>
0

>  <SCORE.SYSTEM.DIHEDRAL>
0

>  <SCORE.SYSTEM.SOLV>
0

>  <SCORE.SYSTEM.norm>
0

>  <SCORE.heavy>
31

>  <SCORE.norm>
1.39155

>  <RMSD>
9.053

$$$$
ligand
 OpenBabel11021811493D
libRbt.so/2013.1/901 2013/11/27
 31 33  0  0  0  0  0  0  0  0999 V2000
  -19.0134  -24.7853  -10.5685 C   0  0  2  0  0  0  0  0  0  0  0  0
  -18.8448  -24.2241  -11.8620 O   0  0  0  0  0  0  0  0  0  0  0  0
  -16.1303  -21.0395  -11.0468 C   0  0  2  0  0  0  0  0  0  0  0  0
  -15.1680  -20.0091  -11.2693 N   0  0  0  0  0  0  0  0  0  0  0  0
  -17.3878  -18.1556  -11.5048 C   0  0  2  0  0  0  0  0  0  0  0  0
  -20.4226  -25.5109  -10.5589 C   0  0  2  0  0  0  0  0  0  0  0  0
  -20.4418  -26.5458  -11.6031 N   0  0  0  0  0  0  0  0  0  0  0  0
  -15.5293  -22.4119  -11.5811 C   0  0  0  0  0  0  0  0  0  0  0  0
  -18.5843  -17.1474  -11.5028 C   0  0  2  0  0  0  0  0  0  0  0  0
  -19.3081  -17.3319  -10.3092 O   0  0  0  0  0  0  0  0  0  0  0  0
  -21.5710  -24.4512  -10.7932 C   0  0  0  0  0  0  0  0  0  0  0  0
  -16.6009  -23.5657  -11.3270 C   0  0  2  0  0  0  0  0  0  0  0  0
  -16.0592  -24.8534  -11.8124 N   0  0  0  0  0  0  0  0  0  0  0  0
  -19.4930  -17.4094  -12.7752 C   0  0  1  0  0  0  0  0  0  0  0  0
  -20.6541  -16.4491  -12.7889 N   0  0  0  0  0  0  0  0  0  0  0  0
  -21.3050  -23.0906  -10.0249 C   0  0  0  0  0  0  0  0  0  0  0  0
  -17.9314  -23.2142  -12.1115 C   0  0  2  0  0  0  0  0  0  0  0  0
  -18.6047  -17.1834  -14.1195 C   0  0  1  0  0  0  0  0  0  0  0  0
  -18.0980  -15.8694  -14.2369 O   0  0  0  0  0  0  0  0  0  0  0  0
  -20.1011  -22.8274   -9.4680 C   0  0  2  0  0  0  0  0  0  0  0  0
  -19.0062  -23.7472   -9.5330 O   0  0  0  0  0  0  0  0  0  0  0  0
  -18.5051  -21.8367  -11.5812 C   0  0  2  0  0  0  0  0  0  0  0  0
  -19.7061  -21.5189  -12.3040 O   0  0  0  0  0  0  0  0  0  0  0  0
  -17.3975  -18.1789  -14.0927 C   0  0  0  0  0  0  0  0  0  0  0  0
  -16.6050  -18.0137  -12.7974 O   0  0  0  0  0  0  0  0  0  0  0  0
  -19.8089  -21.5284   -8.7183 C   0  0  0  0  0  0  0  0  0  0  0  0
  -19.5749  -21.8545   -7.3395 O   0  0  0  0  0  0  0  0  0  0  0  0
  -17.4465  -20.6901  -11.8302 C   0  0  1  0  0  0  0  0  0  0  0  0
  -17.9898  -19.4797  -11.3320 O   0  0  0  0  0  0  0  0  0  0  0  0
  -19.3647  -17.4236  -15.4416 C   0  0  0  0  0  0  0  0  0  0  0  0
  -21.8672  -16.8956  -13.5037 C   0  0  0  0  0  0  0  0  0  0  0  0
  1  2  1  6  0  0  0
  1  6  1  0  0  0  0
  1 21  1  0  0  0  0
  3  4  1  6  0  0  0
  3  8  1  0  0  0  0
  3 28  1  0  0  0  0
  5  9  1  0  0  0  0
  5 25  1  0  0  0  0
  5 29  1  6  0  0  0
  6  7  1  6  0  0  0
  6 11  1  0  0  0  0
  8 12  1  0  0  0  0
  9 10  1  1  0  0  0
  9 14  1  0  0  0  0
 11 16  1  0  0  0  0
 12 13  1  6  0  0  0
 12 17  1  0  0  0  0
 14 15  1  6  0  0  0
 14 18  1  0  0  0  0
 15 31  1  0  0  0  0
 16 20  1  0  0  0  0
 17  2  1  1  0  0  0
 17 22  1  0  0  0  0
 18 19  1  1  0  0  0
 18 24  1  0  0  0  0
 18 30  1  0  0  0  0
 20 21  1  0  0  0  0
 20 26  1  1  0  0  0
 22 23  1  6  0  0  0
 22 28  1  0  0  0  0
 24 25  1  0  0  0  0
 26 27  1  0  0  0  0
 28 29  1  1  0  0  0
M  END
>  <CHROM.1>
161.04846376,150.96977273,-154.03770658,42.03120764,114.30778617,68.98012399
-18.67895789,-20.84114390,-11.59973307,-1.63359635,0.22705559,-0.33981606

>  <Name>
ligand

>  <RI>
0

>  <Rbt.Current_Directory>
/home/itssahil/PROJECTS/Mol_Feturizer/New_Systems/rnas/4GPW

>  <Rbt.Executable>
rbdock ($Id: //depot/dev/client3/rdock/2013.1/src/exe/rbdock.cxx#4 $)

>  <Rbt.Library>
libRbt.so (2013.1, Build901 2013/11/27)

>  <Rbt.Parameter_File>
/export/apps/rDock/src/rDock_2013.1_src/data/scripts/dock_solv.prm

>  <Rbt.Receptor>
prm/blind_docking_100.prm

>  <SCORE>
24.8158

>  <SCORE.INTER>
5.27432

>  <SCORE.INTER.CONST>
1

>  <SCORE.INTER.POLAR>
0

>  <SCORE.INTER.ROT>
6

>  <SCORE.INTER.SOLV>
23.3135

>  <SCORE.INTER.VDW>
-11.8549

>  <SCORE.INTER.norm>
0.170139

>  <SCORE.INTRA>
-2.31511

>  <SCORE.INTRA.DIHEDRAL>
-10.1264

>  <SCORE.INTRA.DIHEDRAL.0>
19.2558

>  <SCORE.INTRA.POLAR>
0

>  <SCORE.INTRA.POLAR.0>
0

>  <SCORE.INTRA.REPUL>
0

>  <SCORE.INTRA.REPUL.0>
0

>  <SCORE.INTRA.SOLV>
-0.558975

>  <SCORE.INTRA.SOLV.lig_0>
-64.5929

>  <SCORE.INTRA.VDW>
3.02759

>  <SCORE.INTRA.VDW.0>
-4.40538

>  <SCORE.INTRA.norm>
-0.0746809

>  <SCORE.RESTR>
21.8566

>  <SCORE.RESTR.CAVITY>
21.8566

>  <SCORE.RESTR.norm>
0.705052

>  <SCORE.SYSTEM>
0

>  <SCORE.SYSTEM.CONST>
0

>  <SCORE.SYSTEM.DIHEDRAL>
0

>  <SCORE.SYSTEM.SOLV>
0

>  <SCORE.SYSTEM.norm>
0

>  <SCORE.heavy>
31

>  <SCORE.norm>
0.800511

>  <RMSD>
9.065

$$$$
ligand
 OpenBabel11021811493D
libRbt.so/2013.1/901 2013/11/27
 31 33  0  0  0  0  0  0  0  0999 V2000
  -18.6383  -24.6015  -10.9560 C   0  0  2  0  0  0  0  0  0  0  0  0
  -18.7017  -23.8368  -12.1509 O   0  0  0  0  0  0  0  0  0  0  0  0
  -16.2638  -20.5048  -11.0883 C   0  0  2  0  0  0  0  0  0  0  0  0
  -15.5144  -19.2971  -11.2190 N   0  0  0  0  0  0  0  0  0  0  0  0
  -18.7440  -17.9249  -10.9011 C   0  0  2  0  0  0  0  0  0  0  0  0
  -19.8825  -25.5834  -10.9684 C   0  0  2  0  0  0  0  0  0  0  0  0
  -19.8122  -26.4396  -12.1617 N   0  0  0  0  0  0  0  0  0  0  0  0
  -15.6565  -21.5834  -12.0872 C   0  0  0  0  0  0  0  0  0  0  0  0
  -19.7921  -18.1105  -12.0479 C   0  0  2  0  0  0  0  0  0  0  0  0
  -20.8036  -18.9706  -11.5792 O   0  0  0  0  0  0  0  0  0  0  0  0
  -21.2233  -24.7476  -10.9517 C   0  0  0  0  0  0  0  0  0  0  0  0
  -16.4887  -22.9359  -11.9374 C   0  0  2  0  0  0  0  0  0  0  0  0
  -15.9362  -23.9556  -12.8551 N   0  0  0  0  0  0  0  0  0  0  0  0
  -19.0706  -18.7104  -13.3257 C   0  0  1  0  0  0  0  0  0  0  0  0
  -20.0658  -18.8998  -14.4411 N   0  0  0  0  0  0  0  0  0  0  0  0
  -21.1388  -23.4871   -9.9943 C   0  0  0  0  0  0  0  0  0  0  0  0
  -18.0036  -22.6510  -12.3023 C   0  0  2  0  0  0  0  0  0  0  0  0
  -17.9147  -17.6768  -13.8189 C   0  0  1  0  0  0  0  0  0  0  0  0
  -18.4217  -16.4100  -14.1869 O   0  0  0  0  0  0  0  0  0  0  0  0
  -19.9556  -23.0760   -9.4846 C   0  0  2  0  0  0  0  0  0  0  0  0
  -18.7219  -23.7434   -9.7700 O   0  0  0  0  0  0  0  0  0  0  0  0
  -18.5863  -21.5616  -11.3115 C   0  0  2  0  0  0  0  0  0  0  0  0
  -19.9574  -21.3006  -11.6545 O   0  0  0  0  0  0  0  0  0  0  0  0
  -16.8907  -17.4802  -12.6519 C   0  0  0  0  0  0  0  0  0  0  0  0
  -17.6146  -17.0330  -11.3833 O   0  0  0  0  0  0  0  0  0  0  0  0
  -19.8360  -21.8674   -8.5572 C   0  0  0  0  0  0  0  0  0  0  0  0
  -20.8554  -21.9768   -7.5517 O   0  0  0  0  0  0  0  0  0  0  0  0
  -17.7645  -20.2197  -11.4558 C   0  0  1  0  0  0  0  0  0  0  0  0
  -18.3063  -19.2770  -10.5466 O   0  0  0  0  0  0  0  0  0  0  0  0
  -17.1151  -18.1461  -15.0531 C   0  0  0  0  0  0  0  0  0  0  0  0
  -21.0327  -20.0044  -14.2781 C   0  0  0  0  0  0  0  0  0  0  0  0
  1  2  1  6  0  0  0
  1  6  1  0  0  0  0
  1 21  1  0  0  0  0
  3  4  1  6  0  0  0
  3  8  1  0  0  0  0
  3 28  1  0  0  0  0
  5  9  1  0  0  0  0
  5 25  1  0  0  0  0
  5 29  1  6  0  0  0
  6  7  1  6  0  0  0
  6 11  1  0  0  0  0
  8 12  1  0  0  0  0
  9 10  1  1  0  0  0
  9 14  1  0  0  0  0
 11 16  1  0  0  0  0
 12 13  1  6  0  0  0
 12 17  1  0  0  0  0
 14 15  1  6  0  0  0
 14 18  1  0  0  0  0
 15 31  1  0  0  0  0
 16 20  1  0  0  0  0
 17  2  1  1  0  0  0
 17 22  1  0  0  0  0
 18 19  1  6  0  0  0
 18 24  1  0  0  0  0
 18 30  1  0  0  0  0
 20 21  1  0  0  0  0
 20 26  1  1  0  0  0
 22 23  1  6  0  0  0
 22 28  1  0  0  0  0
 24 25  1  0  0  0  0
 26 27  1  0  0  0  0
 28 29  1  1  0  0  0
M  END
>  <CHROM.1>
161.94356835,55.55627151,-72.23239249,52.27529401,47.03506764,114.25650666
-18.69657370,-21.00286291,-11.68805031,-1.81822562,0.55633880,-0.22750061

>  <Name>
ligand

>  <RI>
0

>  <Rbt.Current_Directory>
/home/itssahil/PROJECTS/Mol_Feturizer/New_Systems/rnas/4GPW

>  <Rbt.Executable>
rbdock ($Id: //depot/dev/client3/rdock/2013.1/src/exe/rbdock.cxx#4 $)

>  <Rbt.Library>
libRbt.so (2013.1, Build901 2013/11/27)

>  <Rbt.Parameter_File>
/export/apps/rDock/src/rDock_2013.1_src/data/scripts/dock_solv.prm

>  <Rbt.Receptor>
prm/blind_docking_100.prm

>  <SCORE>
55.2434

>  <SCORE.INTER>
34.9647

>  <SCORE.INTER.CONST>
1

>  <SCORE.INTER.POLAR>
0

>  <SCORE.INTER.ROT>
6

>  <SCORE.INTER.SOLV>
27.3865

>  <SCORE.INTER.VDW>
6.58092

>  <SCORE.INTER.norm>
1.12789

>  <SCORE.INTRA>
4.71341

>  <SCORE.INTRA.DIHEDRAL>
-6.83479

>  <SCORE.INTRA.DIHEDRAL.0>
19.2558

>  <SCORE.INTRA.POLAR>
0

>  <SCORE.INTRA.POLAR.0>
0

>  <SCORE.INTRA.REPUL>
0

>  <SCORE.INTRA.REPUL.0>
0

>  <SCORE.INTRA.SOLV>
2.13425

>  <SCORE.INTRA.SOLV.lig_0>
-64.5929

>  <SCORE.INTRA.VDW>
7.06367

>  <SCORE.INTRA.VDW.0>
-4.40538

>  <SCORE.INTRA.norm>
0.152045

>  <SCORE.RESTR>
15.5653

>  <SCORE.RESTR.CAVITY>
15.5653

>  <SCORE.RESTR.norm>
0.502108

>  <SCORE.SYSTEM>
0

>  <SCORE.SYSTEM.CONST>
0

>  <SCORE.SYSTEM.DIHEDRAL>
0

>  <SCORE.SYSTEM.SOLV>
0

>  <SCORE.SYSTEM.norm>
0

>  <SCORE.heavy>
31

>  <SCORE.norm>
1.78205

>  <RMSD>
9.072

$$$$
ligand
 OpenBabel11021811493D
libRbt.so/2013.1/901 2013/11/27
 31 33  0  0  0  0  0  0  0  0999 V2000
  -19.1031  -24.7090  -10.7384 C   0  0  2  0  0  0  0  0  0  0  0  0
  -18.7672  -24.1794  -12.0124 O   0  0  0  0  0  0  0  0  0  0  0  0
  -15.9844  -21.1366  -10.9298 C   0  0  2  0  0  0  0  0  0  0  0  0
  -14.9613  -20.1494  -11.0576 N   0  0  0  0  0  0  0  0  0  0  0  0
  -17.2088  -18.1636  -11.6635 C   0  0  2  0  0  0  0  0  0  0  0  0
  -20.5914  -25.2451  -10.8379 C   0  0  2  0  0  0  0  0  0  0  0  0
  -20.6672  -26.2726  -11.8868 N   0  0  0  0  0  0  0  0  0  0  0  0
  -15.4057  -22.5282  -11.4382 C   0  0  0  0  0  0  0  0  0  0  0  0
  -18.4176  -17.1794  -11.5288 C   0  0  2  0  0  0  0  0  0  0  0  0
  -18.9468  -17.3137  -10.2308 O   0  0  0  0  0  0  0  0  0  0  0  0
  -21.5717  -24.0460  -11.1505 C   0  0  0  0  0  0  0  0  0  0  0  0
  -16.5457  -23.6340  -11.2897 C   0  0  2  0  0  0  0  0  0  0  0  0
  -16.0261  -24.9390  -11.7526 N   0  0  0  0  0  0  0  0  0  0  0  0
  -19.5015  -17.5258  -12.6326 C   0  0  1  0  0  0  0  0  0  0  0  0
  -20.6764  -16.5896  -12.5164 N   0  0  0  0  0  0  0  0  0  0  0  0
  -21.1890  -22.7286  -10.3564 C   0  0  0  0  0  0  0  0  0  0  0  0
  -17.7917  -23.2100  -12.1713 C   0  0  2  0  0  0  0  0  0  0  0  0
  -18.8338  -17.3550  -14.1065 C   0  0  1  0  0  0  0  0  0  0  0  0
  -18.3860  -16.0398  -14.3652 O   0  0  0  0  0  0  0  0  0  0  0  0
  -20.0060  -22.6222   -9.7100 C   0  0  2  0  0  0  0  0  0  0  0  0
  -19.0382  -23.6768   -9.6991 O   0  0  0  0  0  0  0  0  0  0  0  0
  -18.3426  -21.8144  -11.6647 C   0  0  2  0  0  0  0  0  0  0  0  0
  -19.4661  -21.4311  -12.4750 O   0  0  0  0  0  0  0  0  0  0  0  0
  -17.6103  -18.3248  -14.2151 C   0  0  0  0  0  0  0  0  0  0  0  0
  -16.6352  -18.0760  -13.0660 O   0  0  0  0  0  0  0  0  0  0  0  0
  -19.6041  -21.3694   -8.9330 C   0  0  0  0  0  0  0  0  0  0  0  0
  -19.5469  -21.7107   -7.5393 O   0  0  0  0  0  0  0  0  0  0  0  0
  -17.2163  -20.7154  -11.8092 C   0  0  1  0  0  0  0  0  0  0  0  0
  -17.7420  -19.4877  -11.3350 O   0  0  0  0  0  0  0  0  0  0  0  0
  -19.7788  -17.6795  -15.2832 C   0  0  0  0  0  0  0  0  0  0  0  0
  -21.8861  -16.9559  -13.2808 C   0  0  0  0  0  0  0  0  0  0  0  0
  1  2  1  6  0  0  0
  1  6  1  0  0  0  0
  1 21  1  0  0  0  0
  3  4  1  6  0  0  0
  3  8  1  0  0  0  0
  3 28  1  0  0  0  0
  5  9  1  0  0  0  0
  5 25  1  0  0  0  0
  5 29  1  6  0  0  0
  6  7  1  6  0  0  0
  6 11  1  0  0  0  0
  8 12  1  0  0  0  0
  9 10  1  1  0  0  0
  9 14  1  0  0  0  0
 11 16  1  0  0  0  0
 12 13  1  6  0  0  0
 12 17  1  0  0  0  0
 14 15  1  6  0  0  0
 14 18  1  0  0  0  0
 15 31  1  0  0  0  0
 16 20  1  0  0  0  0
 17  2  1  1  0  0  0
 17 22  1  0  0  0  0
 18 19  1  6  0  0  0
 18 24  1  0  0  0  0
 18 30  1  0  0  0  0
 20 21  1  0  0  0  0
 20 26  1  1  0  0  0
 22 23  1  6  0  0  0
 22 28  1  0  0  0  0
 24 25  1  0  0  0  0
 26 27  1  0  0  0  0
 28 29  1  1  0  0  0
M  END
>  <CHROM.1>
155.28035225,153.52164579,-167.63046957,44.72483676,113.03639080,81.80217080
-18.64404011,-20.82717571,-11.66370728,1.59984903,-0.07868885,2.81635531

>  <Name>
ligand

>  <RI>
0

>  <Rbt.Current_Directory>
/home/itssahil/PROJECTS/Mol_Feturizer/New_Systems/rnas/4GPW

>  <Rbt.Executable>
rbdock ($Id: //depot/dev/client3/rdock/2013.1/src/exe/rbdock.cxx#4 $)

>  <Rbt.Library>
libRbt.so (2013.1, Build901 2013/11/27)

>  <Rbt.Parameter_File>
/export/apps/rDock/src/rDock_2013.1_src/data/scripts/dock_solv.prm

>  <Rbt.Receptor>
prm/blind_docking_100.prm

>  <SCORE>
30.1886

>  <SCORE.INTER>
9.67443

>  <SCORE.INTER.CONST>
1

>  <SCORE.INTER.POLAR>
0

>  <SCORE.INTER.ROT>
6

>  <SCORE.INTER.SOLV>
24.6829

>  <SCORE.INTER.VDW>
-9.37801

>  <SCORE.INTER.norm>
0.312078

>  <SCORE.INTRA>
1.09287

>  <SCORE.INTRA.DIHEDRAL>
-8.63191

>  <SCORE.INTRA.DIHEDRAL.0>
19.2558

>  <SCORE.INTRA.POLAR>
0

>  <SCORE.INTRA.POLAR.0>
0

>  <SCORE.INTRA.REPUL>
0

>  <SCORE.INTRA.REPUL.0>
0

>  <SCORE.INTRA.SOLV>
-1.03081

>  <SCORE.INTRA.SOLV.lig_0>
-64.5929

>  <SCORE.INTRA.VDW>
5.92423

>  <SCORE.INTRA.VDW.0>
-4.40538

>  <SCORE.INTRA.norm>
0.0352538

>  <SCORE.RESTR>
19.4213

>  <SCORE.RESTR.CAVITY>
19.4213

>  <SCORE.RESTR.norm>
0.626493

>  <SCORE.SYSTEM>
0

>  <SCORE.SYSTEM.CONST>
0

>  <SCORE.SYSTEM.DIHEDRAL>
0

>  <SCORE.SYSTEM.SOLV>
0

>  <SCORE.SYSTEM.norm>
0

>  <SCORE.heavy>
31

>  <SCORE.norm>
0.973825

>  <RMSD>
9.074

$$$$
ligand
 OpenBabel11021811493D
libRbt.so/2013.1/901 2013/11/27
 31 33  0  0  0  0  0  0  0  0999 V2000
  -19.1684  -24.8228  -10.4843 C   0  0  2  0  0  0  0  0  0  0  0  0
  -18.9291  -24.2903  -11.7788 O   0  0  0  0  0  0  0  0  0  0  0  0
  -16.1449  -21.1849  -10.8956 C   0  0  2  0  0  0  0  0  0  0  0  0
  -15.1478  -20.1830  -11.0938 N   0  0  0  0  0  0  0  0  0  0  0  0
  -17.3766  -18.2518  -11.4976 C   0  0  2  0  0  0  0  0  0  0  0  0
  -20.6307  -25.4342  -10.4985 C   0  0  2  0  0  0  0  0  0  0  0  0
  -20.7107  -26.4751  -11.5338 N   0  0  0  0  0  0  0  0  0  0  0  0
  -15.5707  -22.5746  -11.4143 C   0  0  0  0  0  0  0  0  0  0  0  0
  -18.5752  -17.2492  -11.4187 C   0  0  2  0  0  0  0  0  0  0  0  0
  -19.1857  -17.3977  -10.1585 O   0  0  0  0  0  0  0  0  0  0  0  0
  -21.6862  -24.2893  -10.7665 C   0  0  0  0  0  0  0  0  0  0  0  0
  -16.6814  -23.6967  -11.1872 C   0  0  2  0  0  0  0  0  0  0  0  0
  -16.1651  -25.0000  -11.6586 N   0  0  0  0  0  0  0  0  0  0  0  0
  -19.5943  -17.5566  -12.5935 C   0  0  1  0  0  0  0  0  0  0  0  0
  -20.7587  -16.6023  -12.5318 N   0  0  0  0  0  0  0  0  0  0  0  0
  -21.3287  -22.9461  -10.0046 C   0  0  0  0  0  0  0  0  0  0  0  0
  -17.9808  -23.3074  -12.0052 C   0  0  2  0  0  0  0  0  0  0  0  0
  -18.8340  -17.3708  -14.0200 C   0  0  1  0  0  0  0  0  0  0  0  0
  -18.3497  -16.0591  -14.2254 O   0  0  0  0  0  0  0  0  0  0  0  0
  -20.1194  -22.7735   -9.4244 C   0  0  2  0  0  0  0  0  0  0  0  0
  -19.1001  -23.7778   -9.4580 O   0  0  0  0  0  0  0  0  0  0  0  0
  -18.5275  -21.9134  -11.4898 C   0  0  2  0  0  0  0  0  0  0  0  0
  -19.7002  -21.5616  -12.2428 O   0  0  0  0  0  0  0  0  0  0  0  0
  -17.6222  -18.3597  -14.0717 C   0  0  0  0  0  0  0  0  0  0  0  0
  -16.7160  -18.1488  -12.8602 O   0  0  0  0  0  0  0  0  0  0  0  0
  -19.7404  -21.4940   -8.6800 C   0  0  0  0  0  0  0  0  0  0  0  0
  -18.3276  -21.2908   -8.8374 O   0  0  0  0  0  0  0  0  0  0  0  0
  -17.4302  -20.7982  -11.7121 C   0  0  1  0  0  0  0  0  0  0  0  0
  -17.9507  -19.5721  -11.2280 O   0  0  0  0  0  0  0  0  0  0  0  0
  -19.7097  -17.6574  -15.2586 C   0  0  0  0  0  0  0  0  0  0  0  0
  -21.9306  -16.9414  -13.3645 C   0  0  0  0  0  0  0  0  0  0  0  0
  1  2  1  6  0  0  0
  1  6  1  0  0  0  0
  1 21  1  0  0  0  0
  3  4  1  6  0  0  0
  3  8  1  0  0  0  0
  3 28  1  0  0  0  0
  5  9  1  0  0  0  0
  5 25  1  0  0  0  0
  5 29  1  6  0  0  0
  6  7  1  6  0  0  0
  6 11  1  0  0  0  0
  8 12  1  0  0  0  0
  9 10  1  1  0  0  0
  9 14  1  0  0  0  0
 11 16  1  0  0  0  0
 12 13  1  6  0  0  0
 12 17  1  0  0  0  0
 14 15  1  6  0  0  0
 14 18  1  0  0  0  0
 15 31  1  0  0  0  0
 16 20  1  0  0  0  0
 17  2  1  1  0  0  0
 17 22  1  0  0  0  0
 18 19  1  6  0  0  0
 18 24  1  0  0  0  0
 18 30  1  0  0  0  0
 20 21  1  0  0  0  0
 20 26  1  1  0  0  0
 22 23  1  6  0  0  0
 22 28  1  0  0  0  0
 24 25  1  0  0  0  0
 26 27  1  0  0  0  0
 28 29  1  1  0  0  0
M  END
>  <CHROM.1>
157.58806990,152.33991300,-166.97145904,43.54186504,-148.62231051,75.32638892
-18.71093236,-20.89478997,-11.56388267,1.60361235,-0.03335550,2.81461000

>  <Name>
ligand

>  <RI>
0

>  <Rbt.Current_Directory>
/home/itssahil/PROJECTS/Mol_Feturizer/New_Systems/rnas/4GPW

>  <Rbt.Executable>
rbdock ($Id: //depot/dev/client3/rdock/2013.1/src/exe/rbdock.cxx#4 $)

>  <Rbt.Library>
libRbt.so (2013.1, Build901 2013/11/27)

>  <Rbt.Parameter_File>
/export/apps/rDock/src/rDock_2013.1_src/data/scripts/dock_solv.prm

>  <Rbt.Receptor>
prm/blind_docking_100.prm

>  <SCORE>
26.3288

>  <SCORE.INTER>
5.00315

>  <SCORE.INTER.CONST>
1

>  <SCORE.INTER.POLAR>
0

>  <SCORE.INTER.ROT>
6

>  <SCORE.INTER.SOLV>
23.0452

>  <SCORE.INTER.VDW>
-11.9463

>  <SCORE.INTER.norm>
0.161392

>  <SCORE.INTRA>
1.11749

>  <SCORE.INTRA.DIHEDRAL>
-8.81674

>  <SCORE.INTRA.DIHEDRAL.0>
19.2558

>  <SCORE.INTRA.POLAR>
0

>  <SCORE.INTRA.POLAR.0>
0

>  <SCORE.INTRA.REPUL>
0

>  <SCORE.INTRA.REPUL.0>
0

>  <SCORE.INTRA.SOLV>
0.733542

>  <SCORE.INTRA.SOLV.lig_0>
-64.5929

>  <SCORE.INTRA.VDW>
5.15909

>  <SCORE.INTRA.VDW.0>
-4.40538

>  <SCORE.INTRA.norm>
0.036048

>  <SCORE.RESTR>
20.2082

>  <SCORE.RESTR.CAVITY>
20.2082

>  <SCORE.RESTR.norm>
0.651877

>  <SCORE.SYSTEM>
0

>  <SCORE.SYSTEM.CONST>
0

>  <SCORE.SYSTEM.DIHEDRAL>
0

>  <SCORE.SYSTEM.SOLV>
0

>  <SCORE.SYSTEM.norm>
0

>  <SCORE.heavy>
31

>  <SCORE.norm>
0.849317

>  <RMSD>
9.112

$$$$
ligand
 OpenBabel11021811493D
libRbt.so/2013.1/901 2013/11/27
 31 33  0  0  0  0  0  0  0  0999 V2000
  -15.5122  -24.0780  -11.6528 C   0  0  2  0  0  0  0  0  0  0  0  0
  -16.1987  -23.9152  -10.4204 O   0  0  0  0  0  0  0  0  0  0  0  0
  -20.2322  -23.7222  -11.7874 C   0  0  2  0  0  0  0  0  0  0  0  0
  -21.6544  -23.6072  -11.7533 N   0  0  0  0  0  0  0  0  0  0  0  0
  -20.6169  -20.0874  -11.5451 C   0  0  2  0  0  0  0  0  0  0  0  0
  -14.0137  -24.4567  -11.3012 C   0  0  2  0  0  0  0  0  0  0  0  0
  -14.0002  -25.6947  -10.5080 N   0  0  0  0  0  0  0  0  0  0  0  0
  -19.8074  -24.9678  -10.8941 C   0  0  0  0  0  0  0  0  0  0  0  0
  -20.6960  -19.1378  -12.7862 C   0  0  2  0  0  0  0  0  0  0  0  0
  -21.3671  -19.8228  -13.8173 O   0  0  0  0  0  0  0  0  0  0  0  0
  -13.3346  -23.2708  -10.5082 C   0  0  0  0  0  0  0  0  0  0  0  0
  -18.2186  -25.1019  -10.9367 C   0  0  2  0  0  0  0  0  0  0  0  0
  -17.8021  -26.2592  -10.1155 N   0  0  0  0  0  0  0  0  0  0  0  0
  -19.2296  -18.7262  -13.2259 C   0  0  1  0  0  0  0  0  0  0  0  0
  -19.2851  -17.8134  -14.4235 N   0  0  0  0  0  0  0  0  0  0  0  0
  -13.7462  -21.8492  -11.0757 C   0  0  0  0  0  0  0  0  0  0  0  0
  -17.5746  -23.7751  -10.3587 C   0  0  2  0  0  0  0  0  0  0  0  0
  -18.5057  -17.9424  -11.9975 C   0  0  1  0  0  0  0  0  0  0  0  0
  -19.1744  -16.7545  -11.6247 O   0  0  0  0  0  0  0  0  0  0  0  0
  -14.7618  -21.7177  -11.9589 C   0  0  2  0  0  0  0  0  0  0  0  0
  -15.5180  -22.8367  -12.4332 O   0  0  0  0  0  0  0  0  0  0  0  0
  -18.0232  -22.5435  -11.2474 C   0  0  2  0  0  0  0  0  0  0  0  0
  -17.4438  -21.3422  -10.7117 O   0  0  0  0  0  0  0  0  0  0  0  0
  -18.4597  -18.8948  -10.7565 C   0  0  0  0  0  0  0  0  0  0  0  0
  -19.8634  -19.3966  -10.4232 O   0  0  0  0  0  0  0  0  0  0  0  0
  -15.1850  -20.3646  -12.5288 C   0  0  0  0  0  0  0  0  0  0  0  0
  -16.6199  -20.3312  -12.5742 O   0  0  0  0  0  0  0  0  0  0  0  0
  -19.5970  -22.4069  -11.2090 C   0  0  1  0  0  0  0  0  0  0  0  0
  -19.9589  -21.3053  -12.0239 O   0  0  0  0  0  0  0  0  0  0  0  0
  -17.0560  -17.4958  -12.2836 C   0  0  0  0  0  0  0  0  0  0  0  0
  -18.0092  -17.5777  -15.1293 C   0  0  0  0  0  0  0  0  0  0  0  0
  1  2  1  1  0  0  0
  1  6  1  0  0  0  0
  1 21  1  0  0  0  0
  3  4  1  1  0  0  0
  3  8  1  0  0  0  0
  3 28  1  0  0  0  0
  5  9  1  0  0  0  0
  5 25  1  0  0  0  0
  5 29  1  6  0  0  0
  6  7  1  1  0  0  0
  6 11  1  0  0  0  0
  8 12  1  0  0  0  0
  9 10  1  6  0  0  0
  9 14  1  0  0  0  0
 11 16  1  0  0  0  0
 12 13  1  1  0  0  0
 12 17  1  0  0  0  0
 14 15  1  6  0  0  0
 14 18  1  0  0  0  0
 15 31  1  0  0  0  0
 16 20  1  0  0  0  0
 17  2  1  6  0  0  0
 17 22  1  0  0  0  0
 18 19  1  1  0  0  0
 18 24  1  0  0  0  0
 18 30  1  0  0  0  0
 20 21  1  0  0  0  0
 20 26  1  6  0  0  0
 22 23  1  1  0  0  0
 22 28  1  0  0  0  0
 24 25  1  0  0  0  0
 26 27  1  0  0  0  0
 28 29  1  6  0  0  0
M  END
>  <CHROM.1>
-170.25888923,175.51047591,-167.18614222,62.18155482,-139.21630280,124.97076404
-17.79545551,-21.47050434,-11.75322982,-1.02946623,-0.02775304,-0.29515598

>  <Name>
ligand

>  <RI>
0

>  <Rbt.Current_Directory>
/home/itssahil/PROJECTS/Mol_Feturizer/New_Systems/rnas/4GPW

>  <Rbt.Executable>
rbdock ($Id: //depot/dev/client3/rdock/2013.1/src/exe/rbdock.cxx#4 $)

>  <Rbt.Library>
libRbt.so (2013.1, Build901 2013/11/27)

>  <Rbt.Parameter_File>
/export/apps/rDock/src/rDock_2013.1_src/data/scripts/dock_solv.prm

>  <Rbt.Receptor>
prm/blind_docking_60.prm

>  <SCORE>
46.3111

>  <SCORE.INTER>
24.9399

>  <SCORE.INTER.CONST>
1

>  <SCORE.INTER.POLAR>
0

>  <SCORE.INTER.ROT>
6

>  <SCORE.INTER.SOLV>
22.8632

>  <SCORE.INTER.VDW>
1.40551

>  <SCORE.INTER.norm>
0.804512

>  <SCORE.INTRA>
1.99464

>  <SCORE.INTRA.DIHEDRAL>
-9.34022

>  <SCORE.INTRA.DIHEDRAL.0>
19.2558

>  <SCORE.INTRA.POLAR>
0

>  <SCORE.INTRA.POLAR.0>
0

>  <SCORE.INTRA.REPUL>
0

>  <SCORE.INTRA.REPUL.0>
0

>  <SCORE.INTRA.SOLV>
0.259651

>  <SCORE.INTRA.SOLV.lig_0>
-64.5929

>  <SCORE.INTRA.VDW>
6.53493

>  <SCORE.INTRA.VDW.0>
-4.40538

>  <SCORE.INTRA.norm>
0.0643433

>  <SCORE.RESTR>
19.3766

>  <SCORE.RESTR.CAVITY>
19.3766

>  <SCORE.RESTR.norm>
0.625053

>  <SCORE.SYSTEM>
0

>  <SCORE.SYSTEM.CONST>
0

>  <SCORE.SYSTEM.DIHEDRAL>
0

>  <SCORE.SYSTEM.SOLV>
0

>  <SCORE.SYSTEM.norm>
0

>  <SCORE.heavy>
31

>  <SCORE.norm>
1.49391

>  <RMSD>
9.124

$$$$
ligand
 OpenBabel11021811493D
libRbt.so/2013.1/901 2013/11/27
 31 33  0  0  0  0  0  0  0  0999 V2000
  -18.9904  -24.9943  -10.5285 C   0  0  2  0  0  0  0  0  0  0  0  0
  -18.7770  -24.4636  -11.8283 O   0  0  0  0  0  0  0  0  0  0  0  0
  -16.1644  -21.2058  -10.9706 C   0  0  2  0  0  0  0  0  0  0  0  0
  -15.2249  -20.1513  -11.1774 N   0  0  0  0  0  0  0  0  0  0  0  0
  -17.5047  -18.3542  -11.4967 C   0  0  2  0  0  0  0  0  0  0  0  0
  -20.4623  -25.5820  -10.5045 C   0  0  2  0  0  0  0  0  0  0  0  0
  -20.5866  -26.6198  -11.5386 N   0  0  0  0  0  0  0  0  0  0  0  0
  -15.5167  -22.5639  -11.4864 C   0  0  0  0  0  0  0  0  0  0  0  0
  -18.7238  -17.3789  -11.3918 C   0  0  2  0  0  0  0  0  0  0  0  0
  -19.3530  -17.5992  -10.1515 O   0  0  0  0  0  0  0  0  0  0  0  0
  -21.5058  -24.4197  -10.7430 C   0  0  0  0  0  0  0  0  0  0  0  0
  -16.5628  -23.7445  -11.2496 C   0  0  2  0  0  0  0  0  0  0  0  0
  -15.9775  -25.0193  -11.7182 N   0  0  0  0  0  0  0  0  0  0  0  0
  -19.7162  -17.6483  -12.5984 C   0  0  1  0  0  0  0  0  0  0  0  0
  -20.8998  -16.7197  -12.5124 N   0  0  0  0  0  0  0  0  0  0  0  0
  -21.1065  -23.0837   -9.9893 C   0  0  0  0  0  0  0  0  0  0  0  0
  -17.8854  -23.4309  -12.0631 C   0  0  2  0  0  0  0  0  0  0  0  0
  -18.9351  -17.3801  -14.0003 C   0  0  1  0  0  0  0  0  0  0  0  0
  -18.4728  -16.0513  -14.1340 O   0  0  0  0  0  0  0  0  0  0  0  0
  -19.8796  -22.9316   -9.4413 C   0  0  2  0  0  0  0  0  0  0  0  0
  -18.8779  -23.9522   -9.5032 O   0  0  0  0  0  0  0  0  0  0  0  0
  -18.5058  -22.0670  -11.5508 C   0  0  2  0  0  0  0  0  0  0  0  0
  -19.6994  -21.7835  -12.2996 O   0  0  0  0  0  0  0  0  0  0  0  0
  -17.7037  -18.3427  -14.0771 C   0  0  0  0  0  0  0  0  0  0  0  0
  -16.8228  -18.1736  -12.8406 O   0  0  0  0  0  0  0  0  0  0  0  0
  -19.4603  -21.6596   -8.7057 C   0  0  0  0  0  0  0  0  0  0  0  0
  -19.7481  -20.5393   -9.5567 O   0  0  0  0  0  0  0  0  0  0  0  0
  -17.4727  -20.8940  -11.7826 C   0  0  1  0  0  0  0  0  0  0  0  0
  -18.0577  -19.6964  -11.3010 O   0  0  0  0  0  0  0  0  0  0  0  0
  -19.7835  -17.6229  -15.2669 C   0  0  0  0  0  0  0  0  0  0  0  0
  -22.0383  -17.0227  -13.4034 C   0  0  0  0  0  0  0  0  0  0  0  0
  1  2  1  6  0  0  0
  1  6  1  0  0  0  0
  1 21  1  0  0  0  0
  3  4  1  6  0  0  0
  3  8  1  0  0  0  0
  3 28  1  0  0  0  0
  5  9  1  0  0  0  0
  5 25  1  0  0  0  0
  5 29  1  6  0  0  0
  6  7  1  6  0  0  0
  6 11  1  0  0  0  0
  8 12  1  0  0  0  0
  9 10  1  1  0  0  0
  9 14  1  0  0  0  0
 11 16  1  0  0  0  0
 12 13  1  6  0  0  0
 12 17  1  0  0  0  0
 14 15  1  1  0  0  0
 14 18  1  0  0  0  0
 15 31  1  0  0  0  0
 16 20  1  0  0  0  0
 17  2  1  1  0  0  0
 17 22  1  0  0  0  0
 18 19  1  6  0  0  0
 18 24  1  0  0  0  0
 18 30  1  0  0  0  0
 20 21  1  0  0  0  0
 20 26  1  1  0  0  0
 22 23  1  6  0  0  0
 22 28  1  0  0  0  0
 24 25  1  0  0  0  0
 26 27  1  0  0  0  0
 28 29  1  1  0  0  0
M  END
>  <CHROM.1>
153.00177047,155.34034450,-168.28677274,44.16522573,-51.38137298,70.64104414
-18.74172721,-20.96023259,-11.61217011,1.56260983,-0.11073571,2.83019832

>  <Name>
ligand

>  <RI>
0

>  <Rbt.Current_Directory>
/home/itssahil/PROJECTS/Mol_Feturizer/New_Systems/rnas/4GPW

>  <Rbt.Executable>
rbdock ($Id: //depot/dev/client3/rdock/2013.1/src/exe/rbdock.cxx#4 $)

>  <Rbt.Library>
libRbt.so (2013.1, Build901 2013/11/27)

>  <Rbt.Parameter_File>
/export/apps/rDock/src/rDock_2013.1_src/data/scripts/dock_solv.prm

>  <Rbt.Receptor>
prm/blind_docking_60.prm

>  <SCORE>
28.4372

>  <SCORE.INTER>
5.46131

>  <SCORE.INTER.CONST>
1

>  <SCORE.INTER.POLAR>
0

>  <SCORE.INTER.ROT>
6

>  <SCORE.INTER.SOLV>
24.2928

>  <SCORE.INTER.VDW>
-12.0567

>  <SCORE.INTER.norm>
0.176171

>  <SCORE.INTRA>
3.67288

>  <SCORE.INTRA.DIHEDRAL>
-8.27458

>  <SCORE.INTRA.DIHEDRAL.0>
19.2558

>  <SCORE.INTRA.POLAR>
0

>  <SCORE.INTRA.POLAR.0>
0

>  <SCORE.INTRA.REPUL>
0.0579609

>  <SCORE.INTRA.REPUL.0>
0

>  <SCORE.INTRA.SOLV>
0.991754

>  <SCORE.INTRA.SOLV.lig_0>
-64.5929

>  <SCORE.INTRA.VDW>
7.02448

>  <SCORE.INTRA.VDW.0>
-4.40538

>  <SCORE.INTRA.norm>
0.11848

>  <SCORE.RESTR>
19.303

>  <SCORE.RESTR.CAVITY>
19.303

>  <SCORE.RESTR.norm>
0.622677

>  <SCORE.SYSTEM>
0

>  <SCORE.SYSTEM.CONST>
0

>  <SCORE.SYSTEM.DIHEDRAL>
0

>  <SCORE.SYSTEM.SOLV>
0

>  <SCORE.SYSTEM.norm>
0

>  <SCORE.heavy>
31

>  <SCORE.norm>
0.917328

>  <RMSD>
9.129

$$$$
ligand
 OpenBabel11021811493D
libRbt.so/2013.1/901 2013/11/27
 31 33  0  0  0  0  0  0  0  0999 V2000
  -18.7723  -24.5029  -10.9095 C   0  0  2  0  0  0  0  0  0  0  0  0
  -18.5022  -23.8663  -12.1498 O   0  0  0  0  0  0  0  0  0  0  0  0
  -15.5566  -21.0133  -10.9843 C   0  0  2  0  0  0  0  0  0  0  0  0
  -14.5127  -20.0456  -11.0902 N   0  0  0  0  0  0  0  0  0  0  0  0
  -17.2666  -17.9605  -11.7323 C   0  0  2  0  0  0  0  0  0  0  0  0
  -20.1781  -25.2205  -11.0541 C   0  0  2  0  0  0  0  0  0  0  0  0
  -20.1155  -26.1912  -12.1567 N   0  0  0  0  0  0  0  0  0  0  0  0
  -15.0583  -22.3654  -11.6577 C   0  0  0  0  0  0  0  0  0  0  0  0
  -18.6657  -17.3344  -11.4181 C   0  0  2  0  0  0  0  0  0  0  0  0
  -18.8464  -17.3490  -10.0217 O   0  0  0  0  0  0  0  0  0  0  0  0
  -21.3042  -24.1430  -11.3139 C   0  0  0  0  0  0  0  0  0  0  0  0
  -16.2214  -23.4500  -11.5342 C   0  0  2  0  0  0  0  0  0  0  0  0
  -15.7761  -24.7186  -12.1504 N   0  0  0  0  0  0  0  0  0  0  0  0
  -19.7924  -18.1719  -12.1547 C   0  0  1  0  0  0  0  0  0  0  0  0
  -21.1490  -17.5855  -11.8609 N   0  0  0  0  0  0  0  0  0  0  0  0
  -21.0990  -22.8320  -10.4470 C   0  0  0  0  0  0  0  0  0  0  0  0
  -17.5084  -22.9122  -12.2850 C   0  0  2  0  0  0  0  0  0  0  0  0
  -19.5308  -18.1199  -13.7597 C   0  0  1  0  0  0  0  0  0  0  0  0
  -19.5769  -16.8101  -14.2886 O   0  0  0  0  0  0  0  0  0  0  0  0
  -19.9426  -22.6087   -9.7825 C   0  0  2  0  0  0  0  0  0  0  0  0
  -18.8463  -23.5285   -9.8163 O   0  0  0  0  0  0  0  0  0  0  0  0
  -17.9790  -21.5567  -11.6149 C   0  0  2  0  0  0  0  0  0  0  0  0
  -19.1405  -21.0693  -12.3071 O   0  0  0  0  0  0  0  0  0  0  0  0
  -18.1172  -18.7233  -14.0544 C   0  0  0  0  0  0  0  0  0  0  0  0
  -17.0518  -17.9984  -13.2343 O   0  0  0  0  0  0  0  0  0  0  0  0
  -19.7098  -21.3582   -8.9356 C   0  0  0  0  0  0  0  0  0  0  0  0
  -18.3092  -21.0448   -8.9824 O   0  0  0  0  0  0  0  0  0  0  0  0
  -16.8296  -20.4789  -11.7342 C   0  0  1  0  0  0  0  0  0  0  0  0
  -17.2827  -19.2881  -11.1135 O   0  0  0  0  0  0  0  0  0  0  0  0
  -20.5505  -18.9134  -14.6045 C   0  0  0  0  0  0  0  0  0  0  0  0
  -21.4138  -16.2380  -12.4048 C   0  0  0  0  0  0  0  0  0  0  0  0
  1  2  1  6  0  0  0
  1  6  1  0  0  0  0
  1 21  1  0  0  0  0
  3  4  1  6  0  0  0
  3  8  1  0  0  0  0
  3 28  1  0  0  0  0
  5  9  1  0  0  0  0
  5 25  1  0  0  0  0
  5 29  1  6  0  0  0
  6  7  1  6  0  0  0
  6 11  1  0  0  0  0
  8 12  1  0  0  0  0
  9 10  1  1  0  0  0
  9 14  1  0  0  0  0
 11 16  1  0  0  0  0
 12 13  1  6  0  0  0
 12 17  1  0  0  0  0
 14 15  1  6  0  0  0
 14 18  1  0  0  0  0
 15 31  1  0  0  0  0
 16 20  1  0  0  0  0
 17  2  1  1  0  0  0
 17 22  1  0  0  0  0
 18 19  1  6  0  0  0
 18 24  1  0  0  0  0
 18 30  1  0  0  0  0
 20 21  1  0  0  0  0
 20 26  1  1  0  0  0
 22 23  1  6  0  0  0
 22 28  1  0  0  0  0
 24 25  1  0  0  0  0
 26 27  1  0  0  0  0
 28 29  1  1  0  0  0
M  END
>  <CHROM.1>
165.55491334,134.81011590,66.44506868,44.86220395,-149.08010422,113.56413875
-18.55105109,-20.84104924,-11.66265079,1.47258673,0.01479448,2.92379614

>  <Name>
ligand

>  <RI>
0

>  <Rbt.Current_Directory>
/home/itssahil/PROJECTS/Mol_Feturizer/New_Systems/rnas/4GPW

>  <Rbt.Executable>
rbdock ($Id: //depot/dev/client3/rdock/2013.1/src/exe/rbdock.cxx#4 $)

>  <Rbt.Library>
libRbt.so (2013.1, Build901 2013/11/27)

>  <Rbt.Parameter_File>
/export/apps/rDock/src/rDock_2013.1_src/data/scripts/dock_solv.prm

>  <Rbt.Receptor>
prm/blind_docking_100.prm

>  <SCORE>
33.1771

>  <SCORE.INTER>
15.0447

>  <SCORE.INTER.CONST>
1

>  <SCORE.INTER.POLAR>
0

>  <SCORE.INTER.ROT>
6

>  <SCORE.INTER.SOLV>
28.4154

>  <SCORE.INTER.VDW>
-7.04198

>  <SCORE.INTER.norm>
0.485313

>  <SCORE.INTRA>
3.37279

>  <SCORE.INTRA.DIHEDRAL>
-1.40724

>  <SCORE.INTRA.DIHEDRAL.0>
19.2558

>  <SCORE.INTRA.POLAR>
0

>  <SCORE.INTRA.POLAR.0>
0

>  <SCORE.INTRA.REPUL>
0

>  <SCORE.INTRA.REPUL.0>
0

>  <SCORE.INTRA.SOLV>
0.149774

>  <SCORE.INTRA.SOLV.lig_0>
-64.5929

>  <SCORE.INTRA.VDW>
4.00152

>  <SCORE.INTRA.VDW.0>
-4.40538

>  <SCORE.INTRA.norm>
0.1088

>  <SCORE.RESTR>
14.7596

>  <SCORE.RESTR.CAVITY>
14.7596

>  <SCORE.RESTR.norm>
0.476115

>  <SCORE.SYSTEM>
0

>  <SCORE.SYSTEM.CONST>
0

>  <SCORE.SYSTEM.DIHEDRAL>
0

>  <SCORE.SYSTEM.SOLV>
0

>  <SCORE.SYSTEM.norm>
0

>  <SCORE.heavy>
31

>  <SCORE.norm>
1.07023

>  <RMSD>
9.138

$$$$
ligand
 OpenBabel11021811493D
libRbt.so/2013.1/901 2013/11/27
 31 33  0  0  0  0  0  0  0  0999 V2000
  -19.2487  -24.2182   -9.8752 C   0  0  2  0  0  0  0  0  0  0  0  0
  -18.7360  -24.2446  -11.1993 O   0  0  0  0  0  0  0  0  0  0  0  0
  -15.7107  -21.2499  -10.9676 C   0  0  2  0  0  0  0  0  0  0  0  0
  -14.5680  -20.4697  -11.3181 N   0  0  0  0  0  0  0  0  0  0  0  0
  -17.5118  -19.0329  -13.4173 C   0  0  2  0  0  0  0  0  0  0  0  0
  -20.8000  -24.5281   -9.9734 C   0  0  2  0  0  0  0  0  0  0  0  0
  -20.9926  -25.8438  -10.6008 N   0  0  0  0  0  0  0  0  0  0  0  0
  -15.2629  -22.7715  -10.8492 C   0  0  0  0  0  0  0  0  0  0  0  0
  -17.5300  -17.5148  -13.0387 C   0  0  2  0  0  0  0  0  0  0  0  0
  -16.2935  -17.1989  -12.4439 O   0  0  0  0  0  0  0  0  0  0  0  0
  -21.5199  -23.3947  -10.8065 C   0  0  0  0  0  0  0  0  0  0  0  0
  -16.5375  -23.6438  -10.4509 C   0  0  2  0  0  0  0  0  0  0  0  0
  -16.1415  -25.0637  -10.3301 N   0  0  0  0  0  0  0  0  0  0  0  0
  -18.7354  -17.2360  -12.0475 C   0  0  1  0  0  0  0  0  0  0  0  0
  -18.7672  -15.7780  -11.6683 N   0  0  0  0  0  0  0  0  0  0  0  0
  -20.9559  -21.9505  -10.4769 C   0  0  0  0  0  0  0  0  0  0  0  0
  -17.6397  -23.4889  -11.5780 C   0  0  2  0  0  0  0  0  0  0  0  0
  -20.1328  -17.6200  -12.7872 C   0  0  1  0  0  0  0  0  0  0  0  0
  -20.3721  -16.8588  -13.9536 O   0  0  0  0  0  0  0  0  0  0  0  0
  -19.8198  -21.7916   -9.7609 C   0  0  2  0  0  0  0  0  0  0  0  0
  -19.0653  -22.9000   -9.2598 O   0  0  0  0  0  0  0  0  0  0  0  0
  -18.0595  -21.9665  -11.6959 C   0  0  2  0  0  0  0  0  0  0  0  0
  -19.0519  -21.8316  -12.7268 O   0  0  0  0  0  0  0  0  0  0  0  0
  -20.0874  -19.1331  -13.1842 C   0  0  0  0  0  0  0  0  0  0  0  0
  -18.8464  -19.4213  -14.0270 O   0  0  0  0  0  0  0  0  0  0  0  0
  -19.2477  -20.4158   -9.4222 C   0  0  0  0  0  0  0  0  0  0  0  0
  -19.8072  -19.4640  -10.3406 O   0  0  0  0  0  0  0  0  0  0  0  0
  -16.7996  -21.0978  -12.0899 C   0  0  1  0  0  0  0  0  0  0  0  0
  -17.2121  -19.7444  -12.1726 O   0  0  0  0  0  0  0  0  0  0  0  0
  -21.3962  -17.4125  -11.9248 C   0  0  0  0  0  0  0  0  0  0  0  0
  -19.1060  -15.4720  -10.2635 C   0  0  0  0  0  0  0  0  0  0  0  0
  1  2  1  6  0  0  0
  1  6  1  0  0  0  0
  1 21  1  0  0  0  0
  3  4  1  6  0  0  0
  3  8  1  0  0  0  0
  3 28  1  0  0  0  0
  5  9  1  0  0  0  0
  5 25  1  0  0  0  0
  5 29  1  1  0  0  0
  6  7  1  6  0  0  0
  6 11  1  0  0  0  0
  8 12  1  0  0  0  0
  9 10  1  1  0  0  0
  9 14  1  0  0  0  0
 11 16  1  0  0  0  0
 12 13  1  6  0  0  0
 12 17  1  0  0  0  0
 14 15  1  6  0  0  0
 14 18  1  0  0  0  0
 15 31  1  0  0  0  0
 16 20  1  0  0  0  0
 17  2  1  1  0  0  0
 17 22  1  0  0  0  0
 18 19  1  6  0  0  0
 18 24  1  0  0  0  0
 18 30  1  0  0  0  0
 20 21  1  0  0  0  0
 20 26  1  1  0  0  0
 22 23  1  6  0  0  0
 22 28  1  0  0  0  0
 24 25  1  0  0  0  0
 26 27  1  0  0  0  0
 28 29  1  1  0  0  0
M  END
>  <CHROM.1>
151.14159242,-164.86385849,-140.88781829,44.98866186,-19.83684671,141.42029656
-18.59700274,-20.69197905,-11.45548407,1.54527427,-0.08714766,2.86683217

>  <Name>
ligand

>  <RI>
0

>  <Rbt.Current_Directory>
/home/itssahil/PROJECTS/Mol_Feturizer/New_Systems/rnas/4GPW

>  <Rbt.Executable>
rbdock ($Id: //depot/dev/client3/rdock/2013.1/src/exe/rbdock.cxx#4 $)

>  <Rbt.Library>
libRbt.so (2013.1, Build901 2013/11/27)

>  <Rbt.Parameter_File>
/export/apps/rDock/src/rDock_2013.1_src/data/scripts/dock_solv.prm

>  <Rbt.Receptor>
prm/blind_docking_60.prm

>  <SCORE>
42.4428

>  <SCORE.INTER>
20.8773

>  <SCORE.INTER.CONST>
1

>  <SCORE.INTER.POLAR>
0

>  <SCORE.INTER.ROT>
6

>  <SCORE.INTER.SOLV>
20.0698

>  <SCORE.INTER.VDW>
-0.371722

>  <SCORE.INTER.norm>
0.673462

>  <SCORE.INTRA>
2.27181

>  <SCORE.INTRA.DIHEDRAL>
-5.55031

>  <SCORE.INTRA.DIHEDRAL.0>
19.2558

>  <SCORE.INTRA.POLAR>
0

>  <SCORE.INTRA.POLAR.0>
0

>  <SCORE.INTRA.REPUL>
0

>  <SCORE.INTRA.REPUL.0>
0

>  <SCORE.INTRA.SOLV>
0.141477

>  <SCORE.INTRA.SOLV.lig_0>
-64.5929

>  <SCORE.INTRA.VDW>
4.97623

>  <SCORE.INTRA.VDW.0>
-4.40538

>  <SCORE.INTRA.norm>
0.0732843

>  <SCORE.RESTR>
19.2937

>  <SCORE.RESTR.CAVITY>
19.2937

>  <SCORE.RESTR.norm>
0.622378

>  <SCORE.SYSTEM>
0

>  <SCORE.SYSTEM.CONST>
0

>  <SCORE.SYSTEM.DIHEDRAL>
0

>  <SCORE.SYSTEM.SOLV>
0

>  <SCORE.SYSTEM.norm>
0

>  <SCORE.heavy>
31

>  <SCORE.norm>
1.36912

>  <RMSD>
9.153

$$$$
ligand
 OpenBabel11021811493D
libRbt.so/2013.1/901 2013/11/27
 31 33  0  0  0  0  0  0  0  0999 V2000
  -18.8135  -24.5297  -10.8605 C   0  0  2  0  0  0  0  0  0  0  0  0
  -18.5369  -23.9024  -12.1041 O   0  0  0  0  0  0  0  0  0  0  0  0
  -15.5796  -21.0578  -10.9477 C   0  0  2  0  0  0  0  0  0  0  0  0
  -14.5315  -20.0951  -11.0567 N   0  0  0  0  0  0  0  0  0  0  0  0
  -17.2679  -17.9991  -11.7042 C   0  0  2  0  0  0  0  0  0  0  0  0
  -20.2266  -25.2338  -11.0015 C   0  0  2  0  0  0  0  0  0  0  0  0
  -20.1739  -26.2106  -12.0991 N   0  0  0  0  0  0  0  0  0  0  0  0
  -15.0869  -22.4145  -11.6160 C   0  0  0  0  0  0  0  0  0  0  0  0
  -18.6624  -17.3600  -11.3957 C   0  0  2  0  0  0  0  0  0  0  0  0
  -18.8481  -17.3713  -10.0000 O   0  0  0  0  0  0  0  0  0  0  0  0
  -21.3416  -24.1461  -11.2669 C   0  0  0  0  0  0  0  0  0  0  0  0
  -16.2546  -23.4936  -11.4890 C   0  0  2  0  0  0  0  0  0  0  0  0
  -15.8145  -24.7664  -12.1004 N   0  0  0  0  0  0  0  0  0  0  0  0
  -19.7940  -18.1881  -12.1352 C   0  0  1  0  0  0  0  0  0  0  0  0
  -21.1463  -17.5892  -11.8469 N   0  0  0  0  0  0  0  0  0  0  0  0
  -21.1229  -22.8328  -10.4067 C   0  0  0  0  0  0  0  0  0  0  0  0
  -17.5389  -22.9530  -12.2423 C   0  0  2  0  0  0  0  0  0  0  0  0
  -19.5264  -18.1405  -13.7394 C   0  0  1  0  0  0  0  0  0  0  0  0
  -19.5587  -16.8310  -14.2700 O   0  0  0  0  0  0  0  0  0  0  0  0
  -19.9643  -22.6179   -9.7433 C   0  0  2  0  0  0  0  0  0  0  0  0
  -18.8775  -23.5490   -9.7724 O   0  0  0  0  0  0  0  0  0  0  0  0
  -18.0040  -21.5931  -11.5774 C   0  0  2  0  0  0  0  0  0  0  0  0
  -19.1631  -21.1032  -12.2718 O   0  0  0  0  0  0  0  0  0  0  0  0
  -18.1173  -18.7570  -14.0284 C   0  0  0  0  0  0  0  0  0  0  0  0
  -17.0482  -18.0407  -13.2054 O   0  0  0  0  0  0  0  0  0  0  0  0
  -19.7188  -21.3655   -8.9030 C   0  0  0  0  0  0  0  0  0  0  0  0
  -18.3200  -21.0487   -8.9765 O   0  0  0  0  0  0  0  0  0  0  0  0
  -16.8499  -20.5207  -11.7001 C   0  0  1  0  0  0  0  0  0  0  0  0
  -17.2982  -19.3257  -11.0839 O   0  0  0  0  0  0  0  0  0  0  0  0
  -20.5503  -18.9258  -14.5868 C   0  0  0  0  0  0  0  0  0  0  0  0
  -21.3984  -16.2415  -12.3965 C   0  0  0  0  0  0  0  0  0  0  0  0
  1  2  1  6  0  0  0
  1  6  1  0  0  0  0
  1 21  1  0  0  0  0
  3  4  1  6  0  0  0
  3  8  1  0  0  0  0
  3 28  1  0  0  0  0
  5  9  1  0  0  0  0
  5 25  1  0  0  0  0
  5 29  1  6  0  0  0
  6  7  1  6  0  0  0
  6 11  1  0  0  0  0
  8 12  1  0  0  0  0
  9 10  1  1  0  0  0
  9 14  1  0  0  0  0
 11 16  1  0  0  0  0
 12 13  1  6  0  0  0
 12 17  1  0  0  0  0
 14 15  1  6  0  0  0
 14 18  1  0  0  0  0
 15 31  1  0  0  0  0
 16 20  1  0  0  0  0
 17  2  1  1  0  0  0
 17 22  1  0  0  0  0
 18 19  1  6  0  0  0
 18 24  1  0  0  0  0
 18 30  1  0  0  0  0
 20 21  1  0  0  0  0
 20 26  1  1  0  0  0
 22 23  1  6  0  0  0
 22 28  1  0  0  0  0
 24 25  1  0  0  0  0
 26 27  1  0  0  0  0
 28 29  1  1  0  0  0
M  END
>  <CHROM.1>
165.14078961,135.01205036,66.60619447,45.09472943,-147.76567414,113.13708993
-18.56780065,-20.86690931,-11.62986101,1.47829594,0.01474253,2.91991602

>  <Name>
ligand

>  <RI>
0

>  <Rbt.Current_Directory>
/home/itssahil/PROJECTS/Mol_Feturizer/New_Systems/rnas/4GPW

>  <Rbt.Executable>
rbdock ($Id: //depot/dev/client3/rdock/2013.1/src/exe/rbdock.cxx#4 $)

>  <Rbt.Library>
libRbt.so (2013.1, Build901 2013/11/27)

>  <Rbt.Parameter_File>
/export/apps/rDock/src/rDock_2013.1_src/data/scripts/dock_solv.prm

>  <Rbt.Receptor>
prm/blind_docking_100.prm

>  <SCORE>
32.7391

>  <SCORE.INTER>
14.2471

>  <SCORE.INTER.CONST>
1

>  <SCORE.INTER.POLAR>
0

>  <SCORE.INTER.ROT>
6

>  <SCORE.INTER.SOLV>
28.2221

>  <SCORE.INTER.VDW>
-7.5093

>  <SCORE.INTER.norm>
0.459583

>  <SCORE.INTRA>
3.63755

>  <SCORE.INTRA.DIHEDRAL>
-1.50243

>  <SCORE.INTRA.DIHEDRAL.0>
19.2558

>  <SCORE.INTRA.POLAR>
0

>  <SCORE.INTRA.POLAR.0>
0

>  <SCORE.INTRA.REPUL>
0.021747

>  <SCORE.INTRA.REPUL.0>
0

>  <SCORE.INTRA.SOLV>
0.190632

>  <SCORE.INTRA.SOLV.lig_0>
-64.5929

>  <SCORE.INTRA.VDW>
4.18471

>  <SCORE.INTRA.VDW.0>
-4.40538

>  <SCORE.INTRA.norm>
0.11734

>  <SCORE.RESTR>
14.8545

>  <SCORE.RESTR.CAVITY>
14.8545

>  <SCORE.RESTR.norm>
0.479178

>  <SCORE.SYSTEM>
0

>  <SCORE.SYSTEM.CONST>
0

>  <SCORE.SYSTEM.DIHEDRAL>
0

>  <SCORE.SYSTEM.SOLV>
0

>  <SCORE.SYSTEM.norm>
0

>  <SCORE.heavy>
31

>  <SCORE.norm>
1.0561

>  <RMSD>
9.161

$$$$
ligand
 OpenBabel11021811493D
libRbt.so/2013.1/901 2013/11/27
 31 33  0  0  0  0  0  0  0  0999 V2000
  -18.7813  -24.5472  -10.8660 C   0  0  2  0  0  0  0  0  0  0  0  0
  -18.4944  -23.9374  -12.1160 O   0  0  0  0  0  0  0  0  0  0  0  0
  -15.5757  -21.0526  -10.9610 C   0  0  2  0  0  0  0  0  0  0  0  0
  -14.5417  -20.0748  -11.0705 N   0  0  0  0  0  0  0  0  0  0  0  0
  -17.2824  -18.0125  -11.6989 C   0  0  2  0  0  0  0  0  0  0  0  0
  -20.2094  -25.2222  -10.9974 C   0  0  2  0  0  0  0  0  0  0  0  0
  -20.1802  -26.2100  -12.0861 N   0  0  0  0  0  0  0  0  0  0  0  0
  -15.0650  -22.4011  -11.6321 C   0  0  0  0  0  0  0  0  0  0  0  0
  -18.6770  -17.3730  -11.3916 C   0  0  2  0  0  0  0  0  0  0  0  0
  -18.8700  -17.3971   -9.9970 O   0  0  0  0  0  0  0  0  0  0  0  0
  -21.3016  -24.1134  -11.2704 C   0  0  0  0  0  0  0  0  0  0  0  0
  -16.2170  -23.4970  -11.5045 C   0  0  2  0  0  0  0  0  0  0  0  0
  -15.7600  -24.7624  -12.1185 N   0  0  0  0  0  0  0  0  0  0  0  0
  -19.8066  -18.1913  -12.1449 C   0  0  1  0  0  0  0  0  0  0  0  0
  -21.1589  -17.5918  -11.8579 N   0  0  0  0  0  0  0  0  0  0  0  0
  -21.0530  -22.7973  -10.4228 C   0  0  0  0  0  0  0  0  0  0  0  0
  -17.5103  -22.9737  -12.2546 C   0  0  2  0  0  0  0  0  0  0  0  0
  -19.5305  -18.1291  -13.7471 C   0  0  1  0  0  0  0  0  0  0  0  0
  -19.5570  -16.8145  -14.2654 O   0  0  0  0  0  0  0  0  0  0  0  0
  -19.8884  -22.6011   -9.7640 C   0  0  2  0  0  0  0  0  0  0  0  0
  -18.8218  -23.5554   -9.7868 O   0  0  0  0  0  0  0  0  0  0  0  0
  -17.9934  -21.6215  -11.5869 C   0  0  2  0  0  0  0  0  0  0  0  0
  -19.1607  -21.1471  -12.2785 O   0  0  0  0  0  0  0  0  0  0  0  0
  -18.1214  -18.7462  -14.0347 C   0  0  0  0  0  0  0  0  0  0  0  0
  -17.0550  -18.0404  -13.1993 O   0  0  0  0  0  0  0  0  0  0  0  0
  -19.6142  -21.3466   -8.9357 C   0  0  0  0  0  0  0  0  0  0  0  0
  -19.6014  -21.7235   -7.5501 O   0  0  0  0  0  0  0  0  0  0  0  0
  -16.8550  -20.5325  -11.7102 C   0  0  1  0  0  0  0  0  0  0  0  0
  -17.3190  -19.3449  -11.0915 O   0  0  0  0  0  0  0  0  0  0  0  0
  -20.5518  -18.9037  -14.6073 C   0  0  0  0  0  0  0  0  0  0  0  0
  -21.4050  -16.2385  -12.3961 C   0  0  0  0  0  0  0  0  0  0  0  0
  1  2  1  6  0  0  0
  1  6  1  0  0  0  0
  1 21  1  0  0  0  0
  3  4  1  6  0  0  0
  3  8  1  0  0  0  0
  3 28  1  0  0  0  0
  5  9  1  0  0  0  0
  5 25  1  0  0  0  0
  5 29  1  6  0  0  0
  6  7  1  6  0  0  0
  6 11  1  0  0  0  0
  8 12  1  0  0  0  0
  9 10  1  1  0  0  0
  9 14  1  0  0  0  0
 11 16  1  0  0  0  0
 12 13  1  6  0  0  0
 12 17  1  0  0  0  0
 14 15  1  6  0  0  0
 14 18  1  0  0  0  0
 15 31  1  0  0  0  0
 16 20  1  0  0  0  0
 17  2  1  1  0  0  0
 17 22  1  0  0  0  0
 18 19  1  6  0  0  0
 18 24  1  0  0  0  0
 18 30  1  0  0  0  0
 20 21  1  0  0  0  0
 20 26  1  1  0  0  0
 22 23  1  6  0  0  0
 22 28  1  0  0  0  0
 24 25  1  0  0  0  0
 26 27  1  0  0  0  0
 28 29  1  1  0  0  0
M  END
>  <CHROM.1>
162.64311908,135.84773231,66.61624605,46.63535391,109.94228935,111.75185653
-18.59998213,-20.89247470,-11.58560769,1.48156281,-0.10246205,2.88579504

>  <Name>
ligand

>  <RI>
0

>  <Rbt.Current_Directory>
/home/itssahil/PROJECTS/Mol_Feturizer/New_Systems/rnas/4GPW

>  <Rbt.Executable>
rbdock ($Id: //depot/dev/client3/rdock/2013.1/src/exe/rbdock.cxx#4 $)

>  <Rbt.Library>
libRbt.so (2013.1, Build901 2013/11/27)

>  <Rbt.Parameter_File>
/export/apps/rDock/src/rDock_2013.1_src/data/scripts/dock_solv.prm

>  <Rbt.Receptor>
prm/blind_docking_100.prm

>  <SCORE>
31.9618

>  <SCORE.INTER>
13.772

>  <SCORE.INTER.CONST>
1

>  <SCORE.INTER.POLAR>
0

>  <SCORE.INTER.ROT>
6

>  <SCORE.INTER.SOLV>
28.7789

>  <SCORE.INTER.VDW>
-8.01164

>  <SCORE.INTER.norm>
0.444257

>  <SCORE.INTRA>
2.93503

>  <SCORE.INTRA.DIHEDRAL>
-2.27948

>  <SCORE.INTRA.DIHEDRAL.0>
19.2558

>  <SCORE.INTRA.POLAR>
0

>  <SCORE.INTRA.POLAR.0>
0

>  <SCORE.INTRA.REPUL>
0

>  <SCORE.INTRA.REPUL.0>
0

>  <SCORE.INTRA.SOLV>
-1.12224

>  <SCORE.INTRA.SOLV.lig_0>
-64.5929

>  <SCORE.INTRA.VDW>
4.63589

>  <SCORE.INTRA.VDW.0>
-4.40538

>  <SCORE.INTRA.norm>
0.0946784

>  <SCORE.RESTR>
15.2548

>  <SCORE.RESTR.CAVITY>
15.2548

>  <SCORE.RESTR.norm>
0.492091

>  <SCORE.SYSTEM>
0

>  <SCORE.SYSTEM.CONST>
0

>  <SCORE.SYSTEM.DIHEDRAL>
0

>  <SCORE.SYSTEM.SOLV>
0

>  <SCORE.SYSTEM.norm>
0

>  <SCORE.heavy>
31

>  <SCORE.norm>
1.03103

>  <RMSD>
9.171

$$$$
ligand
 OpenBabel11021811493D
libRbt.so/2013.1/901 2013/11/27
 31 33  0  0  0  0  0  0  0  0999 V2000
  -15.4231  -24.1607  -11.4785 C   0  0  2  0  0  0  0  0  0  0  0  0
  -16.1714  -24.0126  -10.2807 O   0  0  0  0  0  0  0  0  0  0  0  0
  -20.1379  -23.9217  -11.8406 C   0  0  2  0  0  0  0  0  0  0  0  0
  -21.5633  -23.8553  -11.8742 N   0  0  0  0  0  0  0  0  0  0  0  0
  -20.6110  -20.2848  -11.5240 C   0  0  2  0  0  0  0  0  0  0  0  0
  -13.9054  -23.8862  -11.1130 C   0  0  2  0  0  0  0  0  0  0  0  0
  -13.4737  -24.8443  -10.0846 N   0  0  0  0  0  0  0  0  0  0  0  0
  -19.7141  -25.1738  -10.9559 C   0  0  0  0  0  0  0  0  0  0  0  0
  -20.6744  -19.3182  -12.7528 C   0  0  2  0  0  0  0  0  0  0  0  0
  -21.3233  -19.9923  -13.8050 O   0  0  0  0  0  0  0  0  0  0  0  0
  -13.7385  -22.3994  -10.6048 C   0  0  0  0  0  0  0  0  0  0  0  0
  -18.1214  -25.2534  -10.9230 C   0  0  2  0  0  0  0  0  0  0  0  0
  -17.7054  -26.4157  -10.1086 N   0  0  0  0  0  0  0  0  0  0  0  0
  -19.2031  -18.8918  -13.1610 C   0  0  1  0  0  0  0  0  0  0  0  0
  -19.2434  -17.9624  -14.3464 N   0  0  0  0  0  0  0  0  0  0  0  0
  -14.6167  -21.3738  -11.4351 C   0  0  0  0  0  0  0  0  0  0  0  0
  -17.5527  -23.9202  -10.2839 C   0  0  2  0  0  0  0  0  0  0  0  0
  -18.5053  -18.1214  -11.9092 C   0  0  1  0  0  0  0  0  0  0  0  0
  -19.1875  -16.9428  -11.5314 O   0  0  0  0  0  0  0  0  0  0  0  0
  -15.5734  -21.8050  -12.2881 C   0  0  2  0  0  0  0  0  0  0  0  0
  -15.8494  -23.1942  -12.4953 O   0  0  0  0  0  0  0  0  0  0  0  0
  -18.0000  -22.6831  -11.1656 C   0  0  2  0  0  0  0  0  0  0  0  0
  -17.4894  -21.4764  -10.5747 O   0  0  0  0  0  0  0  0  0  0  0  0
  -18.4750  -19.0910  -10.6812 C   0  0  0  0  0  0  0  0  0  0  0  0
  -19.8812  -19.6057  -10.3795 O   0  0  0  0  0  0  0  0  0  0  0  0
  -16.4373  -20.8463  -13.1063 C   0  0  0  0  0  0  0  0  0  0  0  0
  -15.5664  -19.9034  -13.7502 O   0  0  0  0  0  0  0  0  0  0  0  0
  -19.5776  -22.6003  -11.2018 C   0  0  1  0  0  0  0  0  0  0  0  0
  -19.9374  -21.4919  -12.0084 O   0  0  0  0  0  0  0  0  0  0  0  0
  -17.0536  -17.6624  -12.1638 C   0  0  0  0  0  0  0  0  0  0  0  0
  -17.9495  -17.6701  -14.9961 C   0  0  0  0  0  0  0  0  0  0  0  0
  1  2  1  1  0  0  0
  1  6  1  0  0  0  0
  1 21  1  0  0  0  0
  3  4  1  1  0  0  0
  3  8  1  0  0  0  0
  3 28  1  0  0  0  0
  5  9  1  0  0  0  0
  5 25  1  0  0  0  0
  5 29  1  6  0  0  0
  6  7  1  1  0  0  0
  6 11  1  0  0  0  0
  8 12  1  0  0  0  0
  9 10  1  6  0  0  0
  9 14  1  0  0  0  0
 11 16  1  0  0  0  0
 12 13  1  1  0  0  0
 12 17  1  0  0  0  0
 14 15  1  6  0  0  0
 14 18  1  0  0  0  0
 15 31  1  0  0  0  0
 16 20  1  0  0  0  0
 17  2  1  6  0  0  0
 17 22  1  0  0  0  0
 18 19  1  1  0  0  0
 18 24  1  0  0  0  0
 18 30  1  0  0  0  0
 20 21  1  0  0  0  0
 20 26  1  6  0  0  0
 22 23  1  1  0  0  0
 22 28  1  0  0  0  0
 24 25  1  0  0  0  0
 26 27  1  0  0  0  0
 28 29  1  6  0  0  0
M  END
>  <CHROM.1>
166.86401441,175.20731432,-169.35624440,60.33648164,49.39834631,127.62041125
-17.82953714,-21.52213159,-11.78319006,-1.08391548,-0.02760597,-0.31942850

>  <Name>
ligand

>  <RI>
0

>  <Rbt.Current_Directory>
/home/itssahil/PROJECTS/Mol_Feturizer/New_Systems/rnas/4GPW

>  <Rbt.Executable>
rbdock ($Id: //depot/dev/client3/rdock/2013.1/src/exe/rbdock.cxx#4 $)

>  <Rbt.Library>
libRbt.so (2013.1, Build901 2013/11/27)

>  <Rbt.Parameter_File>
/export/apps/rDock/src/rDock_2013.1_src/data/scripts/dock_solv.prm

>  <Rbt.Receptor>
prm/blind_docking_60.prm

>  <SCORE>
67.9723

>  <SCORE.INTER>
45.9645

>  <SCORE.INTER.CONST>
1

>  <SCORE.INTER.POLAR>
0

>  <SCORE.INTER.ROT>
6

>  <SCORE.INTER.SOLV>
23.1073

>  <SCORE.INTER.VDW>
15.3405

>  <SCORE.INTER.norm>
1.48272

>  <SCORE.INTRA>
3.94689

>  <SCORE.INTRA.DIHEDRAL>
-7.86211

>  <SCORE.INTRA.DIHEDRAL.0>
19.2558

>  <SCORE.INTRA.POLAR>
0

>  <SCORE.INTRA.POLAR.0>
0

>  <SCORE.INTRA.REPUL>
0

>  <SCORE.INTRA.REPUL.0>
0

>  <SCORE.INTRA.SOLV>
-1.38463

>  <SCORE.INTRA.SOLV.lig_0>
-64.5929

>  <SCORE.INTRA.VDW>
8.57026

>  <SCORE.INTRA.VDW.0>
-4.40538

>  <SCORE.INTRA.norm>
0.127319

>  <SCORE.RESTR>
18.0609

>  <SCORE.RESTR.CAVITY>
18.0609

>  <SCORE.RESTR.norm>
0.582611

>  <SCORE.SYSTEM>
0

>  <SCORE.SYSTEM.CONST>
0

>  <SCORE.SYSTEM.DIHEDRAL>
0

>  <SCORE.SYSTEM.SOLV>
0

>  <SCORE.SYSTEM.norm>
0

>  <SCORE.heavy>
31

>  <SCORE.norm>
2.19265

>  <RMSD>
9.181

$$$$
ligand
 OpenBabel11021811493D
libRbt.so/2013.1/901 2013/11/27
 31 33  0  0  0  0  0  0  0  0999 V2000
  -19.0138  -24.9925  -10.5805 C   0  0  2  0  0  0  0  0  0  0  0  0
  -18.7508  -24.4802  -11.8785 O   0  0  0  0  0  0  0  0  0  0  0  0
  -16.1544  -21.2281  -10.9529 C   0  0  2  0  0  0  0  0  0  0  0  0
  -15.2202  -20.1648  -11.1377 N   0  0  0  0  0  0  0  0  0  0  0  0
  -17.5261  -18.3697  -11.4467 C   0  0  2  0  0  0  0  0  0  0  0  0
  -20.4234  -25.7145  -10.6447 C   0  0  2  0  0  0  0  0  0  0  0  0
  -20.3729  -26.7875  -11.6486 N   0  0  0  0  0  0  0  0  0  0  0  0
  -15.5000  -22.5718  -11.4970 C   0  0  0  0  0  0  0  0  0  0  0  0
  -18.7614  -17.4158  -11.3357 C   0  0  2  0  0  0  0  0  0  0  0  0
  -19.3824  -17.6491  -10.0938 O   0  0  0  0  0  0  0  0  0  0  0  0
  -21.5473  -24.6621  -10.9995 C   0  0  0  0  0  0  0  0  0  0  0  0
  -16.5402  -23.7623  -11.2849 C   0  0  2  0  0  0  0  0  0  0  0  0
  -15.9486  -25.0242  -11.7800 N   0  0  0  0  0  0  0  0  0  0  0  0
  -19.7532  -17.6998  -12.5394 C   0  0  1  0  0  0  0  0  0  0  0  0
  -20.9523  -16.7920  -12.4476 N   0  0  0  0  0  0  0  0  0  0  0  0
  -21.3305  -23.2743  -10.2650 C   0  0  0  0  0  0  0  0  0  0  0  0
  -17.8644  -23.4385  -12.0917 C   0  0  2  0  0  0  0  0  0  0  0  0
  -18.9817  -17.4156  -13.9435 C   0  0  1  0  0  0  0  0  0  0  0  0
  -18.5427  -16.0788  -14.0761 O   0  0  0  0  0  0  0  0  0  0  0  0
  -20.1682  -22.9929   -9.6337 C   0  0  2  0  0  0  0  0  0  0  0  0
  -19.0758  -23.9165   -9.5863 O   0  0  0  0  0  0  0  0  0  0  0  0
  -18.4916  -22.0886  -11.5509 C   0  0  2  0  0  0  0  0  0  0  0  0
  -19.6866  -21.7955  -12.2937 O   0  0  0  0  0  0  0  0  0  0  0  0
  -17.7341  -18.3568  -14.0263 C   0  0  0  0  0  0  0  0  0  0  0  0
  -16.8521  -18.1748  -12.7926 O   0  0  0  0  0  0  0  0  0  0  0  0
  -19.9243  -21.6674   -8.9136 C   0  0  0  0  0  0  0  0  0  0  0  0
  -20.3135  -21.8297   -7.5409 O   0  0  0  0  0  0  0  0  0  0  0  0
  -17.4643  -20.9059  -11.7582 C   0  0  1  0  0  0  0  0  0  0  0  0
  -18.0553  -19.7215  -11.2517 O   0  0  0  0  0  0  0  0  0  0  0  0
  -19.8301  -17.6706  -15.2076 C   0  0  0  0  0  0  0  0  0  0  0  0
  -22.0616  -17.0726  -13.3817 C   0  0  0  0  0  0  0  0  0  0  0  0
  1  2  1  6  0  0  0
  1  6  1  0  0  0  0
  1 21  1  0  0  0  0
  3  4  1  6  0  0  0
  3  8  1  0  0  0  0
  3 28  1  0  0  0  0
  5  9  1  0  0  0  0
  5 25  1  0  0  0  0
  5 29  1  6  0  0  0
  6  7  1  6  0  0  0
  6 11  1  0  0  0  0
  8 12  1  0  0  0  0
  9 10  1  1  0  0  0
  9 14  1  0  0  0  0
 11 16  1  0  0  0  0
 12 13  1  6  0  0  0
 12 17  1  0  0  0  0
 14 15  1  1  0  0  0
 14 18  1  0  0  0  0
 15 31  1  0  0  0  0
 16 20  1  0  0  0  0
 17  2  1  1  0  0  0
 17 22  1  0  0  0  0
 18 19  1  6  0  0  0
 18 24  1  0  0  0  0
 18 30  1  0  0  0  0
 20 21  1  0  0  0  0
 20 26  1  1  0  0  0
 22 23  1  6  0  0  0
 22 28  1  0  0  0  0
 24 25  1  0  0  0  0
 26 27  1  0  0  0  0
 28 29  1  1  0  0  0
M  END
>  <CHROM.1>
157.89626496,154.13560058,-171.18998633,47.53312099,91.68406431,72.18959060
-18.80255024,-21.04922313,-11.56297248,1.58129858,-0.20408223,2.83123667

>  <Name>
ligand

>  <RI>
0

>  <Rbt.Current_Directory>
/home/itssahil/PROJECTS/Mol_Feturizer/New_Systems/rnas/4GPW

>  <Rbt.Executable>
rbdock ($Id: //depot/dev/client3/rdock/2013.1/src/exe/rbdock.cxx#4 $)

>  <Rbt.Library>
libRbt.so (2013.1, Build901 2013/11/27)

>  <Rbt.Parameter_File>
/export/apps/rDock/src/rDock_2013.1_src/data/scripts/dock_solv.prm

>  <Rbt.Receptor>
prm/blind_docking_60.prm

>  <SCORE>
27.9431

>  <SCORE.INTER>
6.76945

>  <SCORE.INTER.CONST>
1

>  <SCORE.INTER.POLAR>
0

>  <SCORE.INTER.ROT>
6

>  <SCORE.INTER.SOLV>
24.1389

>  <SCORE.INTER.VDW>
-11.1333

>  <SCORE.INTER.norm>
0.218369

>  <SCORE.INTRA>
1.44084

>  <SCORE.INTRA.DIHEDRAL>
-10.1942

>  <SCORE.INTRA.DIHEDRAL.0>
19.2558

>  <SCORE.INTRA.POLAR>
0

>  <SCORE.INTRA.POLAR.0>
0

>  <SCORE.INTRA.REPUL>
0

>  <SCORE.INTRA.REPUL.0>
0

>  <SCORE.INTRA.SOLV>
-0.756626

>  <SCORE.INTRA.SOLV.lig_0>
-64.5929

>  <SCORE.INTRA.VDW>
6.91627

>  <SCORE.INTRA.VDW.0>
-4.40538

>  <SCORE.INTRA.norm>
0.0464788

>  <SCORE.RESTR>
19.7328

>  <SCORE.RESTR.CAVITY>
19.7328

>  <SCORE.RESTR.norm>
0.636541

>  <SCORE.SYSTEM>
0

>  <SCORE.SYSTEM.CONST>
0

>  <SCORE.SYSTEM.DIHEDRAL>
0

>  <SCORE.SYSTEM.SOLV>
0

>  <SCORE.SYSTEM.norm>
0

>  <SCORE.heavy>
31

>  <SCORE.norm>
0.901389

>  <RMSD>
9.186

$$$$
ligand
 OpenBabel11021811493D
libRbt.so/2013.1/901 2013/11/27
 31 33  0  0  0  0  0  0  0  0999 V2000
  -18.6388  -24.7309  -11.0174 C   0  0  2  0  0  0  0  0  0  0  0  0
  -18.6061  -23.9885  -12.2275 O   0  0  0  0  0  0  0  0  0  0  0  0
  -16.2439  -20.6468  -11.0328 C   0  0  2  0  0  0  0  0  0  0  0  0
  -15.5203  -19.4193  -11.1157 N   0  0  0  0  0  0  0  0  0  0  0  0
  -18.7936  -18.1350  -10.7624 C   0  0  2  0  0  0  0  0  0  0  0  0
  -19.6376  -25.9407  -11.2435 C   0  0  2  0  0  0  0  0  0  0  0  0
  -19.1596  -26.7601  -12.3668 N   0  0  0  0  0  0  0  0  0  0  0  0
  -15.6104  -21.6742  -12.0686 C   0  0  0  0  0  0  0  0  0  0  0  0
  -19.8300  -18.3132  -11.9210 C   0  0  2  0  0  0  0  0  0  0  0  0
  -20.8153  -19.2216  -11.4888 O   0  0  0  0  0  0  0  0  0  0  0  0
  -21.0908  -25.3885  -11.5258 C   0  0  0  0  0  0  0  0  0  0  0  0
  -16.4137  -23.0489  -11.9723 C   0  0  2  0  0  0  0  0  0  0  0  0
  -15.8365  -24.0217  -12.9251 N   0  0  0  0  0  0  0  0  0  0  0  0
  -19.0837  -18.8437  -13.2151 C   0  0  1  0  0  0  0  0  0  0  0  0
  -20.0673  -19.0252  -14.3422 N   0  0  0  0  0  0  0  0  0  0  0  0
  -21.4514  -24.1409  -10.6170 C   0  0  0  0  0  0  0  0  0  0  0  0
  -17.9333  -22.7832  -12.3321 C   0  0  2  0  0  0  0  0  0  0  0  0
  -17.9598  -17.7567  -13.6649 C   0  0  1  0  0  0  0  0  0  0  0  0
  -18.5058  -16.4945  -13.9906 O   0  0  0  0  0  0  0  0  0  0  0  0
  -20.5006  -23.5050   -9.8957 C   0  0  2  0  0  0  0  0  0  0  0  0
  -19.1284  -23.9121   -9.9039 O   0  0  0  0  0  0  0  0  0  0  0  0
  -18.5423  -21.7442  -11.3038 C   0  0  2  0  0  0  0  0  0  0  0  0
  -19.9177  -21.5001  -11.6421 O   0  0  0  0  0  0  0  0  0  0  0  0
  -16.9478  -17.5689  -12.4860 C   0  0  0  0  0  0  0  0  0  0  0  0
  -17.6915  -17.1906  -11.2064 O   0  0  0  0  0  0  0  0  0  0  0  0
  -20.8113  -22.3011   -9.0073 C   0  0  0  0  0  0  0  0  0  0  0  0
  -19.5656  -21.6931   -8.6320 O   0  0  0  0  0  0  0  0  0  0  0  0
  -17.7492  -20.3805  -11.3951 C   0  0  1  0  0  0  0  0  0  0  0  0
  -18.3139  -19.4841  -10.4537 O   0  0  0  0  0  0  0  0  0  0  0  0
  -17.1399  -18.1557  -14.9105 C   0  0  0  0  0  0  0  0  0  0  0  0
  -21.0698  -20.0967  -14.1728 C   0  0  0  0  0  0  0  0  0  0  0  0
  1  2  1  6  0  0  0
  1  6  1  0  0  0  0
  1 21  1  0  0  0  0
  3  4  1  6  0  0  0
  3  8  1  0  0  0  0
  3 28  1  0  0  0  0
  5  9  1  0  0  0  0
  5 25  1  0  0  0  0
  5 29  1  6  0  0  0
  6  7  1  6  0  0  0
  6 11  1  0  0  0  0
  8 12  1  0  0  0  0
  9 10  1  1  0  0  0
  9 14  1  0  0  0  0
 11 16  1  0  0  0  0
 12 13  1  6  0  0  0
 12 17  1  0  0  0  0
 14 15  1  6  0  0  0
 14 18  1  0  0  0  0
 15 31  1  0  0  0  0
 16 20  1  0  0  0  0
 17  2  1  1  0  0  0
 17 22  1  0  0  0  0
 18 19  1  6  0  0  0
 18 24  1  0  0  0  0
 18 30  1  0  0  0  0
 20 21  1  0  0  0  0
 20 26  1  1  0  0  0
 22 23  1  6  0  0  0
 22 28  1  0  0  0  0
 24 25  1  0  0  0  0
 26 27  1  0  0  0  0
 28 29  1  1  0  0  0
M  END
>  <CHROM.1>
173.30672391,54.94040227,-67.41058152,58.66860783,-167.27696497,114.98654126
-18.68812890,-21.18870452,-11.75989238,-1.77002602,0.29417939,-0.19462428

>  <Name>
ligand

>  <RI>
0

>  <Rbt.Current_Directory>
/home/itssahil/PROJECTS/Mol_Feturizer/New_Systems/rnas/4GPW

>  <Rbt.Executable>
rbdock ($Id: //depot/dev/client3/rdock/2013.1/src/exe/rbdock.cxx#4 $)

>  <Rbt.Library>
libRbt.so (2013.1, Build901 2013/11/27)

>  <Rbt.Parameter_File>
/export/apps/rDock/src/rDock_2013.1_src/data/scripts/dock_solv.prm

>  <Rbt.Receptor>
prm/blind_docking_60.prm

>  <SCORE>
53.9506

>  <SCORE.INTER>
37.973

>  <SCORE.INTER.CONST>
1

>  <SCORE.INTER.POLAR>
0

>  <SCORE.INTER.ROT>
6

>  <SCORE.INTER.SOLV>
27.3782

>  <SCORE.INTER.VDW>
8.58925

>  <SCORE.INTER.norm>
1.22493

>  <SCORE.INTRA>
3.11155

>  <SCORE.INTRA.DIHEDRAL>
-8.38689

>  <SCORE.INTRA.DIHEDRAL.0>
19.2558

>  <SCORE.INTRA.POLAR>
0

>  <SCORE.INTRA.POLAR.0>
0

>  <SCORE.INTRA.REPUL>
0

>  <SCORE.INTRA.REPUL.0>
0

>  <SCORE.INTRA.SOLV>
3.01246

>  <SCORE.INTRA.SOLV.lig_0>
-64.5929

>  <SCORE.INTRA.VDW>
5.79877

>  <SCORE.INTRA.VDW.0>
-4.40538

>  <SCORE.INTRA.norm>
0.100373

>  <SCORE.RESTR>
12.8661

>  <SCORE.RESTR.CAVITY>
12.8661

>  <SCORE.RESTR.norm>
0.415035

>  <SCORE.SYSTEM>
0

>  <SCORE.SYSTEM.CONST>
0

>  <SCORE.SYSTEM.DIHEDRAL>
0

>  <SCORE.SYSTEM.SOLV>
0

>  <SCORE.SYSTEM.norm>
0

>  <SCORE.heavy>
31

>  <SCORE.norm>
1.74034

>  <RMSD>
9.211

$$$$
ligand
 OpenBabel11021811493D
libRbt.so/2013.1/901 2013/11/27
 31 33  0  0  0  0  0  0  0  0999 V2000
  -19.7481  -25.2817  -10.0455 C   0  0  2  0  0  0  0  0  0  0  0  0
  -19.5714  -24.8408  -11.3838 O   0  0  0  0  0  0  0  0  0  0  0  0
  -16.5061  -21.9194  -10.8896 C   0  0  2  0  0  0  0  0  0  0  0  0
  -15.4610  -21.0049  -11.2194 N   0  0  0  0  0  0  0  0  0  0  0  0
  -19.5873  -19.6812  -11.1381 C   0  0  2  0  0  0  0  0  0  0  0  0
  -21.2584  -25.7419   -9.9055 C   0  0  2  0  0  0  0  0  0  0  0  0
  -21.5279  -26.8194  -10.8689 N   0  0  0  0  0  0  0  0  0  0  0  0
  -16.0800  -23.3693  -11.3860 C   0  0  0  0  0  0  0  0  0  0  0  0
  -19.8527  -19.1617  -12.5900 C   0  0  2  0  0  0  0  0  0  0  0  0
  -19.6071  -20.2214  -13.4841 O   0  0  0  0  0  0  0  0  0  0  0  0
  -22.2175  -24.5107  -10.1526 C   0  0  0  0  0  0  0  0  0  0  0  0
  -17.2441  -24.3937  -11.0121 C   0  0  2  0  0  0  0  0  0  0  0  0
  -16.8652  -25.7511  -11.4607 N   0  0  0  0  0  0  0  0  0  0  0  0
  -18.9054  -17.9255  -12.8859 C   0  0  1  0  0  0  0  0  0  0  0  0
  -19.1442  -17.4128  -14.2826 N   0  0  0  0  0  0  0  0  0  0  0  0
  -21.6672  -23.1746   -9.5013 C   0  0  0  0  0  0  0  0  0  0  0  0
  -18.5786  -23.9428  -11.7365 C   0  0  2  0  0  0  0  0  0  0  0  0
  -19.2332  -16.7373  -11.8238 C   0  0  1  0  0  0  0  0  0  0  0  0
  -20.5636  -16.2680  -11.9075 O   0  0  0  0  0  0  0  0  0  0  0  0
  -20.4013  -23.0967   -9.0322 C   0  0  2  0  0  0  0  0  0  0  0  0
  -19.4905  -24.1994   -9.0903 O   0  0  0  0  0  0  0  0  0  0  0  0
  -18.9774  -22.4909  -11.2461 C   0  0  2  0  0  0  0  0  0  0  0  0
  -20.1830  -22.0841  -11.9146 O   0  0  0  0  0  0  0  0  0  0  0  0
  -18.9901  -17.2809  -10.3766 C   0  0  0  0  0  0  0  0  0  0  0  0
  -19.8040  -18.5529  -10.1464 O   0  0  0  0  0  0  0  0  0  0  0  0
  -19.8373  -21.8268   -8.3963 C   0  0  0  0  0  0  0  0  0  0  0  0
  -18.4215  -21.8017   -8.6352 O   0  0  0  0  0  0  0  0  0  0  0  0
  -17.8267  -21.4721  -11.6137 C   0  0  1  0  0  0  0  0  0  0  0  0
  -18.2140  -20.1907  -11.1483 O   0  0  0  0  0  0  0  0  0  0  0  0
  -18.3660  -15.4705  -11.9868 C   0  0  0  0  0  0  0  0  0  0  0  0
  -17.9478  -17.0001  -15.0442 C   0  0  0  0  0  0  0  0  0  0  0  0
  1  2  1  6  0  0  0
  1  6  1  0  0  0  0
  1 21  1  0  0  0  0
  3  4  1  6  0  0  0
  3  8  1  0  0  0  0
  3 28  1  0  0  0  0
  5  9  1  0  0  0  0
  5 25  1  0  0  0  0
  5 29  1  6  0  0  0
  6  7  1  6  0  0  0
  6 11  1  0  0  0  0
  8 12  1  0  0  0  0
  9 10  1  6  0  0  0
  9 14  1  0  0  0  0
 11 16  1  0  0  0  0
 12 13  1  6  0  0  0
 12 17  1  0  0  0  0
 14 15  1  6  0  0  0
 14 18  1  0  0  0  0
 15 31  1  0  0  0  0
 16 20  1  0  0  0  0
 17  2  1  1  0  0  0
 17 22  1  0  0  0  0
 18 19  1  6  0  0  0
 18 24  1  0  0  0  0
 18 30  1  0  0  0  0
 20 21  1  0  0  0  0
 20 26  1  1  0  0  0
 22 23  1  6  0  0  0
 22 28  1  0  0  0  0
 24 25  1  0  0  0  0
 26 27  1  0  0  0  0
 28 29  1  1  0  0  0
M  END
>  <CHROM.1>
155.77264773,-81.86649042,-140.10614544,44.57344966,-150.81184447,-153.59655990
-19.11104010,-21.36871223,-11.17309078,1.67390425,-0.39600021,2.90151437

>  <Name>
ligand

>  <RI>
0

>  <Rbt.Current_Directory>
/home/itssahil/PROJECTS/Mol_Feturizer/New_Systems/rnas/4GPW

>  <Rbt.Executable>
rbdock ($Id: //depot/dev/client3/rdock/2013.1/src/exe/rbdock.cxx#4 $)

>  <Rbt.Library>
libRbt.so (2013.1, Build901 2013/11/27)

>  <Rbt.Parameter_File>
/export/apps/rDock/src/rDock_2013.1_src/data/scripts/dock_solv.prm

>  <Rbt.Receptor>
prm/blind_docking_100.prm

>  <SCORE>
22.5138

>  <SCORE.INTER>
-1.63276

>  <SCORE.INTER.CONST>
1

>  <SCORE.INTER.POLAR>
0

>  <SCORE.INTER.ROT>
6

>  <SCORE.INTER.SOLV>
14.7653

>  <SCORE.INTER.VDW>
-13.6103

>  <SCORE.INTER.norm>
-0.0526698

>  <SCORE.INTRA>
2.39304

>  <SCORE.INTRA.DIHEDRAL>
-6.99144

>  <SCORE.INTRA.DIHEDRAL.0>
19.2558

>  <SCORE.INTRA.POLAR>
0

>  <SCORE.INTRA.POLAR.0>
0

>  <SCORE.INTRA.REPUL>
0

>  <SCORE.INTRA.REPUL.0>
0

>  <SCORE.INTRA.SOLV>
-0.0411296

>  <SCORE.INTRA.SOLV.lig_0>
-64.5929

>  <SCORE.INTRA.VDW>
5.90932

>  <SCORE.INTRA.VDW.0>
-4.40538

>  <SCORE.INTRA.norm>
0.0771948

>  <SCORE.RESTR>
21.7535

>  <SCORE.RESTR.CAVITY>
21.7535

>  <SCORE.RESTR.norm>
0.701727

>  <SCORE.SYSTEM>
0

>  <SCORE.SYSTEM.CONST>
0

>  <SCORE.SYSTEM.DIHEDRAL>
0

>  <SCORE.SYSTEM.SOLV>
0

>  <SCORE.SYSTEM.norm>
0

>  <SCORE.heavy>
31

>  <SCORE.norm>
0.726252

>  <RMSD>
9.259

$$$$
ligand
 OpenBabel11021811493D
libRbt.so/2013.1/901 2013/11/27
 31 33  0  0  0  0  0  0  0  0999 V2000
  -15.8734  -24.2261  -11.2681 C   0  0  2  0  0  0  0  0  0  0  0  0
  -16.5396  -24.2564  -10.0144 O   0  0  0  0  0  0  0  0  0  0  0  0
  -20.2666  -22.4585  -11.0398 C   0  0  2  0  0  0  0  0  0  0  0  0
  -21.6250  -22.0343  -10.9294 N   0  0  0  0  0  0  0  0  0  0  0  0
  -18.5245  -19.6094  -10.8939 C   0  0  2  0  0  0  0  0  0  0  0  0
  -14.3977  -24.7491  -11.0207 C   0  0  2  0  0  0  0  0  0  0  0  0
  -14.4523  -26.1118  -10.4711 N   0  0  0  0  0  0  0  0  0  0  0  0
  -20.2206  -24.0409  -10.8858 C   0  0  0  0  0  0  0  0  0  0  0  0
  -19.1614  -18.1865  -11.0274 C   0  0  2  0  0  0  0  0  0  0  0  0
  -19.3669  -17.6773   -9.7308 O   0  0  0  0  0  0  0  0  0  0  0  0
  -13.6428  -23.7725  -10.0344 C   0  0  0  0  0  0  0  0  0  0  0  0
  -18.7038  -24.5173  -11.0157 C   0  0  2  0  0  0  0  0  0  0  0  0
  -18.6389  -25.9886  -10.8806 N   0  0  0  0  0  0  0  0  0  0  0  0
  -20.5255  -18.2955  -11.8277 C   0  0  1  0  0  0  0  0  0  0  0  0
  -21.1564  -16.9339  -11.9635 N   0  0  0  0  0  0  0  0  0  0  0  0
  -13.9728  -22.2489  -10.3209 C   0  0  0  0  0  0  0  0  0  0  0  0
  -17.8503  -23.8356   -9.8685 C   0  0  2  0  0  0  0  0  0  0  0  0
  -20.2258  -18.8894  -13.3125 C   0  0  1  0  0  0  0  0  0  0  0  0
  -19.3632  -18.0701  -14.0755 O   0  0  0  0  0  0  0  0  0  0  0  0
  -14.9854  -21.8972  -11.1454 C   0  0  2  0  0  0  0  0  0  0  0  0
  -15.8108  -22.8630  -11.8047 O   0  0  0  0  0  0  0  0  0  0  0  0
  -17.9231  -22.2614  -10.0250 C   0  0  2  0  0  0  0  0  0  0  0  0
  -17.1553  -21.6493   -8.9754 O   0  0  0  0  0  0  0  0  0  0  0  0
  -19.5639  -20.2994  -13.1614 C   0  0  0  0  0  0  0  0  0  0  0  0
  -18.3239  -20.2086  -12.2739 O   0  0  0  0  0  0  0  0  0  0  0  0
  -15.3311  -20.4396  -11.4467 C   0  0  0  0  0  0  0  0  0  0  0  0
  -16.0997  -20.4072  -12.6593 O   0  0  0  0  0  0  0  0  0  0  0  0
  -19.4243  -21.7845   -9.8977 C   0  0  1  0  0  0  0  0  0  0  0  0
  -19.4490  -20.3763  -10.0557 O   0  0  0  0  0  0  0  0  0  0  0  0
  -21.4764  -19.0654  -14.2003 C   0  0  0  0  0  0  0  0  0  0  0  0
  -21.5181  -16.2492  -10.7057 C   0  0  0  0  0  0  0  0  0  0  0  0
  1  2  1  1  0  0  0
  1  6  1  0  0  0  0
  1 21  1  0  0  0  0
  3  4  1  1  0  0  0
  3  8  1  0  0  0  0
  3 28  1  0  0  0  0
  5  9  1  0  0  0  0
  5 25  1  0  0  0  0
  5 29  1  1  0  0  0
  6  7  1  1  0  0  0
  6 11  1  0  0  0  0
  8 12  1  0  0  0  0
  9 10  1  1  0  0  0
  9 14  1  0  0  0  0
 11 16  1  0  0  0  0
 12 13  1  1  0  0  0
 12 17  1  0  0  0  0
 14 15  1  6  0  0  0
 14 18  1  0  0  0  0
 15 31  1  0  0  0  0
 16 20  1  0  0  0  0
 17  2  1  6  0  0  0
 17 22  1  0  0  0  0
 18 19  1  6  0  0  0
 18 24  1  0  0  0  0
 18 30  1  0  0  0  0
 20 21  1  0  0  0  0
 20 26  1  6  0  0  0
 22 23  1  1  0  0  0
 22 28  1  0  0  0  0
 24 25  1  0  0  0  0
 26 27  1  0  0  0  0
 28 29  1  6  0  0  0
M  END
>  <CHROM.1>
178.73809947,166.15948771,-61.31238303,48.20870072,160.37066074,-86.62770718
-18.11189781,-21.35391025,-11.19704480,0.90045226,0.03142370,2.93449092

>  <Name>
ligand

>  <RI>
0

>  <Rbt.Current_Directory>
/home/itssahil/PROJECTS/Mol_Feturizer/New_Systems/rnas/4GPW

>  <Rbt.Executable>
rbdock ($Id: //depot/dev/client3/rdock/2013.1/src/exe/rbdock.cxx#4 $)

>  <Rbt.Library>
libRbt.so (2013.1, Build901 2013/11/27)

>  <Rbt.Parameter_File>
/export/apps/rDock/src/rDock_2013.1_src/data/scripts/dock_solv.prm

>  <Rbt.Receptor>
prm/blind_docking_60.prm

>  <SCORE>
32.0673

>  <SCORE.INTER>
11.6637

>  <SCORE.INTER.CONST>
1

>  <SCORE.INTER.POLAR>
0

>  <SCORE.INTER.ROT>
6

>  <SCORE.INTER.SOLV>
26.2697

>  <SCORE.INTER.VDW>
-8.58076

>  <SCORE.INTER.norm>
0.376249

>  <SCORE.INTRA>
0.873707

>  <SCORE.INTRA.DIHEDRAL>
-11.565

>  <SCORE.INTRA.DIHEDRAL.0>
19.2558

>  <SCORE.INTRA.POLAR>
0

>  <SCORE.INTRA.POLAR.0>
0

>  <SCORE.INTRA.REPUL>
0.230127

>  <SCORE.INTRA.REPUL.0>
0

>  <SCORE.INTRA.SOLV>
0.760607

>  <SCORE.INTRA.SOLV.lig_0>
-64.5929

>  <SCORE.INTRA.VDW>
5.12527

>  <SCORE.INTRA.VDW.0>
-4.40538

>  <SCORE.INTRA.norm>
0.0281841

>  <SCORE.RESTR>
19.5299

>  <SCORE.RESTR.CAVITY>
19.5299

>  <SCORE.RESTR.norm>
0.629995

>  <SCORE.SYSTEM>
0

>  <SCORE.SYSTEM.CONST>
0

>  <SCORE.SYSTEM.DIHEDRAL>
0

>  <SCORE.SYSTEM.SOLV>
0

>  <SCORE.SYSTEM.norm>
0

>  <SCORE.heavy>
31

>  <SCORE.norm>
1.03443

>  <RMSD>
9.274

$$$$
ligand
 OpenBabel11021811493D
libRbt.so/2013.1/901 2013/11/27
 31 33  0  0  0  0  0  0  0  0999 V2000
  -18.6222  -24.3808  -10.8216 C   0  0  2  0  0  0  0  0  0  0  0  0
  -18.2688  -23.9022  -12.1110 O   0  0  0  0  0  0  0  0  0  0  0  0
  -15.3876  -20.9328  -11.0833 C   0  0  2  0  0  0  0  0  0  0  0  0
  -14.3878  -19.9259  -11.2374 N   0  0  0  0  0  0  0  0  0  0  0  0
  -17.2107  -17.9442  -11.7483 C   0  0  2  0  0  0  0  0  0  0  0  0
  -19.3934  -25.7496  -11.0313 C   0  0  2  0  0  0  0  0  0  0  0  0
  -18.5173  -26.6962  -11.7372 N   0  0  0  0  0  0  0  0  0  0  0  0
  -14.8675  -22.2672  -11.7752 C   0  0  0  0  0  0  0  0  0  0  0  0
  -18.6238  -17.3603  -11.4162 C   0  0  2  0  0  0  0  0  0  0  0  0
  -18.7906  -17.3902  -10.0183 O   0  0  0  0  0  0  0  0  0  0  0  0
  -20.7224  -25.4948  -11.8470 C   0  0  0  0  0  0  0  0  0  0  0  0
  -15.9809  -23.3955  -11.5979 C   0  0  2  0  0  0  0  0  0  0  0  0
  -15.5144  -24.6483  -12.2305 N   0  0  0  0  0  0  0  0  0  0  0  0
  -19.7335  -18.2238  -12.1485 C   0  0  1  0  0  0  0  0  0  0  0  0
  -21.1031  -17.6782  -11.8374 N   0  0  0  0  0  0  0  0  0  0  0  0
  -21.4552  -24.1594  -11.4083 C   0  0  0  0  0  0  0  0  0  0  0  0
  -17.3197  -22.9108  -12.2921 C   0  0  2  0  0  0  0  0  0  0  0  0
  -19.4890  -18.1526  -13.7555 C   0  0  1  0  0  0  0  0  0  0  0  0
  -19.5771  -16.8409  -14.2739 O   0  0  0  0  0  0  0  0  0  0  0  0
  -20.8388  -23.2531  -10.6162 C   0  0  2  0  0  0  0  0  0  0  0  0
  -19.5061  -23.4387  -10.1280 O   0  0  0  0  0  0  0  0  0  0  0  0
  -17.8125  -21.5720  -11.6047 C   0  0  2  0  0  0  0  0  0  0  0  0
  -19.0215  -21.1326  -12.2458 O   0  0  0  0  0  0  0  0  0  0  0  0
  -18.0619  -18.7137  -14.0681 C   0  0  0  0  0  0  0  0  0  0  0  0
  -17.0095  -17.9649  -13.2526 O   0  0  0  0  0  0  0  0  0  0  0  0
  -21.5142  -21.9565  -10.1715 C   0  0  0  0  0  0  0  0  0  0  0  0
  -20.7958  -20.8588  -10.7554 O   0  0  0  0  0  0  0  0  0  0  0  0
  -16.7122  -20.4510  -11.7772 C   0  0  1  0  0  0  0  0  0  0  0  0
  -17.1834  -19.2762  -11.1396 O   0  0  0  0  0  0  0  0  0  0  0  0
  -20.4941  -18.9684  -14.5966 C   0  0  0  0  0  0  0  0  0  0  0  0
  -21.3776  -16.2978  -12.2857 C   0  0  0  0  0  0  0  0  0  0  0  0
  1  2  1  6  0  0  0
  1  6  1  0  0  0  0
  1 21  1  0  0  0  0
  3  4  1  6  0  0  0
  3  8  1  0  0  0  0
  3 28  1  0  0  0  0
  5  9  1  0  0  0  0
  5 25  1  0  0  0  0
  5 29  1  6  0  0  0
  6  7  1  6  0  0  0
  6 11  1  0  0  0  0
  8 12  1  0  0  0  0
  9 10  1  1  0  0  0
  9 14  1  0  0  0  0
 11 16  1  0  0  0  0
 12 13  1  6  0  0  0
 12 17  1  0  0  0  0
 14 15  1  6  0  0  0
 14 18  1  0  0  0  0
 15 31  1  0  0  0  0
 16 20  1  0  0  0  0
 17  2  1  1  0  0  0
 17 22  1  0  0  0  0
 18 19  1  6  0  0  0
 18 24  1  0  0  0  0
 18 30  1  0  0  0  0
 20 21  1  0  0  0  0
 20 26  1  1  0  0  0
 22 23  1  6  0  0  0
 22 28  1  0  0  0  0
 24 25  1  0  0  0  0
 26 27  1  0  0  0  0
 28 29  1  1  0  0  0
M  END
>  <CHROM.1>
-164.13731683,134.30703502,62.25623529,56.00679524,-114.77345858,111.72677973
-18.58717653,-20.98314238,-11.84352942,1.49368032,-0.03344041,2.97484211

>  <Name>
ligand

>  <RI>
0

>  <Rbt.Current_Directory>
/home/itssahil/PROJECTS/Mol_Feturizer/New_Systems/rnas/4GPW

>  <Rbt.Executable>
rbdock ($Id: //depot/dev/client3/rdock/2013.1/src/exe/rbdock.cxx#4 $)

>  <Rbt.Library>
libRbt.so (2013.1, Build901 2013/11/27)

>  <Rbt.Parameter_File>
/export/apps/rDock/src/rDock_2013.1_src/data/scripts/dock_solv.prm

>  <Rbt.Receptor>
prm/blind_docking_100.prm

>  <SCORE>
41.1392

>  <SCORE.INTER>
20.1583

>  <SCORE.INTER.CONST>
1

>  <SCORE.INTER.POLAR>
0

>  <SCORE.INTER.ROT>
6

>  <SCORE.INTER.SOLV>
29.0441

>  <SCORE.INTER.VDW>
-3.84249

>  <SCORE.INTER.norm>
0.650269

>  <SCORE.INTRA>
3.41118

>  <SCORE.INTRA.DIHEDRAL>
-3.18366

>  <SCORE.INTRA.DIHEDRAL.0>
19.2558

>  <SCORE.INTRA.POLAR>
0

>  <SCORE.INTRA.POLAR.0>
0

>  <SCORE.INTRA.REPUL>
0.165329

>  <SCORE.INTRA.REPUL.0>
0

>  <SCORE.INTRA.SOLV>
1.11754

>  <SCORE.INTRA.SOLV.lig_0>
-64.5929

>  <SCORE.INTRA.VDW>
3.61759

>  <SCORE.INTRA.VDW.0>
-4.40538

>  <SCORE.INTRA.norm>
0.110038

>  <SCORE.RESTR>
17.5697

>  <SCORE.RESTR.CAVITY>
17.5697

>  <SCORE.RESTR.norm>
0.566766

>  <SCORE.SYSTEM>
0

>  <SCORE.SYSTEM.CONST>
0

>  <SCORE.SYSTEM.DIHEDRAL>
0

>  <SCORE.SYSTEM.SOLV>
0

>  <SCORE.SYSTEM.norm>
0

>  <SCORE.heavy>
31

>  <SCORE.norm>
1.32707

>  <RMSD>
9.277

$$$$
ligand
 OpenBabel11021811493D
libRbt.so/2013.1/901 2013/11/27
 31 33  0  0  0  0  0  0  0  0999 V2000
  -18.6639  -24.6174  -10.8276 C   0  0  2  0  0  0  0  0  0  0  0  0
  -18.3917  -24.0138  -12.0839 O   0  0  0  0  0  0  0  0  0  0  0  0
  -15.4527  -21.1346  -10.9667 C   0  0  2  0  0  0  0  0  0  0  0  0
  -14.4332  -20.1433  -11.0903 N   0  0  0  0  0  0  0  0  0  0  0  0
  -17.2784  -18.1027  -11.5607 C   0  0  2  0  0  0  0  0  0  0  0  0
  -20.0648  -25.3472  -10.9587 C   0  0  2  0  0  0  0  0  0  0  0  0
  -19.9912  -26.3475  -12.0338 N   0  0  0  0  0  0  0  0  0  0  0  0
  -14.9588  -22.4571  -11.6996 C   0  0  0  0  0  0  0  0  0  0  0  0
  -18.7165  -17.5729  -11.2457 C   0  0  2  0  0  0  0  0  0  0  0  0
  -18.9066  -17.6299   -9.8517 O   0  0  0  0  0  0  0  0  0  0  0  0
  -21.1959  -24.2840  -11.2535 C   0  0  0  0  0  0  0  0  0  0  0  0
  -16.0943  -23.5682  -11.5566 C   0  0  2  0  0  0  0  0  0  0  0  0
  -15.6524  -24.8099  -12.2276 N   0  0  0  0  0  0  0  0  0  0  0  0
  -19.7825  -18.4628  -12.0104 C   0  0  1  0  0  0  0  0  0  0  0  0
  -21.1755  -17.9695  -11.7162 N   0  0  0  0  0  0  0  0  0  0  0  0
  -21.0025  -22.9484  -10.4222 C   0  0  0  0  0  0  0  0  0  0  0  0
  -17.4232  -23.0362  -12.2349 C   0  0  2  0  0  0  0  0  0  0  0  0
  -19.5125  -18.3588  -13.6116 C   0  0  1  0  0  0  0  0  0  0  0  0
  -19.6369  -17.0431  -14.1122 O   0  0  0  0  0  0  0  0  0  0  0  0
  -19.8506  -22.6998   -9.7588 C   0  0  2  0  0  0  0  0  0  0  0  0
  -18.7488  -23.6136   -9.7622 O   0  0  0  0  0  0  0  0  0  0  0  0
  -17.8897  -21.7097  -11.5064 C   0  0  2  0  0  0  0  0  0  0  0  0
  -19.0897  -21.2270  -12.1331 O   0  0  0  0  0  0  0  0  0  0  0  0
  -18.0615  -18.8655  -13.9065 C   0  0  0  0  0  0  0  0  0  0  0  0
  -17.0501  -18.0935  -13.0612 O   0  0  0  0  0  0  0  0  0  0  0  0
  -19.6292  -21.4250   -8.9459 C   0  0  0  0  0  0  0  0  0  0  0  0
  -18.2220  -21.1388   -8.9435 O   0  0  0  0  0  0  0  0  0  0  0  0
  -16.7675  -20.6057  -11.6448 C   0  0  1  0  0  0  0  0  0  0  0  0
  -17.2155  -19.4421  -10.9711 O   0  0  0  0  0  0  0  0  0  0  0  0
  -20.4737  -19.1958  -14.4825 C   0  0  0  0  0  0  0  0  0  0  0  0
  -21.5462  -16.6633  -12.2978 C   0  0  0  0  0  0  0  0  0  0  0  0
  1  2  1  6  0  0  0
  1  6  1  0  0  0  0
  1 21  1  0  0  0  0
  3  4  1  6  0  0  0
  3  8  1  0  0  0  0
  3 28  1  0  0  0  0
  5  9  1  0  0  0  0
  5 25  1  0  0  0  0
  5 29  1  6  0  0  0
  6  7  1  6  0  0  0
  6 11  1  0  0  0  0
  8 12  1  0  0  0  0
  9 10  1  1  0  0  0
  9 14  1  0  0  0  0
 11 16  1  0  0  0  0
 12 13  1  6  0  0  0
 12 17  1  0  0  0  0
 14 15  1  6  0  0  0
 14 18  1  0  0  0  0
 15 31  1  0  0  0  0
 16 20  1  0  0  0  0
 17  2  1  1  0  0  0
 17 22  1  0  0  0  0
 18 19  1  6  0  0  0
 18 24  1  0  0  0  0
 18 30  1  0  0  0  0
 20 21  1  0  0  0  0
 20 26  1  1  0  0  0
 22 23  1  6  0  0  0
 22 28  1  0  0  0  0
 24 25  1  0  0  0  0
 26 27  1  0  0  0  0
 28 29  1  1  0  0  0
M  END
>  <CHROM.1>
164.07410248,130.30230519,69.79369366,49.77700540,-151.69519928,114.90275811
-18.49647278,-21.00706511,-11.57508847,1.44864572,-0.00524356,2.93925600

>  <Name>
ligand

>  <RI>
0

>  <Rbt.Current_Directory>
/home/itssahil/PROJECTS/Mol_Feturizer/New_Systems/rnas/4GPW

>  <Rbt.Executable>
rbdock ($Id: //depot/dev/client3/rdock/2013.1/src/exe/rbdock.cxx#4 $)

>  <Rbt.Library>
libRbt.so (2013.1, Build901 2013/11/27)

>  <Rbt.Parameter_File>
/export/apps/rDock/src/rDock_2013.1_src/data/scripts/dock_solv.prm

>  <Rbt.Receptor>
prm/blind_docking_60.prm

>  <SCORE>
35.1101

>  <SCORE.INTER>
17.1091

>  <SCORE.INTER.CONST>
1

>  <SCORE.INTER.POLAR>
0

>  <SCORE.INTER.ROT>
6

>  <SCORE.INTER.SOLV>
32.5211

>  <SCORE.INTER.VDW>
-7.03432

>  <SCORE.INTER.norm>
0.551906

>  <SCORE.INTRA>
5.28117

>  <SCORE.INTRA.DIHEDRAL>
-1.00938

>  <SCORE.INTRA.DIHEDRAL.0>
19.2558

>  <SCORE.INTRA.POLAR>
0

>  <SCORE.INTRA.POLAR.0>
0

>  <SCORE.INTRA.REPUL>
0

>  <SCORE.INTRA.REPUL.0>
0

>  <SCORE.INTRA.SOLV>
0.376627

>  <SCORE.INTRA.SOLV.lig_0>
-64.5929

>  <SCORE.INTRA.VDW>
5.59755

>  <SCORE.INTRA.VDW.0>
-4.40538

>  <SCORE.INTRA.norm>
0.17036

>  <SCORE.RESTR>
12.7198

>  <SCORE.RESTR.CAVITY>
12.7198

>  <SCORE.RESTR.norm>
0.410316

>  <SCORE.SYSTEM>
0

>  <SCORE.SYSTEM.CONST>
0

>  <SCORE.SYSTEM.DIHEDRAL>
0

>  <SCORE.SYSTEM.SOLV>
0

>  <SCORE.SYSTEM.norm>
0

>  <SCORE.heavy>
31

>  <SCORE.norm>
1.13258

>  <RMSD>
9.303

$$$$
ligand
 OpenBabel11021811493D
libRbt.so/2013.1/901 2013/11/27
 31 33  0  0  0  0  0  0  0  0999 V2000
  -16.7436  -24.9788  -10.3287 C   0  0  2  0  0  0  0  0  0  0  0  0
  -16.4563  -24.0195   -9.3219 O   0  0  0  0  0  0  0  0  0  0  0  0
  -20.1269  -21.8635   -9.0925 C   0  0  2  0  0  0  0  0  0  0  0  0
  -21.1629  -21.0335   -8.5677 N   0  0  0  0  0  0  0  0  0  0  0  0
  -19.3023  -20.0797  -11.5036 C   0  0  2  0  0  0  0  0  0  0  0  0
  -15.5452  -24.9349  -11.3652 C   0  0  2  0  0  0  0  0  0  0  0  0
  -14.2890  -25.2449  -10.6668 N   0  0  0  0  0  0  0  0  0  0  0  0
  -19.9254  -23.0974   -8.1092 C   0  0  0  0  0  0  0  0  0  0  0  0
  -18.1023  -19.4312  -12.2700 C   0  0  2  0  0  0  0  0  0  0  0  0
  -16.9209  -20.0760  -11.8562 O   0  0  0  0  0  0  0  0  0  0  0  0
  -15.4770  -23.5095  -12.0434 C   0  0  0  0  0  0  0  0  0  0  0  0
  -18.7726  -24.0295   -8.6978 C   0  0  2  0  0  0  0  0  0  0  0  0
  -18.5724  -25.1877   -7.8001 N   0  0  0  0  0  0  0  0  0  0  0  0
  -18.0543  -17.8788  -11.9520 C   0  0  1  0  0  0  0  0  0  0  0  0
  -16.9015  -17.2367  -12.6794 N   0  0  0  0  0  0  0  0  0  0  0  0
  -16.9138  -22.9266  -12.3729 C   0  0  0  0  0  0  0  0  0  0  0  0
  -17.4327  -23.1904   -8.7970 C   0  0  2  0  0  0  0  0  0  0  0  0
  -19.4421  -17.1903  -12.4494 C   0  0  1  0  0  0  0  0  0  0  0  0
  -19.6608  -17.3210  -13.8395 O   0  0  0  0  0  0  0  0  0  0  0  0
  -18.0314  -23.5014  -11.8736 C   0  0  2  0  0  0  0  0  0  0  0  0
  -17.9905  -24.6571  -11.0300 O   0  0  0  0  0  0  0  0  0  0  0  0
  -17.6567  -21.9560   -9.7633 C   0  0  2  0  0  0  0  0  0  0  0  0
  -16.4408  -21.1936   -9.8407 O   0  0  0  0  0  0  0  0  0  0  0  0
  -20.6337  -17.8686  -11.6950 C   0  0  0  0  0  0  0  0  0  0  0  0
  -20.5925  -19.3825  -11.8948 O   0  0  0  0  0  0  0  0  0  0  0  0
  -19.4324  -22.9690  -12.1713 C   0  0  0  0  0  0  0  0  0  0  0  0
  -20.3023  -24.0944  -12.3685 O   0  0  0  0  0  0  0  0  0  0  0  0
  -18.7987  -21.0296   -9.1847 C   0  0  1  0  0  0  0  0  0  0  0  0
  -18.9777  -19.9468  -10.0814 O   0  0  0  0  0  0  0  0  0  0  0  0
  -19.5392  -15.6727  -12.1844 C   0  0  0  0  0  0  0  0  0  0  0  0
  -16.8594  -17.4293  -14.1432 C   0  0  0  0  0  0  0  0  0  0  0  0
  1  2  1  1  0  0  0
  1  6  1  0  0  0  0
  1 21  1  0  0  0  0
  3  4  1  1  0  0  0
  3  8  1  0  0  0  0
  3 28  1  0  0  0  0
  5  9  1  0  0  0  0
  5 25  1  0  0  0  0
  5 29  1  1  0  0  0
  6  7  1  1  0  0  0
  6 11  1  0  0  0  0
  8 12  1  0  0  0  0
  9 10  1  1  0  0  0
  9 14  1  0  0  0  0
 11 16  1  0  0  0  0
 12 13  1  1  0  0  0
 12 17  1  0  0  0  0
 14 15  1  6  0  0  0
 14 18  1  0  0  0  0
 15 31  1  0  0  0  0
 16 20  1  0  0  0  0
 17  2  1  6  0  0  0
 17 22  1  0  0  0  0
 18 19  1  6  0  0  0
 18 24  1  0  0  0  0
 18 30  1  0  0  0  0
 20 21  1  0  0  0  0
 20 26  1  6  0  0  0
 22 23  1  1  0  0  0
 22 28  1  0  0  0  0
 24 25  1  0  0  0  0
 26 27  1  0  0  0  0
 28 29  1  6  0  0  0
M  END
>  <CHROM.1>
138.77357244,-118.44776905,55.33492469,36.95340057,140.28800003,-61.27747572
-18.23331182,-21.36251865,-10.99395684,-1.30031862,0.55537461,-0.50053753

>  <Name>
ligand

>  <RI>
0

>  <Rbt.Current_Directory>
/home/itssahil/PROJECTS/Mol_Feturizer/New_Systems/rnas/4GPW

>  <Rbt.Executable>
rbdock ($Id: //depot/dev/client3/rdock/2013.1/src/exe/rbdock.cxx#4 $)

>  <Rbt.Library>
libRbt.so (2013.1, Build901 2013/11/27)

>  <Rbt.Parameter_File>
/export/apps/rDock/src/rDock_2013.1_src/data/scripts/dock_solv.prm

>  <Rbt.Receptor>
prm/blind_docking_100.prm

>  <SCORE>
58.4986

>  <SCORE.INTER>
27.1082

>  <SCORE.INTER.CONST>
1

>  <SCORE.INTER.POLAR>
0

>  <SCORE.INTER.ROT>
6

>  <SCORE.INTER.SOLV>
21.2482

>  <SCORE.INTER.VDW>
3.38942

>  <SCORE.INTER.norm>
0.874459

>  <SCORE.INTRA>
9.99379

>  <SCORE.INTRA.DIHEDRAL>
-1.94679

>  <SCORE.INTRA.DIHEDRAL.0>
19.2558

>  <SCORE.INTRA.POLAR>
0

>  <SCORE.INTRA.POLAR.0>
0

>  <SCORE.INTRA.REPUL>
0

>  <SCORE.INTRA.REPUL.0>
0

>  <SCORE.INTRA.SOLV>
0.934274

>  <SCORE.INTRA.SOLV.lig_0>
-64.5929

>  <SCORE.INTRA.VDW>
10.5

>  <SCORE.INTRA.VDW.0>
-4.40538

>  <SCORE.INTRA.norm>
0.32238

>  <SCORE.RESTR>
21.3966

>  <SCORE.RESTR.CAVITY>
21.3966

>  <SCORE.RESTR.norm>
0.690213

>  <SCORE.SYSTEM>
0

>  <SCORE.SYSTEM.CONST>
0

>  <SCORE.SYSTEM.DIHEDRAL>
0

>  <SCORE.SYSTEM.SOLV>
0

>  <SCORE.SYSTEM.norm>
0

>  <SCORE.heavy>
31

>  <SCORE.norm>
1.88705

>  <RMSD>
9.356

$$$$
ligand
 OpenBabel11021811493D
libRbt.so/2013.1/901 2013/11/27
 31 33  0  0  0  0  0  0  0  0999 V2000
  -19.4487  -16.4857  -10.6572 C   0  0  2  0  0  0  0  0  0  0  0  0
  -20.4560  -16.9539  -11.5420 O   0  0  0  0  0  0  0  0  0  0  0  0
  -21.1155  -20.0446  -14.4033 C   0  0  2  0  0  0  0  0  0  0  0  0
  -20.8676  -20.9513  -15.4774 N   0  0  0  0  0  0  0  0  0  0  0  0
  -19.2815  -22.7029  -12.7359 C   0  0  2  0  0  0  0  0  0  0  0  0
  -19.1064  -14.9999  -11.0904 C   0  0  2  0  0  0  0  0  0  0  0  0
  -20.3228  -14.1783  -11.0068 N   0  0  0  0  0  0  0  0  0  0  0  0
  -20.9161  -18.5613  -14.9419 C   0  0  0  0  0  0  0  0  0  0  0  0
  -19.8441  -23.8145  -11.7894 C   0  0  2  0  0  0  0  0  0  0  0  0
  -21.1092  -24.1998  -12.2729 O   0  0  0  0  0  0  0  0  0  0  0  0
  -18.5200  -14.9926  -12.5576 C   0  0  0  0  0  0  0  0  0  0  0  0
  -21.1994  -17.5465  -13.7444 C   0  0  2  0  0  0  0  0  0  0  0  0
  -21.0245  -16.1591  -14.2258 N   0  0  0  0  0  0  0  0  0  0  0  0
  -19.9392  -23.2468  -10.3123 C   0  0  1  0  0  0  0  0  0  0  0  0
  -20.4831  -24.3032   -9.3855 N   0  0  0  0  0  0  0  0  0  0  0  0
  -17.5379  -16.2081  -12.8230 C   0  0  0  0  0  0  0  0  0  0  0  0
  -20.1780  -17.8389  -12.5695 C   0  0  2  0  0  0  0  0  0  0  0  0
  -18.4522  -22.8181   -9.8098 C   0  0  1  0  0  0  0  0  0  0  0  0
  -17.5423  -23.8990   -9.7795 O   0  0  0  0  0  0  0  0  0  0  0  0
  -17.4545  -17.2406  -11.9537 C   0  0  2  0  0  0  0  0  0  0  0  0
  -18.2340  -17.3011  -10.7546 O   0  0  0  0  0  0  0  0  0  0  0  0
  -20.3767  -19.3247  -12.0588 C   0  0  2  0  0  0  0  0  0  0  0  0
  -19.4403  -19.5864  -11.0003 O   0  0  0  0  0  0  0  0  0  0  0  0
  -17.8926  -21.7270  -10.7822 C   0  0  0  0  0  0  0  0  0  0  0  0
  -17.9325  -22.2328  -12.2231 O   0  0  0  0  0  0  0  0  0  0  0  0
  -16.5181  -18.4276  -12.1752 C   0  0  0  0  0  0  0  0  0  0  0  0
  -16.8165  -19.4200  -11.1811 O   0  0  0  0  0  0  0  0  0  0  0  0
  -20.0976  -20.3342  -13.2421 C   0  0  1  0  0  0  0  0  0  0  0  0
  -20.2978  -21.6482  -12.7503 O   0  0  0  0  0  0  0  0  0  0  0  0
  -18.3992  -22.2287   -8.3840 C   0  0  0  0  0  0  0  0  0  0  0  0
  -21.5545  -23.8781   -8.4619 C   0  0  0  0  0  0  0  0  0  0  0  0
  1  2  1  6  0  0  0
  1  6  1  0  0  0  0
  1 21  1  0  0  0  0
  3  4  1  6  0  0  0
  3  8  1  0  0  0  0
  3 28  1  0  0  0  0
  5  9  1  0  0  0  0
  5 25  1  0  0  0  0
  5 29  1  1  0  0  0
  6  7  1  6  0  0  0
  6 11  1  0  0  0  0
  8 12  1  0  0  0  0
  9 10  1  6  0  0  0
  9 14  1  0  0  0  0
 11 16  1  0  0  0  0
 12 13  1  6  0  0  0
 12 17  1  0  0  0  0
 14 15  1  1  0  0  0
 14 18  1  0  0  0  0
 15 31  1  0  0  0  0
 16 20  1  0  0  0  0
 17  2  1  1  0  0  0
 17 22  1  0  0  0  0
 18 19  1  6  0  0  0
 18 24  1  0  0  0  0
 18 30  1  0  0  0  0
 20 21  1  0  0  0  0
 20 26  1  1  0  0  0
 22 23  1  1  0  0  0
 22 28  1  0  0  0  0
 24 25  1  0  0  0  0
 26 27  1  0  0  0  0
 28 29  1  1  0  0  0
M  END
>  <CHROM.1>
104.14509453,165.91988229,-133.25583949,-149.76725231,-171.79464037,120.95976675
-19.41158891,-19.82420040,-11.77891044,-1.52346316,0.93219407,2.86070639

>  <Name>
ligand

>  <RI>
0

>  <Rbt.Current_Directory>
/home/itssahil/PROJECTS/Mol_Feturizer/New_Systems/rnas/4GPW

>  <Rbt.Executable>
rbdock ($Id: //depot/dev/client3/rdock/2013.1/src/exe/rbdock.cxx#4 $)

>  <Rbt.Library>
libRbt.so (2013.1, Build901 2013/11/27)

>  <Rbt.Parameter_File>
/export/apps/rDock/src/rDock_2013.1_src/data/scripts/dock_solv.prm

>  <Rbt.Receptor>
prm/blind_docking_100.prm

>  <SCORE>
43.9244

>  <SCORE.INTER>
20.2499

>  <SCORE.INTER.CONST>
1

>  <SCORE.INTER.POLAR>
0

>  <SCORE.INTER.ROT>
6

>  <SCORE.INTER.SOLV>
25.2822

>  <SCORE.INTER.VDW>
-2.52745

>  <SCORE.INTER.norm>
0.653223

>  <SCORE.INTRA>
6.05219

>  <SCORE.INTRA.DIHEDRAL>
3.10896

>  <SCORE.INTRA.DIHEDRAL.0>
19.2558

>  <SCORE.INTRA.POLAR>
0

>  <SCORE.INTRA.POLAR.0>
0

>  <SCORE.INTRA.REPUL>
0

>  <SCORE.INTRA.REPUL.0>
0

>  <SCORE.INTRA.SOLV>
1.48564

>  <SCORE.INTRA.SOLV.lig_0>
-64.5929

>  <SCORE.INTRA.VDW>
3.75488

>  <SCORE.INTRA.VDW.0>
-4.40538

>  <SCORE.INTRA.norm>
0.195232

>  <SCORE.RESTR>
17.6223

>  <SCORE.RESTR.CAVITY>
17.6223

>  <SCORE.RESTR.norm>
0.568462

>  <SCORE.SYSTEM>
0

>  <SCORE.SYSTEM.CONST>
0

>  <SCORE.SYSTEM.DIHEDRAL>
0

>  <SCORE.SYSTEM.SOLV>
0

>  <SCORE.SYSTEM.norm>
0

>  <SCORE.heavy>
31

>  <SCORE.norm>
1.41692

>  <RMSD>
9.359

$$$$
ligand
 OpenBabel11021811493D
libRbt.so/2013.1/901 2013/11/27
 31 33  0  0  0  0  0  0  0  0999 V2000
  -18.5862  -24.8365  -10.8354 C   0  0  2  0  0  0  0  0  0  0  0  0
  -18.4344  -24.1493  -12.0688 O   0  0  0  0  0  0  0  0  0  0  0  0
  -15.6240  -21.1303  -10.9908 C   0  0  2  0  0  0  0  0  0  0  0  0
  -14.6523  -20.0938  -11.1280 N   0  0  0  0  0  0  0  0  0  0  0  0
  -17.4248  -18.1563  -11.5240 C   0  0  2  0  0  0  0  0  0  0  0  0
  -19.6113  -26.0189  -11.0876 C   0  0  2  0  0  0  0  0  0  0  0  0
  -19.0827  -26.9029  -12.1368 N   0  0  0  0  0  0  0  0  0  0  0  0
  -15.0746  -22.4333  -11.7190 C   0  0  0  0  0  0  0  0  0  0  0  0
  -18.8188  -17.5337  -11.1814 C   0  0  2  0  0  0  0  0  0  0  0  0
  -19.0125  -17.6367   -9.7905 O   0  0  0  0  0  0  0  0  0  0  0  0
  -21.0169  -25.4283  -11.5024 C   0  0  0  0  0  0  0  0  0  0  0  0
  -16.1565  -23.5947  -11.5608 C   0  0  2  0  0  0  0  0  0  0  0  0
  -15.6624  -24.8190  -12.2273 N   0  0  0  0  0  0  0  0  0  0  0  0
  -19.9491  -18.3068  -11.9803 C   0  0  1  0  0  0  0  0  0  0  0  0
  -21.3008  -17.7231  -11.6602 N   0  0  0  0  0  0  0  0  0  0  0  0
  -21.3960  -24.1303  -10.6754 C   0  0  0  0  0  0  0  0  0  0  0  0
  -17.5132  -23.1290  -12.2328 C   0  0  2  0  0  0  0  0  0  0  0  0
  -19.6722  -18.1540  -13.5764 C   0  0  1  0  0  0  0  0  0  0  0  0
  -19.6970  -16.8122  -14.0192 O   0  0  0  0  0  0  0  0  0  0  0  0
  -20.4780  -23.4976   -9.9101 C   0  0  2  0  0  0  0  0  0  0  0  0
  -19.1257  -23.9532   -9.7969 O   0  0  0  0  0  0  0  0  0  0  0  0
  -18.0355  -21.8207  -11.5093 C   0  0  2  0  0  0  0  0  0  0  0  0
  -19.2608  -21.3981  -12.1304 O   0  0  0  0  0  0  0  0  0  0  0  0
  -18.2636  -18.7555  -13.8979 C   0  0  0  0  0  0  0  0  0  0  0  0
  -17.1968  -18.0993  -13.0235 O   0  0  0  0  0  0  0  0  0  0  0  0
  -20.8074  -22.2460   -9.0979 C   0  0  0  0  0  0  0  0  0  0  0  0
  -22.0949  -22.4365   -8.4912 O   0  0  0  0  0  0  0  0  0  0  0  0
  -16.9665  -20.6671  -11.6627 C   0  0  1  0  0  0  0  0  0  0  0  0
  -17.4632  -19.5210  -10.9931 O   0  0  0  0  0  0  0  0  0  0  0  0
  -20.6940  -18.8776  -14.4794 C   0  0  0  0  0  0  0  0  0  0  0  0
  -21.4045  -16.2500  -11.6928 C   0  0  0  0  0  0  0  0  0  0  0  0
  1  2  1  6  0  0  0
  1  6  1  0  0  0  0
  1 21  1  0  0  0  0
  3  4  1  6  0  0  0
  3  8  1  0  0  0  0
  3 28  1  0  0  0  0
  5  9  1  0  0  0  0
  5 25  1  0  0  0  0
  5 29  1  6  0  0  0
  6  7  1  6  0  0  0
  6 11  1  0  0  0  0
  8 12  1  0  0  0  0
  9 10  1  1  0  0  0
  9 14  1  0  0  0  0
 11 16  1  0  0  0  0
 12 13  1  6  0  0  0
 12 17  1  0  0  0  0
 14 15  1  6  0  0  0
 14 18  1  0  0  0  0
 15 31  1  0  0  0  0
 16 20  1  0  0  0  0
 17  2  1  1  0  0  0
 17 22  1  0  0  0  0
 18 19  1  6  0  0  0
 18 24  1  0  0  0  0
 18 30  1  0  0  0  0
 20 21  1  0  0  0  0
 20 26  1  1  0  0  0
 22 23  1  6  0  0  0
 22 28  1  0  0  0  0
 24 25  1  0  0  0  0
 26 27  1  0  0  0  0
 28 29  1  1  0  0  0
M  END
>  <CHROM.1>
-174.08793971,137.68515555,46.60022964,44.10168582,41.78524819,106.16257891
-18.75835041,-21.20123669,-11.56123618,1.51665507,-0.22085249,2.95269955

>  <Name>
ligand

>  <RI>
0

>  <Rbt.Current_Directory>
/home/itssahil/PROJECTS/Mol_Feturizer/New_Systems/rnas/4GPW

>  <Rbt.Executable>
rbdock ($Id: //depot/dev/client3/rdock/2013.1/src/exe/rbdock.cxx#4 $)

>  <Rbt.Library>
libRbt.so (2013.1, Build901 2013/11/27)

>  <Rbt.Parameter_File>
/export/apps/rDock/src/rDock_2013.1_src/data/scripts/dock_solv.prm

>  <Rbt.Receptor>
prm/blind_docking_60.prm

>  <SCORE>
28.0398

>  <SCORE.INTER>
11.3686

>  <SCORE.INTER.CONST>
1

>  <SCORE.INTER.POLAR>
0

>  <SCORE.INTER.ROT>
6

>  <SCORE.INTER.SOLV>
27.6421

>  <SCORE.INTER.VDW>
-9.23498

>  <SCORE.INTER.norm>
0.366729

>  <SCORE.INTRA>
1.0927

>  <SCORE.INTRA.DIHEDRAL>
-2.51235

>  <SCORE.INTRA.DIHEDRAL.0>
19.2558

>  <SCORE.INTRA.POLAR>
0

>  <SCORE.INTRA.POLAR.0>
0

>  <SCORE.INTRA.REPUL>
0

>  <SCORE.INTRA.REPUL.0>
0

>  <SCORE.INTRA.SOLV>
-0.953985

>  <SCORE.INTRA.SOLV.lig_0>
-64.5929

>  <SCORE.INTRA.VDW>
2.82587

>  <SCORE.INTRA.VDW.0>
-4.40538

>  <SCORE.INTRA.norm>
0.0352484

>  <SCORE.RESTR>
15.5785

>  <SCORE.RESTR.CAVITY>
15.5785

>  <SCORE.RESTR.norm>
0.502532

>  <SCORE.SYSTEM>
0

>  <SCORE.SYSTEM.CONST>
0

>  <SCORE.SYSTEM.DIHEDRAL>
0

>  <SCORE.SYSTEM.SOLV>
0

>  <SCORE.SYSTEM.norm>
0

>  <SCORE.heavy>
31

>  <SCORE.norm>
0.90451

>  <RMSD>
9.387

$$$$
ligand
 OpenBabel11021811493D
libRbt.so/2013.1/901 2013/11/27
 31 33  0  0  0  0  0  0  0  0999 V2000
  -14.2700  -23.1143  -12.5901 C   0  0  2  0  0  0  0  0  0  0  0  0
  -15.2176  -24.0055  -12.0205 O   0  0  0  0  0  0  0  0  0  0  0  0
  -19.2732  -23.8167  -10.7202 C   0  0  2  0  0  0  0  0  0  0  0  0
  -20.4326  -23.3901  -10.0054 N   0  0  0  0  0  0  0  0  0  0  0  0
  -20.8190  -21.3198  -12.2652 C   0  0  2  0  0  0  0  0  0  0  0  0
  -12.9970  -23.1269  -11.6458 C   0  0  2  0  0  0  0  0  0  0  0  0
  -12.4685  -24.4965  -11.5633 N   0  0  0  0  0  0  0  0  0  0  0  0
  -18.1739  -24.2756   -9.6663 C   0  0  0  0  0  0  0  0  0  0  0  0
  -20.6841  -20.1734  -13.3215 C   0  0  2  0  0  0  0  0  0  0  0  0
  -20.6704  -20.7595  -14.6017 O   0  0  0  0  0  0  0  0  0  0  0  0
  -13.3883  -22.5857  -10.2139 C   0  0  0  0  0  0  0  0  0  0  0  0
  -16.8800  -24.7591  -10.4639 C   0  0  2  0  0  0  0  0  0  0  0  0
  -15.8456  -25.1959   -9.5013 N   0  0  0  0  0  0  0  0  0  0  0  0
  -19.3521  -19.3596  -13.0449 C   0  0  1  0  0  0  0  0  0  0  0  0
  -19.2027  -18.2520  -14.0556 N   0  0  0  0  0  0  0  0  0  0  0  0
  -14.3888  -21.3582  -10.2833 C   0  0  0  0  0  0  0  0  0  0  0  0
  -16.3298  -23.5533  -11.3314 C   0  0  2  0  0  0  0  0  0  0  0  0
  -19.4251  -18.7091  -11.5553 C   0  0  1  0  0  0  0  0  0  0  0  0
  -20.5015  -17.8075  -11.3943 O   0  0  0  0  0  0  0  0  0  0  0  0
  -15.0063  -21.0258  -11.4396 C   0  0  2  0  0  0  0  0  0  0  0  0
  -14.7981  -21.7481  -12.6577 O   0  0  0  0  0  0  0  0  0  0  0  0
  -17.4429  -23.0966  -12.3610 C   0  0  2  0  0  0  0  0  0  0  0  0
  -16.9410  -21.9961  -13.1375 O   0  0  0  0  0  0  0  0  0  0  0  0
  -19.5881  -19.8656  -10.5136 C   0  0  0  0  0  0  0  0  0  0  0  0
  -20.7977  -20.7288  -10.8673 O   0  0  0  0  0  0  0  0  0  0  0  0
  -15.9747  -19.8486  -11.5449 C   0  0  0  0  0  0  0  0  0  0  0  0
  -16.4762  -19.8051  -12.8898 O   0  0  0  0  0  0  0  0  0  0  0  0
  -18.7275  -22.6171  -11.5754 C   0  0  1  0  0  0  0  0  0  0  0  0
  -19.7021  -22.2300  -12.5288 O   0  0  0  0  0  0  0  0  0  0  0  0
  -18.1775  -17.8980  -11.1448 C   0  0  0  0  0  0  0  0  0  0  0  0
  -17.8274  -17.7787  -14.3128 C   0  0  0  0  0  0  0  0  0  0  0  0
  1  2  1  1  0  0  0
  1  6  1  0  0  0  0
  1 21  1  0  0  0  0
  3  4  1  1  0  0  0
  3  8  1  0  0  0  0
  3 28  1  0  0  0  0
  5  9  1  0  0  0  0
  5 25  1  0  0  0  0
  5 29  1  1  0  0  0
  6  7  1  1  0  0  0
  6 11  1  0  0  0  0
  8 12  1  0  0  0  0
  9 10  1  6  0  0  0
  9 14  1  0  0  0  0
 11 16  1  0  0  0  0
 12 13  1  1  0  0  0
 12 17  1  0  0  0  0
 14 15  1  6  0  0  0
 14 18  1  0  0  0  0
 15 31  1  0  0  0  0
 16 20  1  0  0  0  0
 17  2  1  6  0  0  0
 17 22  1  0  0  0  0
 18 19  1  1  0  0  0
 18 24  1  0  0  0  0
 18 30  1  0  0  0  0
 20 21  1  0  0  0  0
 20 26  1  6  0  0  0
 22 23  1  1  0  0  0
 22 28  1  0  0  0  0
 24 25  1  0  0  0  0
 26 27  1  0  0  0  0
 28 29  1  6  0  0  0
M  END
>  <CHROM.1>
104.01675624,123.98533773,-155.21493407,-162.04222702,-178.20785874,83.99231241
-17.49514034,-21.53108725,-11.81025370,-0.67677425,0.06950316,-0.40492963

>  <Name>
ligand

>  <RI>
0

>  <Rbt.Current_Directory>
/home/itssahil/PROJECTS/Mol_Feturizer/New_Systems/rnas/4GPW

>  <Rbt.Executable>
rbdock ($Id: //depot/dev/client3/rdock/2013.1/src/exe/rbdock.cxx#4 $)

>  <Rbt.Library>
libRbt.so (2013.1, Build901 2013/11/27)

>  <Rbt.Parameter_File>
/export/apps/rDock/src/rDock_2013.1_src/data/scripts/dock_solv.prm

>  <Rbt.Receptor>
prm/blind_docking_60.prm

>  <SCORE>
65.5661

>  <SCORE.INTER>
34.8981

>  <SCORE.INTER.CONST>
1

>  <SCORE.INTER.POLAR>
0

>  <SCORE.INTER.ROT>
6

>  <SCORE.INTER.SOLV>
19.9983

>  <SCORE.INTER.VDW>
8.99933

>  <SCORE.INTER.norm>
1.12575

>  <SCORE.INTRA>
13.4404

>  <SCORE.INTRA.DIHEDRAL>
1.87776

>  <SCORE.INTRA.DIHEDRAL.0>
19.2558

>  <SCORE.INTRA.POLAR>
0

>  <SCORE.INTRA.POLAR.0>
0

>  <SCORE.INTRA.REPUL>
0

>  <SCORE.INTRA.REPUL.0>
0

>  <SCORE.INTRA.SOLV>
2.98969

>  <SCORE.INTRA.SOLV.lig_0>
-64.5929

>  <SCORE.INTRA.VDW>
11.0067

>  <SCORE.INTRA.VDW.0>
-4.40538

>  <SCORE.INTRA.norm>
0.433562

>  <SCORE.RESTR>
17.2275

>  <SCORE.RESTR.CAVITY>
17.2275

>  <SCORE.RESTR.norm>
0.555726

>  <SCORE.SYSTEM>
0

>  <SCORE.SYSTEM.CONST>
0

>  <SCORE.SYSTEM.DIHEDRAL>
0

>  <SCORE.SYSTEM.SOLV>
0

>  <SCORE.SYSTEM.norm>
0

>  <SCORE.heavy>
31

>  <SCORE.norm>
2.11503

>  <RMSD>
9.408

$$$$
ligand
 OpenBabel11021811493D
libRbt.so/2013.1/901 2013/11/27
 31 33  0  0  0  0  0  0  0  0999 V2000
  -18.6943  -24.6244  -10.8634 C   0  0  2  0  0  0  0  0  0  0  0  0
  -18.3660  -24.0531  -12.1214 O   0  0  0  0  0  0  0  0  0  0  0  0
  -15.4644  -21.1614  -10.9408 C   0  0  2  0  0  0  0  0  0  0  0  0
  -14.4547  -20.1577  -11.0425 N   0  0  0  0  0  0  0  0  0  0  0  0
  -17.3177  -18.1396  -11.4981 C   0  0  2  0  0  0  0  0  0  0  0  0
  -19.5118  -25.9503  -11.1566 C   0  0  2  0  0  0  0  0  0  0  0  0
  -18.6859  -26.8603  -11.9639 N   0  0  0  0  0  0  0  0  0  0  0  0
  -14.9522  -22.4669  -11.6914 C   0  0  0  0  0  0  0  0  0  0  0  0
  -18.7642  -17.6307  -11.1867 C   0  0  2  0  0  0  0  0  0  0  0  0
  -18.9651  -17.7122   -9.7954 O   0  0  0  0  0  0  0  0  0  0  0  0
  -20.8568  -25.5945  -11.9056 C   0  0  0  0  0  0  0  0  0  0  0  0
  -16.0767  -23.5919  -11.5729 C   0  0  2  0  0  0  0  0  0  0  0  0
  -15.6177  -24.8181  -12.2607 N   0  0  0  0  0  0  0  0  0  0  0  0
  -19.8139  -18.5198  -11.9745 C   0  0  1  0  0  0  0  0  0  0  0  0
  -21.2147  -18.0466  -11.6841 N   0  0  0  0  0  0  0  0  0  0  0  0
  -21.5359  -24.2795  -11.3382 C   0  0  0  0  0  0  0  0  0  0  0  0
  -17.4070  -23.0631  -12.2509 C   0  0  2  0  0  0  0  0  0  0  0  0
  -19.5319  -18.3871  -13.5714 C   0  0  1  0  0  0  0  0  0  0  0  0
  -19.6668  -17.0650  -14.0520 O   0  0  0  0  0  0  0  0  0  0  0  0
  -20.8693  -23.4571  -10.4968 C   0  0  2  0  0  0  0  0  0  0  0  0
  -19.5285  -23.7177  -10.0686 O   0  0  0  0  0  0  0  0  0  0  0  0
  -17.8918  -21.7533  -11.5045 C   0  0  2  0  0  0  0  0  0  0  0  0
  -19.0931  -21.2734  -12.1310 O   0  0  0  0  0  0  0  0  0  0  0  0
  -18.0730  -18.8731  -13.8623 C   0  0  0  0  0  0  0  0  0  0  0  0
  -17.0773  -18.1038  -12.9962 O   0  0  0  0  0  0  0  0  0  0  0  0
  -21.4921  -22.1828   -9.9283 C   0  0  0  0  0  0  0  0  0  0  0  0
  -21.4914  -22.2889   -8.4962 O   0  0  0  0  0  0  0  0  0  0  0  0
  -16.7806  -20.6356  -11.6186 C   0  0  1  0  0  0  0  0  0  0  0  0
  -17.2449  -19.4875  -10.9295 O   0  0  0  0  0  0  0  0  0  0  0  0
  -20.4766  -19.2205  -14.4637 C   0  0  0  0  0  0  0  0  0  0  0  0
  -21.6042  -16.7483  -12.2711 C   0  0  0  0  0  0  0  0  0  0  0  0
  1  2  1  6  0  0  0
  1  6  1  0  0  0  0
  1 21  1  0  0  0  0
  3  4  1  6  0  0  0
  3  8  1  0  0  0  0
  3 28  1  0  0  0  0
  5  9  1  0  0  0  0
  5 25  1  0  0  0  0
  5 29  1  6  0  0  0
  6  7  1  6  0  0  0
  6 11  1  0  0  0  0
  8 12  1  0  0  0  0
  9 10  1  1  0  0  0
  9 14  1  0  0  0  0
 11 16  1  0  0  0  0
 12 13  1  6  0  0  0
 12 17  1  0  0  0  0
 14 15  1  6  0  0  0
 14 18  1  0  0  0  0
 15 31  1  0  0  0  0
 16 20  1  0  0  0  0
 17  2  1  1  0  0  0
 17 22  1  0  0  0  0
 18 19  1  6  0  0  0
 18 24  1  0  0  0  0
 18 30  1  0  0  0  0
 20 21  1  0  0  0  0
 20 26  1  1  0  0  0
 22 23  1  6  0  0  0
 22 28  1  0  0  0  0
 24 25  1  0  0  0  0
 26 27  1  0  0  0  0
 28 29  1  1  0  0  0
M  END
>  <CHROM.1>
-165.06460468,130.19041017,71.01335274,53.52417318,120.71596522,114.87370149
-18.69403207,-21.24426220,-11.65996042,1.52940244,-0.11375097,2.97887617

>  <Name>
ligand

>  <RI>
0

>  <Rbt.Current_Directory>
/home/itssahil/PROJECTS/Mol_Feturizer/New_Systems/rnas/4GPW

>  <Rbt.Executable>
rbdock ($Id: //depot/dev/client3/rdock/2013.1/src/exe/rbdock.cxx#4 $)

>  <Rbt.Library>
libRbt.so (2013.1, Build901 2013/11/27)

>  <Rbt.Parameter_File>
/export/apps/rDock/src/rDock_2013.1_src/data/scripts/dock_solv.prm

>  <Rbt.Receptor>
prm/blind_docking_60.prm

>  <SCORE>
35.97

>  <SCORE.INTER>
19.4434

>  <SCORE.INTER.CONST>
1

>  <SCORE.INTER.POLAR>
0

>  <SCORE.INTER.ROT>
6

>  <SCORE.INTER.SOLV>
29.0229

>  <SCORE.INTER.VDW>
-4.31207

>  <SCORE.INTER.norm>
0.627205

>  <SCORE.INTRA>
2.48909

>  <SCORE.INTRA.DIHEDRAL>
-2.45876

>  <SCORE.INTRA.DIHEDRAL.0>
19.2558

>  <SCORE.INTRA.POLAR>
0

>  <SCORE.INTRA.POLAR.0>
0

>  <SCORE.INTRA.REPUL>
0

>  <SCORE.INTRA.REPUL.0>
0

>  <SCORE.INTRA.SOLV>
-0.230809

>  <SCORE.INTRA.SOLV.lig_0>
-64.5929

>  <SCORE.INTRA.VDW>
3.83388

>  <SCORE.INTRA.VDW.0>
-4.40538

>  <SCORE.INTRA.norm>
0.0802933

>  <SCORE.RESTR>
14.0376

>  <SCORE.RESTR.CAVITY>
14.0376

>  <SCORE.RESTR.norm>
0.452825

>  <SCORE.SYSTEM>
0

>  <SCORE.SYSTEM.CONST>
0

>  <SCORE.SYSTEM.DIHEDRAL>
0

>  <SCORE.SYSTEM.SOLV>
0

>  <SCORE.SYSTEM.norm>
0

>  <SCORE.heavy>
31

>  <SCORE.norm>
1.16032

>  <RMSD>
9.454

$$$$
ligand
 OpenBabel11021811493D
libRbt.so/2013.1/901 2013/11/27
 31 33  0  0  0  0  0  0  0  0999 V2000
  -22.7272  -17.7676  -15.1980 C   0  0  2  0  0  0  0  0  0  0  0  0
  -21.4073  -17.4894  -15.6418 O   0  0  0  0  0  0  0  0  0  0  0  0
  -17.5007  -17.3007  -13.9456 C   0  0  2  0  0  0  0  0  0  0  0  0
  -16.4348  -16.9224  -13.0749 N   0  0  0  0  0  0  0  0  0  0  0  0
  -18.1792  -19.5140  -11.0901 C   0  0  2  0  0  0  0  0  0  0  0  0
  -23.6114  -18.0002  -16.4927 C   0  0  2  0  0  0  0  0  0  0  0  0
  -23.0542  -19.1202  -17.2653 N   0  0  0  0  0  0  0  0  0  0  0  0
  -18.0787  -15.9874  -14.6319 C   0  0  0  0  0  0  0  0  0  0  0  0
  -17.1829  -20.7027  -10.8838 C   0  0  2  0  0  0  0  0  0  0  0  0
  -15.9180  -20.2976  -11.3512 O   0  0  0  0  0  0  0  0  0  0  0  0
  -23.6479  -16.6795  -17.3595 C   0  0  0  0  0  0  0  0  0  0  0  0
  -19.2656  -16.4093  -15.6105 C   0  0  2  0  0  0  0  0  0  0  0  0
  -19.8147  -15.2015  -16.2642 N   0  0  0  0  0  0  0  0  0  0  0  0
  -17.7106  -21.9722  -11.6732 C   0  0  1  0  0  0  0  0  0  0  0  0
  -16.7612  -23.1278  -11.4892 N   0  0  0  0  0  0  0  0  0  0  0  0
  -23.7640  -15.3738  -16.4684 C   0  0  0  0  0  0  0  0  0  0  0  0
  -20.3993  -17.1240  -14.7661 C   0  0  2  0  0  0  0  0  0  0  0  0
  -19.1715  -22.3912  -11.0922 C   0  0  1  0  0  0  0  0  0  0  0  0
  -19.1469  -22.7370   -9.7222 O   0  0  0  0  0  0  0  0  0  0  0  0
  -23.5831  -15.4244  -15.1292 C   0  0  2  0  0  0  0  0  0  0  0  0
  -23.2819  -16.6420  -14.4395 O   0  0  0  0  0  0  0  0  0  0  0  0
  -19.8022  -18.4174  -14.0744 C   0  0  2  0  0  0  0  0  0  0  0  0
  -20.8331  -19.0551  -13.3021 O   0  0  0  0  0  0  0  0  0  0  0  0
  -20.1481  -21.1829  -11.2803 C   0  0  0  0  0  0  0  0  0  0  0  0
  -19.5663  -19.9275  -10.6332 O   0  0  0  0  0  0  0  0  0  0  0  0
  -23.6894  -14.1875  -14.2384 C   0  0  0  0  0  0  0  0  0  0  0  0
  -25.0436  -14.0925  -13.7704 O   0  0  0  0  0  0  0  0  0  0  0  0
  -18.6252  -18.0047  -13.1041 C   0  0  1  0  0  0  0  0  0  0  0  0
  -18.1102  -19.1869  -12.5163 O   0  0  0  0  0  0  0  0  0  0  0  0
  -19.8153  -23.6103  -11.7866 C   0  0  0  0  0  0  0  0  0  0  0  0
  -15.6211  -23.1967  -12.4258 C   0  0  0  0  0  0  0  0  0  0  0  0
  1  2  1  6  0  0  0
  1  6  1  0  0  0  0
  1 21  1  0  0  0  0
  3  4  1  1  0  0  0
  3  8  1  0  0  0  0
  3 28  1  0  0  0  0
  5  9  1  0  0  0  0
  5 25  1  0  0  0  0
  5 29  1  6  0  0  0
  6  7  1  6  0  0  0
  6 11  1  0  0  0  0
  8 12  1  0  0  0  0
  9 10  1  6  0  0  0
  9 14  1  0  0  0  0
 11 16  1  0  0  0  0
 12 13  1  1  0  0  0
 12 17  1  0  0  0  0
 14 15  1  1  0  0  0
 14 18  1  0  0  0  0
 15 31  1  0  0  0  0
 16 20  1  0  0  0  0
 17  2  1  6  0  0  0
 17 22  1  0  0  0  0
 18 19  1  1  0  0  0
 18 24  1  0  0  0  0
 18 30  1  0  0  0  0
 20 21  1  0  0  0  0
 20 26  1  1  0  0  0
 22 23  1  1  0  0  0
 22 28  1  0  0  0  0
 24 25  1  0  0  0  0
 26 27  1  0  0  0  0
 28 29  1  6  0  0  0
M  END
>  <CHROM.1>
174.38291544,-166.04290049,-86.14285096,-160.09641573,91.99559820,126.83640361
-20.07210835,-18.63079743,-13.53767689,2.23123287,-0.20021887,-0.48062826

>  <Name>
ligand

>  <RI>
0

>  <Rbt.Current_Directory>
/home/itssahil/PROJECTS/Mol_Feturizer/New_Systems/rnas/4GPW

>  <Rbt.Executable>
rbdock ($Id: //depot/dev/client3/rdock/2013.1/src/exe/rbdock.cxx#4 $)

>  <Rbt.Library>
libRbt.so (2013.1, Build901 2013/11/27)

>  <Rbt.Parameter_File>
/export/apps/rDock/src/rDock_2013.1_src/data/scripts/dock_solv.prm

>  <Rbt.Receptor>
prm/pocket_docking_7.prm

>  <SCORE>
-10.8542

>  <SCORE.INTER>
-7.20305

>  <SCORE.INTER.CONST>
1

>  <SCORE.INTER.POLAR>
0

>  <SCORE.INTER.ROT>
6

>  <SCORE.INTER.SOLV>
18.4896

>  <SCORE.INTER.VDW>
-18.5652

>  <SCORE.INTER.norm>
-0.232356

>  <SCORE.INTRA>
-3.65114

>  <SCORE.INTRA.DIHEDRAL>
-6.40794

>  <SCORE.INTRA.DIHEDRAL.0>
19.2558

>  <SCORE.INTRA.POLAR>
0

>  <SCORE.INTRA.POLAR.0>
0

>  <SCORE.INTRA.REPUL>
0

>  <SCORE.INTRA.REPUL.0>
0

>  <SCORE.INTRA.SOLV>
-1.97316

>  <SCORE.INTRA.SOLV.lig_0>
-64.5929

>  <SCORE.INTRA.VDW>
0.539405

>  <SCORE.INTRA.VDW.0>
-4.40538

>  <SCORE.INTRA.norm>
-0.117779

>  <SCORE.RESTR>
0

>  <SCORE.RESTR.CAVITY>
0

>  <SCORE.RESTR.norm>
0

>  <SCORE.SYSTEM>
0

>  <SCORE.SYSTEM.CONST>
0

>  <SCORE.SYSTEM.DIHEDRAL>
0

>  <SCORE.SYSTEM.SOLV>
0

>  <SCORE.SYSTEM.norm>
0

>  <SCORE.heavy>
31

>  <SCORE.norm>
-0.350135

>  <RMSD>
9.645

$$$$
ligand
 OpenBabel11021811493D
libRbt.so/2013.1/901 2013/11/27
 31 33  0  0  0  0  0  0  0  0999 V2000
  -19.3559  -25.8356  -10.7504 C   0  0  2  0  0  0  0  0  0  0  0  0
  -18.5382  -25.0962  -11.6456 O   0  0  0  0  0  0  0  0  0  0  0  0
  -17.7912  -21.5605   -9.3838 C   0  0  2  0  0  0  0  0  0  0  0  0
  -17.1737  -20.3443   -8.9635 N   0  0  0  0  0  0  0  0  0  0  0  0
  -19.0537  -18.9436  -10.6647 C   0  0  2  0  0  0  0  0  0  0  0  0
  -20.3160  -26.7340  -11.6354 C   0  0  2  0  0  0  0  0  0  0  0  0
  -19.5051  -27.6203  -12.4833 N   0  0  0  0  0  0  0  0  0  0  0  0
  -16.7027  -22.7193   -9.3356 C   0  0  0  0  0  0  0  0  0  0  0  0
  -19.8826  -18.1960  -11.7612 C   0  0  2  0  0  0  0  0  0  0  0  0
  -21.2274  -18.5950  -11.6390 O   0  0  0  0  0  0  0  0  0  0  0  0
  -21.2509  -25.8121  -12.5144 C   0  0  0  0  0  0  0  0  0  0  0  0
  -17.3930  -24.0807   -9.7985 C   0  0  2  0  0  0  0  0  0  0  0  0
  -16.3981  -25.1741   -9.7557 N   0  0  0  0  0  0  0  0  0  0  0  0
  -19.3021  -18.5540  -13.1923 C   0  0  1  0  0  0  0  0  0  0  0  0
  -20.0906  -17.8453  -14.2631 N   0  0  0  0  0  0  0  0  0  0  0  0
  -21.7624  -24.5381  -11.7222 C   0  0  0  0  0  0  0  0  0  0  0  0
  -17.9345  -23.9063  -11.2769 C   0  0  2  0  0  0  0  0  0  0  0  0
  -17.7501  -18.0723  -13.2731 C   0  0  1  0  0  0  0  0  0  0  0  0
  -17.5904  -16.6790  -13.0990 O   0  0  0  0  0  0  0  0  0  0  0  0
  -21.2223  -24.1936  -10.5312 C   0  0  2  0  0  0  0  0  0  0  0  0
  -20.1714  -24.9467   -9.9169 O   0  0  0  0  0  0  0  0  0  0  0  0
  -19.0016  -22.7367  -11.3105 C   0  0  2  0  0  0  0  0  0  0  0  0
  -19.4810  -22.5771  -12.6561 O   0  0  0  0  0  0  0  0  0  0  0  0
  -16.9409  -18.8071  -12.1531 C   0  0  0  0  0  0  0  0  0  0  0  0
  -17.5885  -18.5683  -10.7903 O   0  0  0  0  0  0  0  0  0  0  0  0
  -21.6910  -22.9743   -9.7384 C   0  0  0  0  0  0  0  0  0  0  0  0
  -20.5612  -22.4469   -9.0259 O   0  0  0  0  0  0  0  0  0  0  0  0
  -18.3225  -21.3855  -10.8519 C   0  0  1  0  0  0  0  0  0  0  0  0
  -19.3097  -20.3692  -10.8829 O   0  0  0  0  0  0  0  0  0  0  0  0
  -17.0504  -18.3763  -14.6152 C   0  0  0  0  0  0  0  0  0  0  0  0
  -21.3302  -18.5099  -14.7142 C   0  0  0  0  0  0  0  0  0  0  0  0
  1  2  1  6  0  0  0
  1  6  1  0  0  0  0
  1 21  1  0  0  0  0
  3  4  1  6  0  0  0
  3  8  1  0  0  0  0
  3 28  1  0  0  0  0
  5  9  1  0  0  0  0
  5 25  1  0  0  0  0
  5 29  1  6  0  0  0
  6  7  1  6  0  0  0
  6 11  1  0  0  0  0
  8 12  1  0  0  0  0
  9 10  1  6  0  0  0
  9 14  1  0  0  0  0
 11 16  1  0  0  0  0
 12 13  1  6  0  0  0
 12 17  1  0  0  0  0
 14 15  1  6  0  0  0
 14 18  1  0  0  0  0
 15 31  1  0  0  0  0
 16 20  1  0  0  0  0
 17  2  1  1  0  0  0
 17 22  1  0  0  0  0
 18 19  1  1  0  0  0
 18 24  1  0  0  0  0
 18 30  1  0  0  0  0
 20 21  1  0  0  0  0
 20 26  1  1  0  0  0
 22 23  1  6  0  0  0
 22 28  1  0  0  0  0
 24 25  1  0  0  0  0
 26 27  1  0  0  0  0
 28 29  1  1  0  0  0
M  END
>  <CHROM.1>
156.82455201,136.56379267,-84.35542780,40.98764337,-147.79981025,68.54674012
-19.10234342,-21.77673346,-11.43933514,-1.71389493,-0.61040307,-0.32851315

>  <Name>
ligand

>  <RI>
0

>  <Rbt.Current_Directory>
/home/itssahil/PROJECTS/Mol_Feturizer/New_Systems/rnas/4GPW

>  <Rbt.Executable>
rbdock ($Id: //depot/dev/client3/rdock/2013.1/src/exe/rbdock.cxx#4 $)

>  <Rbt.Library>
libRbt.so (2013.1, Build901 2013/11/27)

>  <Rbt.Parameter_File>
/export/apps/rDock/src/rDock_2013.1_src/data/scripts/dock_solv.prm

>  <Rbt.Receptor>
prm/blind_docking_60.prm

>  <SCORE>
57.0174

>  <SCORE.INTER>
36.1107

>  <SCORE.INTER.CONST>
1

>  <SCORE.INTER.POLAR>
0

>  <SCORE.INTER.ROT>
6

>  <SCORE.INTER.SOLV>
19.5663

>  <SCORE.INTER.VDW>
9.9517

>  <SCORE.INTER.norm>
1.16486

>  <SCORE.INTRA>
1.15368

>  <SCORE.INTRA.DIHEDRAL>
-6.02152

>  <SCORE.INTRA.DIHEDRAL.0>
19.2558

>  <SCORE.INTRA.POLAR>
0

>  <SCORE.INTRA.POLAR.0>
0

>  <SCORE.INTRA.REPUL>
0

>  <SCORE.INTRA.REPUL.0>
0

>  <SCORE.INTRA.SOLV>
1.7277

>  <SCORE.INTRA.SOLV.lig_0>
-64.5929

>  <SCORE.INTRA.VDW>
3.30059

>  <SCORE.INTRA.VDW.0>
-4.40538

>  <SCORE.INTRA.norm>
0.0372155

>  <SCORE.RESTR>
19.753

>  <SCORE.RESTR.CAVITY>
19.753

>  <SCORE.RESTR.norm>
0.637195

>  <SCORE.SYSTEM>
0

>  <SCORE.SYSTEM.CONST>
0

>  <SCORE.SYSTEM.DIHEDRAL>
0

>  <SCORE.SYSTEM.SOLV>
0

>  <SCORE.SYSTEM.norm>
0

>  <SCORE.heavy>
31

>  <SCORE.norm>
1.83927

>  <RMSD>
9.656

$$$$
ligand
 OpenBabel11021811493D
libRbt.so/2013.1/901 2013/11/27
 31 33  0  0  0  0  0  0  0  0999 V2000
  -17.5545  -25.2254  -10.9734 C   0  0  2  0  0  0  0  0  0  0  0  0
  -16.9970  -24.2263  -11.8145 O   0  0  0  0  0  0  0  0  0  0  0  0
  -16.6257  -20.9890   -9.0656 C   0  0  2  0  0  0  0  0  0  0  0  0
  -16.3497  -19.6810   -8.5652 N   0  0  0  0  0  0  0  0  0  0  0  0
  -19.6597  -19.1956   -9.9820 C   0  0  2  0  0  0  0  0  0  0  0  0
  -17.4616  -26.5979  -11.7607 C   0  0  2  0  0  0  0  0  0  0  0  0
  -16.0537  -26.8814  -12.0758 N   0  0  0  0  0  0  0  0  0  0  0  0
  -15.2957  -21.5679   -9.7183 C   0  0  0  0  0  0  0  0  0  0  0  0
  -20.3580  -19.5742  -11.3300 C   0  0  2  0  0  0  0  0  0  0  0  0
  -21.1653  -20.7048  -11.1004 O   0  0  0  0  0  0  0  0  0  0  0  0
  -18.3299  -26.5181  -13.0784 C   0  0  0  0  0  0  0  0  0  0  0  0
  -15.6006  -23.0324  -10.2720 C   0  0  2  0  0  0  0  0  0  0  0  0
  -14.3738  -23.5922  -10.8793 N   0  0  0  0  0  0  0  0  0  0  0  0
  -19.2533  -19.8672  -12.4287 C   0  0  1  0  0  0  0  0  0  0  0  0
  -19.9073  -20.2375  -13.7347 N   0  0  0  0  0  0  0  0  0  0  0  0
  -19.6993  -25.7517  -12.8554 C   0  0  0  0  0  0  0  0  0  0  0  0
  -16.7455  -22.9421  -11.3629 C   0  0  2  0  0  0  0  0  0  0  0  0
  -18.3536  -18.5296  -12.6491 C   0  0  1  0  0  0  0  0  0  0  0  0
  -19.1052  -17.4224  -13.1035 O   0  0  0  0  0  0  0  0  0  0  0  0
  -19.9269  -25.0437  -11.7259 C   0  0  2  0  0  0  0  0  0  0  0  0
  -18.9619  -24.9438  -10.6734 O   0  0  0  0  0  0  0  0  0  0  0  0
  -18.0551  -22.3459  -10.7015 C   0  0  2  0  0  0  0  0  0  0  0  0
  -19.0862  -22.2572  -11.6988 O   0  0  0  0  0  0  0  0  0  0  0  0
  -17.6850  -18.1483  -11.2865 C   0  0  0  0  0  0  0  0  0  0  0  0
  -18.7477  -18.0018  -10.1991 O   0  0  0  0  0  0  0  0  0  0  0  0
  -21.2349  -24.2945  -11.4753 C   0  0  0  0  0  0  0  0  0  0  0  0
  -20.9869  -23.2887  -10.4809 O   0  0  0  0  0  0  0  0  0  0  0  0
  -17.7579  -20.8949  -10.1507 C   0  0  1  0  0  0  0  0  0  0  0  0
  -18.9466  -20.4023   -9.5567 O   0  0  0  0  0  0  0  0  0  0  0  0
  -17.2207  -18.6793  -13.6869 C   0  0  0  0  0  0  0  0  0  0  0  0
  -20.9212  -19.2960  -14.2517 C   0  0  0  0  0  0  0  0  0  0  0  0
  1  2  1  6  0  0  0
  1  6  1  0  0  0  0
  1 21  1  0  0  0  0
  3  4  1  6  0  0  0
  3  8  1  0  0  0  0
  3 28  1  0  0  0  0
  5  9  1  0  0  0  0
  5 25  1  0  0  0  0
  5 29  1  6  0  0  0
  6  7  1  6  0  0  0
  6 11  1  0  0  0  0
  8 12  1  0  0  0  0
  9 10  1  1  0  0  0
  9 14  1  0  0  0  0
 11 16  1  0  0  0  0
 12 13  1  6  0  0  0
 12 17  1  0  0  0  0
 14 15  1  6  0  0  0
 14 18  1  0  0  0  0
 15 31  1  0  0  0  0
 16 20  1  0  0  0  0
 17  2  1  1  0  0  0
 17 22  1  0  0  0  0
 18 19  1  6  0  0  0
 18 24  1  0  0  0  0
 18 30  1  0  0  0  0
 20 21  1  0  0  0  0
 20 26  1  1  0  0  0
 22 23  1  6  0  0  0
 22 28  1  0  0  0  0
 24 25  1  0  0  0  0
 26 27  1  0  0  0  0
 28 29  1  1  0  0  0
M  END
>  <CHROM.1>
-170.60869481,73.48792236,52.99022428,66.26151221,-159.24031736,121.92877828
-18.37873531,-21.91255991,-11.38312715,-1.37941006,-0.46597529,0.07506696

>  <Name>
ligand

>  <RI>
0

>  <Rbt.Current_Directory>
/home/itssahil/PROJECTS/Mol_Feturizer/New_Systems/rnas/4GPW

>  <Rbt.Executable>
rbdock ($Id: //depot/dev/client3/rdock/2013.1/src/exe/rbdock.cxx#4 $)

>  <Rbt.Library>
libRbt.so (2013.1, Build901 2013/11/27)

>  <Rbt.Parameter_File>
/export/apps/rDock/src/rDock_2013.1_src/data/scripts/dock_solv.prm

>  <Rbt.Receptor>
prm/blind_docking_100.prm

>  <SCORE>
133.85

>  <SCORE.INTER>
110.793

>  <SCORE.INTER.CONST>
1

>  <SCORE.INTER.POLAR>
0

>  <SCORE.INTER.ROT>
6

>  <SCORE.INTER.SOLV>
23.9692

>  <SCORE.INTER.VDW>
58.2723

>  <SCORE.INTER.norm>
3.57397

>  <SCORE.INTRA>
3.2929

>  <SCORE.INTRA.DIHEDRAL>
-7.46896

>  <SCORE.INTRA.DIHEDRAL.0>
19.2558

>  <SCORE.INTRA.POLAR>
0

>  <SCORE.INTRA.POLAR.0>
0

>  <SCORE.INTRA.REPUL>
0.0108337

>  <SCORE.INTRA.REPUL.0>
0

>  <SCORE.INTRA.SOLV>
2.76303

>  <SCORE.INTRA.SOLV.lig_0>
-64.5929

>  <SCORE.INTRA.VDW>
5.59169

>  <SCORE.INTRA.VDW.0>
-4.40538

>  <SCORE.INTRA.norm>
0.106223

>  <SCORE.RESTR>
19.7637

>  <SCORE.RESTR.CAVITY>
19.7637

>  <SCORE.RESTR.norm>
0.637537

>  <SCORE.SYSTEM>
0

>  <SCORE.SYSTEM.CONST>
0

>  <SCORE.SYSTEM.DIHEDRAL>
0

>  <SCORE.SYSTEM.SOLV>
0

>  <SCORE.SYSTEM.norm>
0

>  <SCORE.heavy>
31

>  <SCORE.norm>
4.31773

>  <RMSD>
9.911

$$$$
ligand
 OpenBabel11021811493D
libRbt.so/2013.1/901 2013/11/27
 31 33  0  0  0  0  0  0  0  0999 V2000
  -19.4752  -16.5830  -11.3011 C   0  0  2  0  0  0  0  0  0  0  0  0
  -20.4300  -17.4736  -11.8595 O   0  0  0  0  0  0  0  0  0  0  0  0
  -20.9102  -21.5705  -12.9364 C   0  0  2  0  0  0  0  0  0  0  0  0
  -20.5898  -22.8767  -13.4144 N   0  0  0  0  0  0  0  0  0  0  0  0
  -19.7072  -23.5013  -10.5205 C   0  0  2  0  0  0  0  0  0  0  0  0
  -19.2929  -15.3936  -12.3328 C   0  0  2  0  0  0  0  0  0  0  0  0
  -20.5891  -14.7325  -12.5440 N   0  0  0  0  0  0  0  0  0  0  0  0
  -20.6168  -20.5245  -14.0983 C   0  0  0  0  0  0  0  0  0  0  0  0
  -18.6953  -23.3999   -9.3314 C   0  0  2  0  0  0  0  0  0  0  0  0
  -19.3964  -22.9398   -8.2002 O   0  0  0  0  0  0  0  0  0  0  0  0
  -18.7149  -15.9504  -13.6938 C   0  0  0  0  0  0  0  0  0  0  0  0
  -20.9809  -19.0649  -13.5679 C   0  0  2  0  0  0  0  0  0  0  0  0
  -20.7201  -18.0760  -14.6364 N   0  0  0  0  0  0  0  0  0  0  0  0
  -17.5211  -22.4102   -9.7248 C   0  0  1  0  0  0  0  0  0  0  0  0
  -16.5372  -22.2967   -8.5892 N   0  0  0  0  0  0  0  0  0  0  0  0
  -17.6107  -17.0656  -13.4713 C   0  0  0  0  0  0  0  0  0  0  0  0
  -20.0834  -18.7379  -12.3043 C   0  0  2  0  0  0  0  0  0  0  0  0
  -16.7511  -22.9916  -11.0349 C   0  0  1  0  0  0  0  0  0  0  0  0
  -16.1674  -24.2605  -10.8193 O   0  0  0  0  0  0  0  0  0  0  0  0
  -17.4162  -17.6221  -12.2543 C   0  0  2  0  0  0  0  0  0  0  0  0
  -18.1814  -17.2445  -11.1050 O   0  0  0  0  0  0  0  0  0  0  0  0
  -20.3734  -19.7994  -11.1656 C   0  0  2  0  0  0  0  0  0  0  0  0
  -19.5488  -19.5030  -10.0263 O   0  0  0  0  0  0  0  0  0  0  0  0
  -17.7819  -23.1134  -12.2060 C   0  0  0  0  0  0  0  0  0  0  0  0
  -18.9784  -23.9577  -11.7712 O   0  0  0  0  0  0  0  0  0  0  0  0
  -16.3603  -18.6974  -12.0017 C   0  0  0  0  0  0  0  0  0  0  0  0
  -16.7688  -19.8906  -12.6884 O   0  0  0  0  0  0  0  0  0  0  0  0
  -20.0149  -21.2476  -11.6865 C   0  0  1  0  0  0  0  0  0  0  0  0
  -20.2995  -22.1676  -10.6467 O   0  0  0  0  0  0  0  0  0  0  0  0
  -15.5875  -22.1124  -11.5410 C   0  0  0  0  0  0  0  0  0  0  0  0
  -17.1023  -21.9961   -7.2581 C   0  0  0  0  0  0  0  0  0  0  0  0
  1  2  1  6  0  0  0
  1  6  1  0  0  0  0
  1 21  1  0  0  0  0
  3  4  1  6  0  0  0
  3  8  1  0  0  0  0
  3 28  1  0  0  0  0
  5  9  1  0  0  0  0
  5 25  1  0  0  0  0
  5 29  1  6  0  0  0
  6  7  1  6  0  0  0
  6 11  1  0  0  0  0
  8 12  1  0  0  0  0
  9 10  1  1  0  0  0
  9 14  1  0  0  0  0
 11 16  1  0  0  0  0
 12 13  1  6  0  0  0
 12 17  1  0  0  0  0
 14 15  1  1  0  0  0
 14 18  1  0  0  0  0
 15 31  1  0  0  0  0
 16 20  1  0  0  0  0
 17  2  1  1  0  0  0
 17 22  1  0  0  0  0
 18 19  1  1  0  0  0
 18 24  1  0  0  0  0
 18 30  1  0  0  0  0
 20 21  1  0  0  0  0
 20 26  1  1  0  0  0
 22 23  1  1  0  0  0
 22 28  1  0  0  0  0
 24 25  1  0  0  0  0
 26 27  1  0  0  0  0
 28 29  1  1  0  0  0
M  END
>  <CHROM.1>
111.14745360,107.09271892,-50.70227755,-145.20824934,-68.37239043,84.01217870
-18.79044131,-20.26056551,-11.54021431,-1.85312799,0.64573200,2.91566056

>  <Name>
ligand

>  <RI>
0

>  <Rbt.Current_Directory>
/home/itssahil/PROJECTS/Mol_Feturizer/New_Systems/rnas/4GPW

>  <Rbt.Executable>
rbdock ($Id: //depot/dev/client3/rdock/2013.1/src/exe/rbdock.cxx#4 $)

>  <Rbt.Library>
libRbt.so (2013.1, Build901 2013/11/27)

>  <Rbt.Parameter_File>
/export/apps/rDock/src/rDock_2013.1_src/data/scripts/dock_solv.prm

>  <Rbt.Receptor>
prm/blind_docking_100.prm

>  <SCORE>
86.9179

>  <SCORE.INTER>
63.1907

>  <SCORE.INTER.CONST>
1

>  <SCORE.INTER.POLAR>
0

>  <SCORE.INTER.ROT>
6

>  <SCORE.INTER.SOLV>
22.9565

>  <SCORE.INTER.VDW>
26.8749

>  <SCORE.INTER.norm>
2.03841

>  <SCORE.INTRA>
8.98963

>  <SCORE.INTRA.DIHEDRAL>
4.53297

>  <SCORE.INTRA.DIHEDRAL.0>
19.2558

>  <SCORE.INTRA.POLAR>
0

>  <SCORE.INTRA.POLAR.0>
0

>  <SCORE.INTRA.REPUL>
0

>  <SCORE.INTRA.REPUL.0>
0

>  <SCORE.INTRA.SOLV>
3.81438

>  <SCORE.INTRA.SOLV.lig_0>
-64.5929

>  <SCORE.INTRA.VDW>
4.81595

>  <SCORE.INTRA.VDW.0>
-4.40538

>  <SCORE.INTRA.norm>
0.289988

>  <SCORE.RESTR>
14.7376

>  <SCORE.RESTR.CAVITY>
14.7376

>  <SCORE.RESTR.norm>
0.475408

>  <SCORE.SYSTEM>
0

>  <SCORE.SYSTEM.CONST>
0

>  <SCORE.SYSTEM.DIHEDRAL>
0

>  <SCORE.SYSTEM.SOLV>
0

>  <SCORE.SYSTEM.norm>
0

>  <SCORE.heavy>
31

>  <SCORE.norm>
2.8038

>  <RMSD>
9.946

$$$$
ligand
 OpenBabel11021811493D
libRbt.so/2013.1/901 2013/11/27
 31 33  0  0  0  0  0  0  0  0999 V2000
  -18.7848  -17.3884  -12.5528 C   0  0  2  0  0  0  0  0  0  0  0  0
  -18.9242  -18.4138  -11.5803 O   0  0  0  0  0  0  0  0  0  0  0  0
  -16.3674  -21.7931  -11.1138 C   0  0  2  0  0  0  0  0  0  0  0  0
  -15.2536  -22.5835  -10.6991 N   0  0  0  0  0  0  0  0  0  0  0  0
  -18.1124  -23.6400   -9.7105 C   0  0  2  0  0  0  0  0  0  0  0  0
  -19.6772  -16.1700  -12.0717 C   0  0  2  0  0  0  0  0  0  0  0  0
  -19.2169  -15.7250  -10.7482 N   0  0  0  0  0  0  0  0  0  0  0  0
  -15.8213  -20.5561  -11.9514 C   0  0  0  0  0  0  0  0  0  0  0  0
  -18.8938  -23.2223  -11.0002 C   0  0  2  0  0  0  0  0  0  0  0  0
  -18.0287  -22.4569  -11.8055 O   0  0  0  0  0  0  0  0  0  0  0  0
  -21.1954  -16.6053  -12.0244 C   0  0  0  0  0  0  0  0  0  0  0  0
  -17.0654  -19.6755  -12.4215 C   0  0  2  0  0  0  0  0  0  0  0  0
  -16.5795  -18.5210  -13.2079 N   0  0  0  0  0  0  0  0  0  0  0  0
  -20.1817  -22.3948  -10.5880 C   0  0  1  0  0  0  0  0  0  0  0  0
  -20.9463  -21.9800  -11.8184 N   0  0  0  0  0  0  0  0  0  0  0  0
  -21.5985  -17.5296  -13.2473 C   0  0  0  0  0  0  0  0  0  0  0  0
  -17.8453  -19.1622  -11.1418 C   0  0  2  0  0  0  0  0  0  0  0  0
  -21.1393  -23.3273   -9.6603 C   0  0  1  0  0  0  0  0  0  0  0  0
  -21.5904  -24.4921  -10.3213 O   0  0  0  0  0  0  0  0  0  0  0  0
  -20.6573  -18.0651  -14.0573 C   0  0  2  0  0  0  0  0  0  0  0  0
  -19.2575  -17.8339  -13.8673 O   0  0  0  0  0  0  0  0  0  0  0  0
  -18.3646  -20.4056  -10.3098 C   0  0  2  0  0  0  0  0  0  0  0  0
  -19.0621  -19.9330   -9.1454 O   0  0  0  0  0  0  0  0  0  0  0  0
  -20.3347  -23.7594   -8.3895 C   0  0  0  0  0  0  0  0  0  0  0  0
  -19.0268  -24.4354   -8.7968 O   0  0  0  0  0  0  0  0  0  0  0  0
  -21.0082  -18.9584  -15.2463 C   0  0  0  0  0  0  0  0  0  0  0  0
  -22.3408  -19.4562  -15.0496 O   0  0  0  0  0  0  0  0  0  0  0  0
  -17.1354  -21.2818   -9.8423 C   0  0  1  0  0  0  0  0  0  0  0  0
  -17.6406  -22.3880   -9.1145 O   0  0  0  0  0  0  0  0  0  0  0  0
  -22.4303  -22.6373   -9.1699 C   0  0  0  0  0  0  0  0  0  0  0  0
  -20.3347  -20.9201  -12.6455 C   0  0  0  0  0  0  0  0  0  0  0  0
  1  2  1  1  0  0  0
  1  6  1  0  0  0  0
  1 21  1  0  0  0  0
  3  4  1  1  0  0  0
  3  8  1  0  0  0  0
  3 28  1  0  0  0  0
  5  9  1  0  0  0  0
  5 25  1  0  0  0  0
  5 29  1  1  0  0  0
  6  7  1  1  0  0  0
  6 11  1  0  0  0  0
  8 12  1  0  0  0  0
  9 10  1  6  0  0  0
  9 14  1  0  0  0  0
 11 16  1  0  0  0  0
 12 13  1  1  0  0  0
 12 17  1  0  0  0  0
 14 15  1  6  0  0  0
 14 18  1  0  0  0  0
 15 31  1  0  0  0  0
 16 20  1  0  0  0  0
 17  2  1  6  0  0  0
 17 22  1  0  0  0  0
 18 19  1  6  0  0  0
 18 24  1  0  0  0  0
 18 30  1  0  0  0  0
 20 21  1  0  0  0  0
 20 26  1  6  0  0  0
 22 23  1  1  0  0  0
 22 28  1  0  0  0  0
 24 25  1  0  0  0  0
 26 27  1  0  0  0  0
 28 29  1  6  0  0  0
M  END
>  <CHROM.1>
-138.09483578,-39.72839693,-71.97968219,-49.13730958,-19.27800020,-33.65562002
-19.21785409,-20.52934394,-11.39697512,-1.69845085,0.18915929,2.62551887

>  <Name>
ligand

>  <RI>
0

>  <Rbt.Current_Directory>
/home/itssahil/PROJECTS/Mol_Feturizer/New_Systems/rnas/4GPW

>  <Rbt.Executable>
rbdock ($Id: //depot/dev/client3/rdock/2013.1/src/exe/rbdock.cxx#4 $)

>  <Rbt.Library>
libRbt.so (2013.1, Build901 2013/11/27)

>  <Rbt.Parameter_File>
/export/apps/rDock/src/rDock_2013.1_src/data/scripts/dock_solv.prm

>  <Rbt.Receptor>
prm/blind_docking_100.prm

>  <SCORE>
58.7346

>  <SCORE.INTER>
16.998

>  <SCORE.INTER.CONST>
1

>  <SCORE.INTER.POLAR>
0

>  <SCORE.INTER.ROT>
6

>  <SCORE.INTER.SOLV>
25.6404

>  <SCORE.INTER.VDW>
-4.8148

>  <SCORE.INTER.norm>
0.548322

>  <SCORE.INTRA>
26.135

>  <SCORE.INTRA.DIHEDRAL>
-5.9805

>  <SCORE.INTRA.DIHEDRAL.0>
19.2558

>  <SCORE.INTRA.POLAR>
0

>  <SCORE.INTRA.POLAR.0>
0

>  <SCORE.INTRA.REPUL>
0

>  <SCORE.INTRA.REPUL.0>
0

>  <SCORE.INTRA.SOLV>
3.45208

>  <SCORE.INTRA.SOLV.lig_0>
-64.5929

>  <SCORE.INTRA.VDW>
27.3993

>  <SCORE.INTRA.VDW.0>
-4.40538

>  <SCORE.INTRA.norm>
0.843066

>  <SCORE.RESTR>
15.6015

>  <SCORE.RESTR.CAVITY>
15.6015

>  <SCORE.RESTR.norm>
0.503276

>  <SCORE.SYSTEM>
0

>  <SCORE.SYSTEM.CONST>
0

>  <SCORE.SYSTEM.DIHEDRAL>
0

>  <SCORE.SYSTEM.SOLV>
0

>  <SCORE.SYSTEM.norm>
0

>  <SCORE.heavy>
31

>  <SCORE.norm>
1.89466

>  <RMSD>
10.146

$$$$
ligand
 OpenBabel11021811493D
libRbt.so/2013.1/901 2013/11/27
 31 33  0  0  0  0  0  0  0  0999 V2000
  -19.5124  -16.3312  -11.0276 C   0  0  2  0  0  0  0  0  0  0  0  0
  -20.3763  -17.3934  -11.4044 O   0  0  0  0  0  0  0  0  0  0  0  0
  -20.3707  -21.5604  -12.3046 C   0  0  2  0  0  0  0  0  0  0  0  0
  -19.9090  -22.8326  -12.7580 N   0  0  0  0  0  0  0  0  0  0  0  0
  -18.8550  -23.2635   -9.9621 C   0  0  2  0  0  0  0  0  0  0  0  0
  -19.9792  -15.0476  -11.8318 C   0  0  2  0  0  0  0  0  0  0  0  0
  -21.3795  -14.7490  -11.4975 N   0  0  0  0  0  0  0  0  0  0  0  0
  -20.2933  -20.5361  -13.5190 C   0  0  0  0  0  0  0  0  0  0  0  0
  -17.6963  -23.0573   -8.9310 C   0  0  2  0  0  0  0  0  0  0  0  0
  -18.2614  -22.5968   -7.7263 O   0  0  0  0  0  0  0  0  0  0  0  0
  -19.8102  -15.2977  -13.3828 C   0  0  0  0  0  0  0  0  0  0  0  0
  -20.8154  -19.1154  -13.0157 C   0  0  2  0  0  0  0  0  0  0  0  0
  -20.7568  -18.1478  -14.1328 N   0  0  0  0  0  0  0  0  0  0  0  0
  -16.6539  -22.0154   -9.5150 C   0  0  1  0  0  0  0  0  0  0  0  0
  -15.5310  -21.8008   -8.5334 N   0  0  0  0  0  0  0  0  0  0  0  0
  -18.4781  -16.0845  -13.7273 C   0  0  0  0  0  0  0  0  0  0  0  0
  -19.8923  -18.6192  -11.8279 C   0  0  2  0  0  0  0  0  0  0  0  0
  -16.0378  -22.5996  -10.9030 C   0  0  1  0  0  0  0  0  0  0  0  0
  -15.3499  -23.8226  -10.7348 O   0  0  0  0  0  0  0  0  0  0  0  0
  -17.7460  -16.6762  -12.7564 C   0  0  2  0  0  0  0  0  0  0  0  0
  -18.1195  -16.6294  -11.3754 O   0  0  0  0  0  0  0  0  0  0  0  0
  -19.9657  -19.6596  -10.6363 C   0  0  2  0  0  0  0  0  0  0  0  0
  -19.1184  -19.2086   -9.5665 O   0  0  0  0  0  0  0  0  0  0  0  0
  -17.2115  -22.8266  -11.9129 C   0  0  0  0  0  0  0  0  0  0  0  0
  -18.2795  -23.7231  -11.2891 O   0  0  0  0  0  0  0  0  0  0  0  0
  -16.4561  -17.4408  -13.0505 C   0  0  0  0  0  0  0  0  0  0  0  0
  -16.7007  -18.8346  -12.8063 O   0  0  0  0  0  0  0  0  0  0  0  0
  -19.4500  -21.0693  -11.1302 C   0  0  1  0  0  0  0  0  0  0  0  0
  -19.5433  -21.9730  -10.0425 O   0  0  0  0  0  0  0  0  0  0  0  0
  -15.0145  -21.6730  -11.5937 C   0  0  0  0  0  0  0  0  0  0  0  0
  -15.9127  -21.7039   -7.1098 C   0  0  0  0  0  0  0  0  0  0  0  0
  1  2  1  6  0  0  0
  1  6  1  0  0  0  0
  1 21  1  0  0  0  0
  3  4  1  6  0  0  0
  3  8  1  0  0  0  0
  3 28  1  0  0  0  0
  5  9  1  0  0  0  0
  5 25  1  0  0  0  0
  5 29  1  6  0  0  0
  6  7  1  6  0  0  0
  6 11  1  0  0  0  0
  8 12  1  0  0  0  0
  9 10  1  1  0  0  0
  9 14  1  0  0  0  0
 11 16  1  0  0  0  0
 12 13  1  6  0  0  0
 12 17  1  0  0  0  0
 14 15  1  1  0  0  0
 14 18  1  0  0  0  0
 15 31  1  0  0  0  0
 16 20  1  0  0  0  0
 17  2  1  1  0  0  0
 17 22  1  0  0  0  0
 18 19  1  1  0  0  0
 18 24  1  0  0  0  0
 18 30  1  0  0  0  0
 20 21  1  0  0  0  0
 20 26  1  1  0  0  0
 22 23  1  1  0  0  0
 22 28  1  0  0  0  0
 24 25  1  0  0  0  0
 26 27  1  0  0  0  0
 28 29  1  1  0  0  0
M  END
>  <CHROM.1>
128.98081838,106.13357169,-41.02458976,-140.91590107,-111.07791868,78.68416329
-18.46928176,-19.90447860,-11.26200909,-1.99745367,0.53832565,2.97315369

>  <Name>
ligand

>  <RI>
0

>  <Rbt.Current_Directory>
/home/itssahil/PROJECTS/Mol_Feturizer/New_Systems/rnas/4GPW

>  <Rbt.Executable>
rbdock ($Id: //depot/dev/client3/rdock/2013.1/src/exe/rbdock.cxx#4 $)

>  <Rbt.Library>
libRbt.so (2013.1, Build901 2013/11/27)

>  <Rbt.Parameter_File>
/export/apps/rDock/src/rDock_2013.1_src/data/scripts/dock_solv.prm

>  <Rbt.Receptor>
prm/blind_docking_100.prm

>  <SCORE>
37.7268

>  <SCORE.INTER>
7.81659

>  <SCORE.INTER.CONST>
1

>  <SCORE.INTER.POLAR>
0

>  <SCORE.INTER.ROT>
6

>  <SCORE.INTER.SOLV>
20.2602

>  <SCORE.INTER.VDW>
-9.14233

>  <SCORE.INTER.norm>
0.252148

>  <SCORE.INTRA>
9.93142

>  <SCORE.INTRA.DIHEDRAL>
2.73826

>  <SCORE.INTRA.DIHEDRAL.0>
19.2558

>  <SCORE.INTRA.POLAR>
0

>  <SCORE.INTRA.POLAR.0>
0

>  <SCORE.INTRA.REPUL>
0

>  <SCORE.INTRA.REPUL.0>
0

>  <SCORE.INTRA.SOLV>
3.61346

>  <SCORE.INTRA.SOLV.lig_0>
-64.5929

>  <SCORE.INTRA.VDW>
6.75556

>  <SCORE.INTRA.VDW.0>
-4.40538

>  <SCORE.INTRA.norm>
0.320368

>  <SCORE.RESTR>
19.9788

>  <SCORE.RESTR.CAVITY>
19.9788

>  <SCORE.RESTR.norm>
0.644478

>  <SCORE.SYSTEM>
0

>  <SCORE.SYSTEM.CONST>
0

>  <SCORE.SYSTEM.DIHEDRAL>
0

>  <SCORE.SYSTEM.SOLV>
0

>  <SCORE.SYSTEM.norm>
0

>  <SCORE.heavy>
31

>  <SCORE.norm>
1.21699

>  <RMSD>
10.181

$$$$
ligand
 OpenBabel11021811493D
libRbt.so/2013.1/901 2013/11/27
 31 33  0  0  0  0  0  0  0  0999 V2000
  -20.5980  -17.7008  -14.0545 C   0  0  2  0  0  0  0  0  0  0  0  0
  -20.9051  -18.5135  -12.9312 O   0  0  0  0  0  0  0  0  0  0  0  0
  -17.1005  -20.0795  -11.8144 C   0  0  2  0  0  0  0  0  0  0  0  0
  -16.0557  -20.6055  -10.9964 N   0  0  0  0  0  0  0  0  0  0  0  0
  -17.9829  -23.5788  -11.5580 C   0  0  2  0  0  0  0  0  0  0  0  0
  -21.8474  -16.7561  -14.2976 C   0  0  2  0  0  0  0  0  0  0  0  0
  -22.0838  -15.9460  -13.0936 N   0  0  0  0  0  0  0  0  0  0  0  0
  -17.5157  -18.6540  -11.2438 C   0  0  0  0  0  0  0  0  0  0  0  0
  -19.4945  -23.9597  -11.4236 C   0  0  2  0  0  0  0  0  0  0  0  0
  -20.0492  -24.0064  -12.7170 O   0  0  0  0  0  0  0  0  0  0  0  0
  -23.1169  -17.6286  -14.6491 C   0  0  0  0  0  0  0  0  0  0  0  0
  -18.6786  -18.0618  -12.1609 C   0  0  2  0  0  0  0  0  0  0  0  0
  -19.0766  -16.7320  -11.6502 N   0  0  0  0  0  0  0  0  0  0  0  0
  -20.2281  -22.8838  -10.5195 C   0  0  1  0  0  0  0  0  0  0  0  0
  -21.6876  -23.2322  -10.3812 N   0  0  0  0  0  0  0  0  0  0  0  0
  -22.7690  -18.8475  -15.6009 C   0  0  0  0  0  0  0  0  0  0  0  0
  -19.9193  -19.0456  -12.1179 C   0  0  2  0  0  0  0  0  0  0  0  0
  -19.5451  -22.8745   -9.0428 C   0  0  1  0  0  0  0  0  0  0  0  0
  -19.6481  -24.1155   -8.3745 O   0  0  0  0  0  0  0  0  0  0  0  0
  -21.4862  -19.2042  -15.8374 C   0  0  2  0  0  0  0  0  0  0  0  0
  -20.3761  -18.5136  -15.2546 O   0  0  0  0  0  0  0  0  0  0  0  0
  -19.4837  -20.4643  -12.6705 C   0  0  2  0  0  0  0  0  0  0  0  0
  -20.6109  -21.3545  -12.6192 O   0  0  0  0  0  0  0  0  0  0  0  0
  -18.0287  -22.5197   -9.1970 C   0  0  0  0  0  0  0  0  0  0  0  0
  -17.3585  -23.4797  -10.1781 O   0  0  0  0  0  0  0  0  0  0  0  0
  -21.1129  -20.3714  -16.7502 C   0  0  0  0  0  0  0  0  0  0  0  0
  -22.3216  -21.0593  -17.1080 O   0  0  0  0  0  0  0  0  0  0  0  0
  -18.3309  -21.0551  -11.7654 C   0  0  1  0  0  0  0  0  0  0  0  0
  -17.9608  -22.3151  -12.2983 O   0  0  0  0  0  0  0  0  0  0  0  0
  -20.1544  -21.8539   -8.0578 C   0  0  0  0  0  0  0  0  0  0  0  0
  -21.9954  -24.6058   -9.9337 C   0  0  0  0  0  0  0  0  0  0  0  0
  1  2  1  1  0  0  0
  1  6  1  0  0  0  0
  1 21  1  0  0  0  0
  3  4  1  1  0  0  0
  3  8  1  0  0  0  0
  3 28  1  0  0  0  0
  5  9  1  0  0  0  0
  5 25  1  0  0  0  0
  5 29  1  1  0  0  0
  6  7  1  1  0  0  0
  6 11  1  0  0  0  0
  8 12  1  0  0  0  0
  9 10  1  6  0  0  0
  9 14  1  0  0  0  0
 11 16  1  0  0  0  0
 12 13  1  1  0  0  0
 12 17  1  0  0  0  0
 14 15  1  1  0  0  0
 14 18  1  0  0  0  0
 15 31  1  0  0  0  0
 16 20  1  0  0  0  0
 17  2  1  6  0  0  0
 17 22  1  0  0  0  0
 18 19  1  1  0  0  0
 18 24  1  0  0  0  0
 18 30  1  0  0  0  0
 20 21  1  0  0  0  0
 20 26  1  6  0  0  0
 22 23  1  1  0  0  0
 22 28  1  0  0  0  0
 24 25  1  0  0  0  0
 26 27  1  0  0  0  0
 28 29  1  6  0  0  0
M  END
>  <CHROM.1>
-153.51496633,73.69071745,52.27531915,28.89769287,-7.64839251,118.71686813
-19.93565255,-20.69432665,-12.27505103,-2.06813622,0.81718261,2.74909755

>  <Name>
ligand

>  <RI>
0

>  <Rbt.Current_Directory>
/home/itssahil/PROJECTS/Mol_Feturizer/New_Systems/rnas/4GPW

>  <Rbt.Executable>
rbdock ($Id: //depot/dev/client3/rdock/2013.1/src/exe/rbdock.cxx#4 $)

>  <Rbt.Library>
libRbt.so (2013.1, Build901 2013/11/27)

>  <Rbt.Parameter_File>
/export/apps/rDock/src/rDock_2013.1_src/data/scripts/dock_solv.prm

>  <Rbt.Receptor>
prm/blind_docking_100.prm

>  <SCORE>
28.816

>  <SCORE.INTER>
4.0856

>  <SCORE.INTER.CONST>
1

>  <SCORE.INTER.POLAR>
0

>  <SCORE.INTER.ROT>
6

>  <SCORE.INTER.SOLV>
22.3944

>  <SCORE.INTER.VDW>
-12.3411

>  <SCORE.INTER.norm>
0.131793

>  <SCORE.INTRA>
5.89075

>  <SCORE.INTRA.DIHEDRAL>
-2.63334

>  <SCORE.INTRA.DIHEDRAL.0>
19.2558

>  <SCORE.INTRA.POLAR>
0

>  <SCORE.INTRA.POLAR.0>
0

>  <SCORE.INTRA.REPUL>
0

>  <SCORE.INTRA.REPUL.0>
0

>  <SCORE.INTRA.SOLV>
2.38712

>  <SCORE.INTRA.SOLV.lig_0>
-64.5929

>  <SCORE.INTRA.VDW>
6.01386

>  <SCORE.INTRA.VDW.0>
-4.40538

>  <SCORE.INTRA.norm>
0.190024

>  <SCORE.RESTR>
18.8397

>  <SCORE.RESTR.CAVITY>
18.8397

>  <SCORE.RESTR.norm>
0.607732

>  <SCORE.SYSTEM>
0

>  <SCORE.SYSTEM.CONST>
0

>  <SCORE.SYSTEM.DIHEDRAL>
0

>  <SCORE.SYSTEM.SOLV>
0

>  <SCORE.SYSTEM.norm>
0

>  <SCORE.heavy>
31

>  <SCORE.norm>
0.929549

>  <RMSD>
10.257

$$$$
ligand
 OpenBabel11021811493D
libRbt.so/2013.1/901 2013/11/27
 31 33  0  0  0  0  0  0  0  0999 V2000
  -18.9497  -16.4045  -10.9827 C   0  0  2  0  0  0  0  0  0  0  0  0
  -19.9434  -17.3818  -11.2547 O   0  0  0  0  0  0  0  0  0  0  0  0
  -20.4510  -21.5391  -12.0510 C   0  0  2  0  0  0  0  0  0  0  0  0
  -20.1565  -22.8651  -12.4895 N   0  0  0  0  0  0  0  0  0  0  0  0
  -18.9631  -23.3171   -9.6814 C   0  0  2  0  0  0  0  0  0  0  0  0
  -19.5509  -15.0017  -11.4108 C   0  0  2  0  0  0  0  0  0  0  0  0
  -20.7811  -14.7482  -10.6464 N   0  0  0  0  0  0  0  0  0  0  0  0
  -20.3050  -20.5555  -13.2924 C   0  0  0  0  0  0  0  0  0  0  0  0
  -17.6664  -23.0861   -8.8369 C   0  0  2  0  0  0  0  0  0  0  0  0
  -18.0383  -22.4706   -7.6263 O   0  0  0  0  0  0  0  0  0  0  0  0
  -19.8402  -14.9957  -12.9641 C   0  0  0  0  0  0  0  0  0  0  0  0
  -20.6405  -19.0741  -12.8055 C   0  0  2  0  0  0  0  0  0  0  0  0
  -20.5158  -18.1427  -13.9476 N   0  0  0  0  0  0  0  0  0  0  0  0
  -16.6592  -22.1796   -9.6597 C   0  0  1  0  0  0  0  0  0  0  0  0
  -15.4041  -21.9428   -8.8602 N   0  0  0  0  0  0  0  0  0  0  0  0
  -18.7057  -15.7285  -13.7938 C   0  0  0  0  0  0  0  0  0  0  0  0
  -19.6202  -18.6637  -11.6654 C   0  0  2  0  0  0  0  0  0  0  0  0
  -16.2681  -22.9397  -11.0441 C   0  0  1  0  0  0  0  0  0  0  0  0
  -15.6290  -24.1827  -10.8348 O   0  0  0  0  0  0  0  0  0  0  0  0
  -17.7644  -16.4787  -13.1775 C   0  0  2  0  0  0  0  0  0  0  0  0
  -17.7304  -16.6553  -11.7574 O   0  0  0  0  0  0  0  0  0  0  0  0
  -19.7649  -19.6642  -10.4464 C   0  0  2  0  0  0  0  0  0  0  0  0
  -18.8297  -19.2924   -9.4203 O   0  0  0  0  0  0  0  0  0  0  0  0
  -17.5779  -23.1883  -11.8637 C   0  0  0  0  0  0  0  0  0  0  0  0
  -18.5973  -23.9447  -11.0141 O   0  0  0  0  0  0  0  0  0  0  0  0
  -16.6550  -17.1974  -13.9439 C   0  0  0  0  0  0  0  0  0  0  0  0
  -16.9660  -18.5992  -13.9648 O   0  0  0  0  0  0  0  0  0  0  0  0
  -19.4342  -21.1337  -10.9240 C   0  0  1  0  0  0  0  0  0  0  0  0
  -19.5871  -21.9983   -9.8115 O   0  0  0  0  0  0  0  0  0  0  0  0
  -15.3003  -22.1570  -11.9573 C   0  0  0  0  0  0  0  0  0  0  0  0
  -15.5694  -21.8286   -7.3968 C   0  0  0  0  0  0  0  0  0  0  0  0
  1  2  1  6  0  0  0
  1  6  1  0  0  0  0
  1 21  1  0  0  0  0
  3  4  1  6  0  0  0
  3  8  1  0  0  0  0
  3 28  1  0  0  0  0
  5  9  1  0  0  0  0
  5 25  1  0  0  0  0
  5 29  1  6  0  0  0
  6  7  1  1  0  0  0
  6 11  1  0  0  0  0
  8 12  1  0  0  0  0
  9 10  1  1  0  0  0
  9 14  1  0  0  0  0
 11 16  1  0  0  0  0
 12 13  1  6  0  0  0
 12 17  1  0  0  0  0
 14 15  1  1  0  0  0
 14 18  1  0  0  0  0
 15 31  1  0  0  0  0
 16 20  1  0  0  0  0
 17  2  1  1  0  0  0
 17 22  1  0  0  0  0
 18 19  1  1  0  0  0
 18 24  1  0  0  0  0
 18 30  1  0  0  0  0
 20 21  1  0  0  0  0
 20 26  1  1  0  0  0
 22 23  1  1  0  0  0
 22 28  1  0  0  0  0
 24 25  1  0  0  0  0
 26 27  1  0  0  0  0
 28 29  1  1  0  0  0
M  END
>  <CHROM.1>
146.12132671,96.58975860,-34.42338100,-138.61881138,-105.77255015,83.65319922
-18.41814484,-19.93965122,-11.25388061,-1.96620939,0.77276105,3.05379551

>  <Name>
ligand

>  <RI>
0

>  <Rbt.Current_Directory>
/home/itssahil/PROJECTS/Mol_Feturizer/New_Systems/rnas/4GPW

>  <Rbt.Executable>
rbdock ($Id: //depot/dev/client3/rdock/2013.1/src/exe/rbdock.cxx#4 $)

>  <Rbt.Library>
libRbt.so (2013.1, Build901 2013/11/27)

>  <Rbt.Parameter_File>
/export/apps/rDock/src/rDock_2013.1_src/data/scripts/dock_solv.prm

>  <Rbt.Receptor>
prm/blind_docking_100.prm

>  <SCORE>
31.3406

>  <SCORE.INTER>
-0.591051

>  <SCORE.INTER.CONST>
1

>  <SCORE.INTER.POLAR>
0

>  <SCORE.INTER.ROT>
6

>  <SCORE.INTER.SOLV>
19.1921

>  <SCORE.INTER.VDW>
-14.3914

>  <SCORE.INTER.norm>
-0.0190661

>  <SCORE.INTRA>
10.4549

>  <SCORE.INTRA.DIHEDRAL>
0.32968

>  <SCORE.INTRA.DIHEDRAL.0>
19.2558

>  <SCORE.INTRA.POLAR>
0

>  <SCORE.INTRA.POLAR.0>
0

>  <SCORE.INTRA.REPUL>
0

>  <SCORE.INTRA.REPUL.0>
0

>  <SCORE.INTRA.SOLV>
4.09835

>  <SCORE.INTRA.SOLV.lig_0>
-64.5929

>  <SCORE.INTRA.VDW>
8.2409

>  <SCORE.INTRA.VDW.0>
-4.40538

>  <SCORE.INTRA.norm>
0.337255

>  <SCORE.RESTR>
21.4768

>  <SCORE.RESTR.CAVITY>
21.4768

>  <SCORE.RESTR.norm>
0.692799

>  <SCORE.SYSTEM>
0

>  <SCORE.SYSTEM.CONST>
0

>  <SCORE.SYSTEM.DIHEDRAL>
0

>  <SCORE.SYSTEM.SOLV>
0

>  <SCORE.SYSTEM.norm>
0

>  <SCORE.heavy>
31

>  <SCORE.norm>
1.01099

>  <RMSD>
10.283

$$$$
ligand
 OpenBabel11021811493D
libRbt.so/2013.1/901 2013/11/27
 31 33  0  0  0  0  0  0  0  0999 V2000
  -20.8998  -16.9470  -15.9222 C   0  0  2  0  0  0  0  0  0  0  0  0
  -20.3484  -18.0360  -15.1965 O   0  0  0  0  0  0  0  0  0  0  0  0
  -19.0633  -18.3309  -11.1423 C   0  0  2  0  0  0  0  0  0  0  0  0
  -19.1271  -18.3968   -9.7179 N   0  0  0  0  0  0  0  0  0  0  0  0
  -19.4061  -21.4047  -10.0423 C   0  0  2  0  0  0  0  0  0  0  0  0
  -21.4082  -17.5245  -17.3080 C   0  0  2  0  0  0  0  0  0  0  0  0
  -22.4112  -18.5702  -17.0585 N   0  0  0  0  0  0  0  0  0  0  0  0
  -19.7372  -16.9691  -11.6127 C   0  0  0  0  0  0  0  0  0  0  0  0
  -18.3267  -22.5356   -9.9785 C   0  0  2  0  0  0  0  0  0  0  0  0
  -17.0654  -21.9471  -10.1914 O   0  0  0  0  0  0  0  0  0  0  0  0
  -20.1860  -18.0989  -18.1284 C   0  0  0  0  0  0  0  0  0  0  0  0
  -19.6607  -16.8907  -13.2041 C   0  0  2  0  0  0  0  0  0  0  0  0
  -20.2780  -15.6275  -13.6629 N   0  0  0  0  0  0  0  0  0  0  0  0
  -18.6470  -23.6290  -11.0808 C   0  0  1  0  0  0  0  0  0  0  0  0
  -17.6149  -24.7261  -11.0371 N   0  0  0  0  0  0  0  0  0  0  0  0
  -18.8929  -17.1907  -18.0036 C   0  0  0  0  0  0  0  0  0  0  0  0
  -20.4431  -18.1236  -13.8182 C   0  0  2  0  0  0  0  0  0  0  0  0
  -20.1126  -24.2705  -10.7844 C   0  0  1  0  0  0  0  0  0  0  0  0
  -20.1947  -24.9132   -9.5285 O   0  0  0  0  0  0  0  0  0  0  0  0
  -18.8208  -16.2018  -17.0840 C   0  0  2  0  0  0  0  0  0  0  0  0
  -19.8917  -15.9138  -16.1790 O   0  0  0  0  0  0  0  0  0  0  0  0
  -19.7717  -19.4701  -13.3243 C   0  0  2  0  0  0  0  0  0  0  0  0
  -20.4923  -20.5842  -13.8768 O   0  0  0  0  0  0  0  0  0  0  0  0
  -21.1763  -23.1233  -10.8240 C   0  0  0  0  0  0  0  0  0  0  0  0
  -20.7865  -22.0077   -9.8560 O   0  0  0  0  0  0  0  0  0  0  0  0
  -17.5922  -15.3053  -16.9361 C   0  0  0  0  0  0  0  0  0  0  0  0
  -16.9309  -15.2449  -18.2094 O   0  0  0  0  0  0  0  0  0  0  0  0
  -19.8444  -19.5521  -11.7479 C   0  0  1  0  0  0  0  0  0  0  0  0
  -19.2238  -20.7610  -11.3453 O   0  0  0  0  0  0  0  0  0  0  0  0
  -20.5623  -25.3446  -11.7979 C   0  0  0  0  0  0  0  0  0  0  0  0
  -17.3646  -25.3401   -9.7173 C   0  0  0  0  0  0  0  0  0  0  0  0
  1  2  1  1  0  0  0
  1  6  1  0  0  0  0
  1 21  1  0  0  0  0
  3  4  1  1  0  0  0
  3  8  1  0  0  0  0
  3 28  1  0  0  0  0
  5  9  1  0  0  0  0
  5 25  1  0  0  0  0
  5 29  1  6  0  0  0
  6  7  1  1  0  0  0
  6 11  1  0  0  0  0
  8 12  1  0  0  0  0
  9 10  1  6  0  0  0
  9 14  1  0  0  0  0
 11 16  1  0  0  0  0
 12 13  1  6  0  0  0
 12 17  1  0  0  0  0
 14 15  1  1  0  0  0
 14 18  1  0  0  0  0
 15 31  1  0  0  0  0
 16 20  1  0  0  0  0
 17  2  1  6  0  0  0
 17 22  1  0  0  0  0
 18 19  1  1  0  0  0
 18 24  1  0  0  0  0
 18 30  1  0  0  0  0
 20 21  1  0  0  0  0
 20 26  1  6  0  0  0
 22 23  1  6  0  0  0
 22 28  1  0  0  0  0
 24 25  1  0  0  0  0
 26 27  1  0  0  0  0
 28 29  1  1  0  0  0
M  END
>  <CHROM.1>
-145.81899035,-169.61016314,51.67599393,-62.91298895,27.09563825,80.16736259
-19.54260715,-19.79987916,-13.16752337,1.68952756,-1.27650038,-0.61556505

>  <Name>
ligand

>  <RI>
0

>  <Rbt.Current_Directory>
/home/itssahil/PROJECTS/Mol_Feturizer/New_Systems/rnas/4GPW

>  <Rbt.Executable>
rbdock ($Id: //depot/dev/client3/rdock/2013.1/src/exe/rbdock.cxx#4 $)

>  <Rbt.Library>
libRbt.so (2013.1, Build901 2013/11/27)

>  <Rbt.Parameter_File>
/export/apps/rDock/src/rDock_2013.1_src/data/scripts/dock_solv.prm

>  <Rbt.Receptor>
prm/pocket_docking_8.prm

>  <SCORE>
-5.58357

>  <SCORE.INTER>
-5.13082

>  <SCORE.INTER.CONST>
1

>  <SCORE.INTER.POLAR>
0

>  <SCORE.INTER.ROT>
6

>  <SCORE.INTER.SOLV>
18.5257

>  <SCORE.INTER.VDW>
-17.1958

>  <SCORE.INTER.norm>
-0.16551

>  <SCORE.INTRA>
-0.452743

>  <SCORE.INTRA.DIHEDRAL>
-9.9273

>  <SCORE.INTRA.DIHEDRAL.0>
19.2558

>  <SCORE.INTRA.POLAR>
0

>  <SCORE.INTRA.POLAR.0>
0

>  <SCORE.INTRA.REPUL>
0

>  <SCORE.INTRA.REPUL.0>
0

>  <SCORE.INTRA.SOLV>
-0.0866213

>  <SCORE.INTRA.SOLV.lig_0>
-64.5929

>  <SCORE.INTRA.VDW>
4.55422

>  <SCORE.INTRA.VDW.0>
-4.40538

>  <SCORE.INTRA.norm>
-0.0146046

>  <SCORE.RESTR>
0

>  <SCORE.RESTR.CAVITY>
0

>  <SCORE.RESTR.norm>
0

>  <SCORE.SYSTEM>
0

>  <SCORE.SYSTEM.CONST>
0

>  <SCORE.SYSTEM.DIHEDRAL>
0

>  <SCORE.SYSTEM.SOLV>
0

>  <SCORE.SYSTEM.norm>
0

>  <SCORE.heavy>
31

>  <SCORE.norm>
-0.180115

>  <RMSD>
10.294

$$$$
ligand
 OpenBabel11021811493D
libRbt.so/2013.1/901 2013/11/27
 31 33  0  0  0  0  0  0  0  0999 V2000
  -20.6515  -17.6582  -14.2176 C   0  0  2  0  0  0  0  0  0  0  0  0
  -20.8993  -18.4155  -13.0421 O   0  0  0  0  0  0  0  0  0  0  0  0
  -17.0214  -19.8011  -11.9390 C   0  0  2  0  0  0  0  0  0  0  0  0
  -15.9375  -20.2374  -11.1192 N   0  0  0  0  0  0  0  0  0  0  0  0
  -17.4401  -23.1932  -11.3458 C   0  0  2  0  0  0  0  0  0  0  0  0
  -21.9170  -16.7317  -14.4465 C   0  0  2  0  0  0  0  0  0  0  0  0
  -22.1007  -15.8639  -13.2739 N   0  0  0  0  0  0  0  0  0  0  0  0
  -17.4545  -18.3454  -11.4662 C   0  0  0  0  0  0  0  0  0  0  0  0
  -18.7545  -23.9888  -11.0496 C   0  0  2  0  0  0  0  0  0  0  0  0
  -19.3234  -24.3652  -12.2814 O   0  0  0  0  0  0  0  0  0  0  0  0
  -23.1963  -17.6256  -14.6932 C   0  0  0  0  0  0  0  0  0  0  0  0
  -18.6614  -17.8537  -12.3859 C   0  0  2  0  0  0  0  0  0  0  0  0
  -19.0766  -16.4977  -11.9661 N   0  0  0  0  0  0  0  0  0  0  0  0
  -19.7432  -23.0752  -10.2124 C   0  0  1  0  0  0  0  0  0  0  0  0
  -21.0178  -23.8239   -9.9201 N   0  0  0  0  0  0  0  0  0  0  0  0
  -22.8866  -18.8886  -15.5994 C   0  0  0  0  0  0  0  0  0  0  0  0
  -19.8743  -18.8597  -12.2245 C   0  0  2  0  0  0  0  0  0  0  0  0
  -19.0328  -22.6721   -8.8052 C   0  0  1  0  0  0  0  0  0  0  0  0
  -18.7208  -23.7904   -7.9993 O   0  0  0  0  0  0  0  0  0  0  0  0
  -21.6144  -19.2515  -15.8795 C   0  0  2  0  0  0  0  0  0  0  0  0
  -20.4821  -18.5285  -15.3854 O   0  0  0  0  0  0  0  0  0  0  0  0
  -19.4204  -20.3067  -12.6805 C   0  0  2  0  0  0  0  0  0  0  0  0
  -20.5221  -21.2160  -12.5220 O   0  0  0  0  0  0  0  0  0  0  0  0
  -17.7067  -21.9024   -9.1185 C   0  0  0  0  0  0  0  0  0  0  0  0
  -16.8173  -22.7354  -10.0396 O   0  0  0  0  0  0  0  0  0  0  0  0
  -21.2778  -20.4610  -16.7506 C   0  0  0  0  0  0  0  0  0  0  0  0
  -19.9188  -20.3242  -17.1941 O   0  0  0  0  0  0  0  0  0  0  0  0
  -18.2241  -20.7982  -11.7726 C   0  0  1  0  0  0  0  0  0  0  0  0
  -17.8392  -22.0870  -12.2190 O   0  0  0  0  0  0  0  0  0  0  0  0
  -19.8828  -21.7632   -7.8918 C   0  0  0  0  0  0  0  0  0  0  0  0
  -21.6787  -24.4703  -11.0721 C   0  0  0  0  0  0  0  0  0  0  0  0
  1  2  1  1  0  0  0
  1  6  1  0  0  0  0
  1 21  1  0  0  0  0
  3  4  1  1  0  0  0
  3  8  1  0  0  0  0
  3 28  1  0  0  0  0
  5  9  1  0  0  0  0
  5 25  1  0  0  0  0
  5 29  1  6  0  0  0
  6  7  1  1  0  0  0
  6 11  1  0  0  0  0
  8 12  1  0  0  0  0
  9 10  1  6  0  0  0
  9 14  1  0  0  0  0
 11 16  1  0  0  0  0
 12 13  1  1  0  0  0
 12 17  1  0  0  0  0
 14 15  1  1  0  0  0
 14 18  1  0  0  0  0
 15 31  1  0  0  0  0
 16 20  1  0  0  0  0
 17  2  1  6  0  0  0
 17 22  1  0  0  0  0
 18 19  1  1  0  0  0
 18 24  1  0  0  0  0
 18 30  1  0  0  0  0
 20 21  1  0  0  0  0
 20 26  1  6  0  0  0
 22 23  1  1  0  0  0
 22 28  1  0  0  0  0
 24 25  1  0  0  0  0
 26 27  1  0  0  0  0
 28 29  1  6  0  0  0
M  END
>  <CHROM.1>
-151.01178858,91.52586026,-50.25250623,27.33761397,161.97870288,100.56060516
-19.65071283,-20.54593734,-12.28181710,-2.14695533,0.86137812,2.81163939

>  <Name>
ligand

>  <RI>
0

>  <Rbt.Current_Directory>
/home/itssahil/PROJECTS/Mol_Feturizer/New_Systems/rnas/4GPW

>  <Rbt.Executable>
rbdock ($Id: //depot/dev/client3/rdock/2013.1/src/exe/rbdock.cxx#4 $)

>  <Rbt.Library>
libRbt.so (2013.1, Build901 2013/11/27)

>  <Rbt.Parameter_File>
/export/apps/rDock/src/rDock_2013.1_src/data/scripts/dock_solv.prm

>  <Rbt.Receptor>
prm/blind_docking_100.prm

>  <SCORE>
34.6418

>  <SCORE.INTER>
7.71746

>  <SCORE.INTER.CONST>
1

>  <SCORE.INTER.POLAR>
0

>  <SCORE.INTER.ROT>
6

>  <SCORE.INTER.SOLV>
20.4682

>  <SCORE.INTER.VDW>
-9.27777

>  <SCORE.INTER.norm>
0.24895

>  <SCORE.INTRA>
7.18185

>  <SCORE.INTRA.DIHEDRAL>
0.905157

>  <SCORE.INTRA.DIHEDRAL.0>
19.2558

>  <SCORE.INTRA.POLAR>
0

>  <SCORE.INTRA.POLAR.0>
0

>  <SCORE.INTRA.REPUL>
0

>  <SCORE.INTRA.REPUL.0>
0

>  <SCORE.INTRA.SOLV>
2.28235

>  <SCORE.INTRA.SOLV.lig_0>
-64.5929

>  <SCORE.INTRA.VDW>
5.5881

>  <SCORE.INTRA.VDW.0>
-4.40538

>  <SCORE.INTRA.norm>
0.231673

>  <SCORE.RESTR>
19.7425

>  <SCORE.RESTR.CAVITY>
19.7425

>  <SCORE.RESTR.norm>
0.636855

>  <SCORE.SYSTEM>
0

>  <SCORE.SYSTEM.CONST>
0

>  <SCORE.SYSTEM.DIHEDRAL>
0

>  <SCORE.SYSTEM.SOLV>
0

>  <SCORE.SYSTEM.norm>
0

>  <SCORE.heavy>
31

>  <SCORE.norm>
1.11748

>  <RMSD>
10.303

$$$$
ligand
 OpenBabel11021811493D
libRbt.so/2013.1/901 2013/11/27
 31 33  0  0  0  0  0  0  0  0999 V2000
  -18.5715  -16.7923  -11.4495 C   0  0  2  0  0  0  0  0  0  0  0  0
  -19.6771  -17.6639  -11.6353 O   0  0  0  0  0  0  0  0  0  0  0  0
  -20.7303  -21.7888  -11.8605 C   0  0  2  0  0  0  0  0  0  0  0  0
  -20.6015  -23.1952  -12.0674 N   0  0  0  0  0  0  0  0  0  0  0  0
  -19.6369  -23.3076   -9.0700 C   0  0  2  0  0  0  0  0  0  0  0  0
  -18.4924  -15.8652  -12.7328 C   0  0  2  0  0  0  0  0  0  0  0  0
  -19.7516  -15.1186  -12.8696 N   0  0  0  0  0  0  0  0  0  0  0  0
  -20.3413  -21.0448  -13.2114 C   0  0  0  0  0  0  0  0  0  0  0  0
  -18.4760  -23.0119   -8.0635 C   0  0  2  0  0  0  0  0  0  0  0  0
  -18.9849  -22.1892   -7.0404 O   0  0  0  0  0  0  0  0  0  0  0  0
  -18.2177  -16.7482  -14.0140 C   0  0  0  0  0  0  0  0  0  0  0  0
  -20.4911  -19.4731  -12.9839 C   0  0  2  0  0  0  0  0  0  0  0  0
  -20.1388  -18.7614  -14.2316 N   0  0  0  0  0  0  0  0  0  0  0  0
  -17.2827  -22.3059   -8.8320 C   0  0  1  0  0  0  0  0  0  0  0  0
  -16.1552  -22.0096   -7.8773 N   0  0  0  0  0  0  0  0  0  0  0  0
  -17.1789  -17.9125  -13.7353 C   0  0  0  0  0  0  0  0  0  0  0  0
  -19.5157  -19.0266  -11.8184 C   0  0  2  0  0  0  0  0  0  0  0  0
  -16.7388  -23.3003   -9.9994 C   0  0  1  0  0  0  0  0  0  0  0  0
  -16.2415  -24.5251   -9.4995 O   0  0  0  0  0  0  0  0  0  0  0  0
  -16.8069  -18.2289  -12.4742 C   0  0  2  0  0  0  0  0  0  0  0  0
  -17.3175  -17.5421  -11.3268 O   0  0  0  0  0  0  0  0  0  0  0  0
  -19.9043  -19.7909  -10.4870 C   0  0  2  0  0  0  0  0  0  0  0  0
  -19.0093  -19.3888   -9.4366 O   0  0  0  0  0  0  0  0  0  0  0  0
  -17.9178  -23.6086  -10.9811 C   0  0  0  0  0  0  0  0  0  0  0  0
  -19.1156  -24.1618  -10.2113 O   0  0  0  0  0  0  0  0  0  0  0  0
  -15.8070  -19.3428  -12.1675 C   0  0  0  0  0  0  0  0  0  0  0  0
  -16.3204  -20.1099  -11.0675 O   0  0  0  0  0  0  0  0  0  0  0  0
  -19.7580  -21.3488  -10.7075 C   0  0  1  0  0  0  0  0  0  0  0  0
  -20.1259  -21.9961   -9.5017 O   0  0  0  0  0  0  0  0  0  0  0  0
  -15.5797  -22.7289  -10.8438 C   0  0  0  0  0  0  0  0  0  0  0  0
  -16.4697  -21.1105   -6.7484 C   0  0  0  0  0  0  0  0  0  0  0  0
  1  2  1  6  0  0  0
  1  6  1  0  0  0  0
  1 21  1  0  0  0  0
  3  4  1  6  0  0  0
  3  8  1  0  0  0  0
  3 28  1  0  0  0  0
  5  9  1  0  0  0  0
  5 25  1  0  0  0  0
  5 29  1  6  0  0  0
  6  7  1  6  0  0  0
  6 11  1  0  0  0  0
  8 12  1  0  0  0  0
  9 10  1  1  0  0  0
  9 14  1  0  0  0  0
 11 16  1  0  0  0  0
 12 13  1  6  0  0  0
 12 17  1  0  0  0  0
 14 15  1  1  0  0  0
 14 18  1  0  0  0  0
 15 31  1  0  0  0  0
 16 20  1  0  0  0  0
 17  2  1  1  0  0  0
 17 22  1  0  0  0  0
 18 19  1  1  0  0  0
 18 24  1  0  0  0  0
 18 30  1  0  0  0  0
 20 21  1  0  0  0  0
 20 26  1  6  0  0  0
 22 23  1  1  0  0  0
 22 28  1  0  0  0  0
 24 25  1  0  0  0  0
 26 27  1  0  0  0  0
 28 29  1  1  0  0  0
M  END
>  <CHROM.1>
112.32267085,98.36382005,-60.63445590,-136.70693608,-135.79290109,88.48715119
-18.40860328,-20.45323558,-10.89276235,-1.72504386,0.54276622,2.64141725

>  <Name>
ligand

>  <RI>
0

>  <Rbt.Current_Directory>
/home/itssahil/PROJECTS/Mol_Feturizer/New_Systems/rnas/4GPW

>  <Rbt.Executable>
rbdock ($Id: //depot/dev/client3/rdock/2013.1/src/exe/rbdock.cxx#4 $)

>  <Rbt.Library>
libRbt.so (2013.1, Build901 2013/11/27)

>  <Rbt.Parameter_File>
/export/apps/rDock/src/rDock_2013.1_src/data/scripts/dock_solv.prm

>  <Rbt.Receptor>
prm/blind_docking_100.prm

>  <SCORE>
58.7855

>  <SCORE.INTER>
31.5035

>  <SCORE.INTER.CONST>
1

>  <SCORE.INTER.POLAR>
0

>  <SCORE.INTER.ROT>
6

>  <SCORE.INTER.SOLV>
20.2802

>  <SCORE.INTER.VDW>
6.64228

>  <SCORE.INTER.norm>
1.01624

>  <SCORE.INTRA>
8.51461

>  <SCORE.INTRA.DIHEDRAL>
3.99246

>  <SCORE.INTRA.DIHEDRAL.0>
19.2558

>  <SCORE.INTRA.POLAR>
0

>  <SCORE.INTRA.POLAR.0>
0

>  <SCORE.INTRA.REPUL>
0

>  <SCORE.INTRA.REPUL.0>
0

>  <SCORE.INTRA.SOLV>
5.18179

>  <SCORE.INTRA.SOLV.lig_0>
-64.5929

>  <SCORE.INTRA.VDW>
3.92748

>  <SCORE.INTRA.VDW.0>
-4.40538

>  <SCORE.INTRA.norm>
0.274665

>  <SCORE.RESTR>
18.7674

>  <SCORE.RESTR.CAVITY>
18.7674

>  <SCORE.RESTR.norm>
0.605401

>  <SCORE.SYSTEM>
0

>  <SCORE.SYSTEM.CONST>
0

>  <SCORE.SYSTEM.DIHEDRAL>
0

>  <SCORE.SYSTEM.SOLV>
0

>  <SCORE.SYSTEM.norm>
0

>  <SCORE.heavy>
31

>  <SCORE.norm>
1.89631

>  <RMSD>
10.319

$$$$
ligand
 OpenBabel11021811493D
libRbt.so/2013.1/901 2013/11/27
 31 33  0  0  0  0  0  0  0  0999 V2000
  -21.2988  -17.3993  -12.8448 C   0  0  2  0  0  0  0  0  0  0  0  0
  -21.1775  -18.7078  -12.3065 O   0  0  0  0  0  0  0  0  0  0  0  0
  -17.0921  -19.8453  -11.8710 C   0  0  2  0  0  0  0  0  0  0  0  0
  -15.8770  -20.2658  -11.2512 N   0  0  0  0  0  0  0  0  0  0  0  0
  -17.3697  -23.3821  -11.6174 C   0  0  2  0  0  0  0  0  0  0  0  0
  -22.5594  -17.4092  -13.8056 C   0  0  2  0  0  0  0  0  0  0  0  0
  -23.7528  -17.7889  -13.0353 N   0  0  0  0  0  0  0  0  0  0  0  0
  -17.5662  -18.4930  -11.1808 C   0  0  0  0  0  0  0  0  0  0  0  0
  -18.7073  -24.0590  -11.1692 C   0  0  2  0  0  0  0  0  0  0  0  0
  -19.5089  -24.2400  -12.3125 O   0  0  0  0  0  0  0  0  0  0  0  0
  -22.3141  -18.4154  -14.9989 C   0  0  0  0  0  0  0  0  0  0  0  0
  -18.9205  -18.0181  -11.8771 C   0  0  2  0  0  0  0  0  0  0  0  0
  -19.3766  -16.7573  -11.2529 N   0  0  0  0  0  0  0  0  0  0  0  0
  -19.4280  -23.1382  -10.0987 C   0  0  1  0  0  0  0  0  0  0  0  0
  -20.7215  -23.7726   -9.6571 N   0  0  0  0  0  0  0  0  0  0  0  0
  -20.8259  -18.3592  -15.5418 C   0  0  0  0  0  0  0  0  0  0  0  0
  -20.0204  -19.1412  -11.6822 C   0  0  2  0  0  0  0  0  0  0  0  0
  -18.4563  -22.9645   -8.8053 C   0  0  1  0  0  0  0  0  0  0  0  0
  -18.1591  -24.1886   -8.1646 O   0  0  0  0  0  0  0  0  0  0  0  0
  -19.8583  -17.7062  -14.8593 C   0  0  2  0  0  0  0  0  0  0  0  0
  -20.1113  -17.0317  -13.6224 O   0  0  0  0  0  0  0  0  0  0  0  0
  -19.5241  -20.4848  -12.3576 C   0  0  2  0  0  0  0  0  0  0  0  0
  -20.5219  -21.5019  -12.1684 O   0  0  0  0  0  0  0  0  0  0  0  0
  -17.1132  -22.3126   -9.2746 C   0  0  0  0  0  0  0  0  0  0  0  0
  -16.4932  -23.1341  -10.4033 O   0  0  0  0  0  0  0  0  0  0  0  0
  -18.4141  -17.6290  -15.3527 C   0  0  0  0  0  0  0  0  0  0  0  0
  -17.5932  -18.3760  -14.4416 O   0  0  0  0  0  0  0  0  0  0  0  0
  -18.1819  -20.9592  -11.6715 C   0  0  1  0  0  0  0  0  0  0  0  0
  -17.7644  -22.1534  -12.3103 O   0  0  0  0  0  0  0  0  0  0  0  0
  -19.0296  -22.0712   -7.6844 C   0  0  0  0  0  0  0  0  0  0  0  0
  -21.9510  -22.9878   -9.8900 C   0  0  0  0  0  0  0  0  0  0  0  0
  1  2  1  6  0  0  0
  1  6  1  0  0  0  0
  1 21  1  0  0  0  0
  3  4  1  1  0  0  0
  3  8  1  0  0  0  0
  3 28  1  0  0  0  0
  5  9  1  0  0  0  0
  5 25  1  0  0  0  0
  5 29  1  1  0  0  0
  6  7  1  1  0  0  0
  6 11  1  0  0  0  0
  8 12  1  0  0  0  0
  9 10  1  6  0  0  0
  9 14  1  0  0  0  0
 11 16  1  0  0  0  0
 12 13  1  1  0  0  0
 12 17  1  0  0  0  0
 14 15  1  1  0  0  0
 14 18  1  0  0  0  0
 15 31  1  0  0  0  0
 16 20  1  0  0  0  0
 17  2  1  6  0  0  0
 17 22  1  0  0  0  0
 18 19  1  1  0  0  0
 18 24  1  0  0  0  0
 18 30  1  0  0  0  0
 20 21  1  0  0  0  0
 20 26  1  6  0  0  0
 22 23  1  1  0  0  0
 22 28  1  0  0  0  0
 24 25  1  0  0  0  0
 26 27  1  0  0  0  0
 28 29  1  6  0  0  0
M  END
>  <CHROM.1>
164.52072448,77.56868378,-120.56844897,-7.12733663,-112.88947009,110.90026225
-19.33822811,-20.44159337,-11.85123162,1.88867915,-0.03459544,-0.62212869

>  <Name>
ligand

>  <RI>
0

>  <Rbt.Current_Directory>
/home/itssahil/PROJECTS/Mol_Feturizer/New_Systems/rnas/4GPW

>  <Rbt.Executable>
rbdock ($Id: //depot/dev/client3/rdock/2013.1/src/exe/rbdock.cxx#4 $)

>  <Rbt.Library>
libRbt.so (2013.1, Build901 2013/11/27)

>  <Rbt.Parameter_File>
/export/apps/rDock/src/rDock_2013.1_src/data/scripts/dock_solv.prm

>  <Rbt.Receptor>
prm/blind_docking_100.prm

>  <SCORE>
48.7452

>  <SCORE.INTER>
17.7628

>  <SCORE.INTER.CONST>
1

>  <SCORE.INTER.POLAR>
0

>  <SCORE.INTER.ROT>
6

>  <SCORE.INTER.SOLV>
20.1253

>  <SCORE.INTER.VDW>
-2.46655

>  <SCORE.INTER.norm>
0.572993

>  <SCORE.INTRA>
12.0355

>  <SCORE.INTRA.DIHEDRAL>
-0.0315595

>  <SCORE.INTRA.DIHEDRAL.0>
19.2558

>  <SCORE.INTRA.POLAR>
0

>  <SCORE.INTRA.POLAR.0>
0

>  <SCORE.INTRA.REPUL>
0.0012863

>  <SCORE.INTRA.REPUL.0>
0

>  <SCORE.INTRA.SOLV>
3.92154

>  <SCORE.INTRA.SOLV.lig_0>
-64.5929

>  <SCORE.INTRA.VDW>
10.0841

>  <SCORE.INTRA.VDW.0>
-4.40538

>  <SCORE.INTRA.norm>
0.388241

>  <SCORE.RESTR>
18.9469

>  <SCORE.RESTR.CAVITY>
18.9469

>  <SCORE.RESTR.norm>
0.611192

>  <SCORE.SYSTEM>
0

>  <SCORE.SYSTEM.CONST>
0

>  <SCORE.SYSTEM.DIHEDRAL>
0

>  <SCORE.SYSTEM.SOLV>
0

>  <SCORE.SYSTEM.norm>
0

>  <SCORE.heavy>
31

>  <SCORE.norm>
1.57243

>  <RMSD>
10.335

$$$$
ligand
 OpenBabel11021811493D
libRbt.so/2013.1/901 2013/11/27
 31 33  0  0  0  0  0  0  0  0999 V2000
  -15.0465  -20.7234  -10.8557 C   0  0  2  0  0  0  0  0  0  0  0  0
  -15.4939  -20.5105  -12.1865 O   0  0  0  0  0  0  0  0  0  0  0  0
  -19.5663  -19.4578  -11.4920 C   0  0  2  0  0  0  0  0  0  0  0  0
  -20.9198  -19.0918  -11.7588 N   0  0  0  0  0  0  0  0  0  0  0  0
  -19.6408  -22.9722  -10.7404 C   0  0  2  0  0  0  0  0  0  0  0  0
  -13.5319  -21.1820  -10.9445 C   0  0  2  0  0  0  0  0  0  0  0  0
  -12.7475  -20.1359  -11.6170 N   0  0  0  0  0  0  0  0  0  0  0  0
  -18.6127  -18.3598  -12.1363 C   0  0  0  0  0  0  0  0  0  0  0  0
  -20.9261  -23.7738  -10.3483 C   0  0  2  0  0  0  0  0  0  0  0  0
  -21.6079  -24.1114  -11.5332 O   0  0  0  0  0  0  0  0  0  0  0  0
  -13.4330  -22.5517  -11.7258 C   0  0  0  0  0  0  0  0  0  0  0  0
  -17.0998  -18.7638  -11.8331 C   0  0  2  0  0  0  0  0  0  0  0  0
  -16.1951  -17.7515  -12.4198 N   0  0  0  0  0  0  0  0  0  0  0  0
  -21.8290  -22.8839   -9.3964 C   0  0  1  0  0  0  0  0  0  0  0  0
  -23.0749  -23.6385   -9.0105 N   0  0  0  0  0  0  0  0  0  0  0  0
  -14.6072  -23.5484  -11.3511 C   0  0  0  0  0  0  0  0  0  0  0  0
  -16.8069  -20.1814  -12.4765 C   0  0  2  0  0  0  0  0  0  0  0  0
  -20.9901  -22.5252   -8.0493 C   0  0  1  0  0  0  0  0  0  0  0  0
  -20.6106  -23.6680   -7.3095 O   0  0  0  0  0  0  0  0  0  0  0  0
  -15.6810  -23.1277  -10.6450 C   0  0  2  0  0  0  0  0  0  0  0  0
  -15.8240  -21.7764  -10.1949 O   0  0  0  0  0  0  0  0  0  0  0  0
  -17.7775  -21.2580  -11.8386 C   0  0  2  0  0  0  0  0  0  0  0  0
  -17.5135  -22.5393  -12.4338 O   0  0  0  0  0  0  0  0  0  0  0  0
  -19.6948  -21.7490   -8.4603 C   0  0  0  0  0  0  0  0  0  0  0  0
  -18.8980  -22.5555   -9.4841 O   0  0  0  0  0  0  0  0  0  0  0  0
  -16.8303  -24.0598  -10.2639 C   0  0  0  0  0  0  0  0  0  0  0  0
  -16.5387  -25.3630  -10.7921 O   0  0  0  0  0  0  0  0  0  0  0  0
  -19.2780  -20.8617  -12.1357 C   0  0  1  0  0  0  0  0  0  0  0  0
  -20.1132  -21.8392  -11.5395 O   0  0  0  0  0  0  0  0  0  0  0  0
  -21.7479  -21.6426   -7.0345 C   0  0  0  0  0  0  0  0  0  0  0  0
  -24.0374  -23.9159  -10.0959 C   0  0  0  0  0  0  0  0  0  0  0  0
  1  2  1  6  0  0  0
  1  6  1  0  0  0  0
  1 21  1  0  0  0  0
  3  4  1  6  0  0  0
  3  8  1  0  0  0  0
  3 28  1  0  0  0  0
  5  9  1  0  0  0  0
  5 25  1  0  0  0  0
  5 29  1  1  0  0  0
  6  7  1  6  0  0  0
  6 11  1  0  0  0  0
  8 12  1  0  0  0  0
  9 10  1  6  0  0  0
  9 14  1  0  0  0  0
 11 16  1  0  0  0  0
 12 13  1  6  0  0  0
 12 17  1  0  0  0  0
 14 15  1  1  0  0  0
 14 18  1  0  0  0  0
 15 31  1  0  0  0  0
 16 20  1  0  0  0  0
 17  2  1  1  0  0  0
 17 22  1  0  0  0  0
 18 19  1  1  0  0  0
 18 24  1  0  0  0  0
 18 30  1  0  0  0  0
 20 21  1  0  0  0  0
 20 26  1  1  0  0  0
 22 23  1  6  0  0  0
 22 28  1  0  0  0  0
 24 25  1  0  0  0  0
 26 27  1  0  0  0  0
 28 29  1  1  0  0  0
M  END
>  <CHROM.1>
175.83079984,-178.36910119,-67.02627928,64.39294188,-0.51397412,-115.67253345
-18.29910829,-21.87075955,-10.70308785,-0.37839031,-0.18586772,2.73885646

>  <Name>
ligand

>  <RI>
0

>  <Rbt.Current_Directory>
/home/itssahil/PROJECTS/Mol_Feturizer/New_Systems/rnas/4GPW

>  <Rbt.Executable>
rbdock ($Id: //depot/dev/client3/rdock/2013.1/src/exe/rbdock.cxx#4 $)

>  <Rbt.Library>
libRbt.so (2013.1, Build901 2013/11/27)

>  <Rbt.Parameter_File>
/export/apps/rDock/src/rDock_2013.1_src/data/scripts/dock_solv.prm

>  <Rbt.Receptor>
prm/blind_docking_60.prm

>  <SCORE>
41.0377

>  <SCORE.INTER>
16.4307

>  <SCORE.INTER.CONST>
1

>  <SCORE.INTER.POLAR>
0

>  <SCORE.INTER.ROT>
6

>  <SCORE.INTER.SOLV>
25.7212

>  <SCORE.INTER.VDW>
-5.21998

>  <SCORE.INTER.norm>
0.530021

>  <SCORE.INTRA>
4.51559

>  <SCORE.INTRA.DIHEDRAL>
-10.2348

>  <SCORE.INTRA.DIHEDRAL.0>
19.2558

>  <SCORE.INTRA.POLAR>
0

>  <SCORE.INTRA.POLAR.0>
0

>  <SCORE.INTRA.REPUL>
0.414386

>  <SCORE.INTRA.REPUL.0>
0

>  <SCORE.INTRA.SOLV>
-1.49126

>  <SCORE.INTRA.SOLV.lig_0>
-64.5929

>  <SCORE.INTRA.VDW>
8.3067

>  <SCORE.INTRA.VDW.0>
-4.40538

>  <SCORE.INTRA.norm>
0.145664

>  <SCORE.RESTR>
20.0914

>  <SCORE.RESTR.CAVITY>
20.0914

>  <SCORE.RESTR.norm>
0.648111

>  <SCORE.SYSTEM>
0

>  <SCORE.SYSTEM.CONST>
0

>  <SCORE.SYSTEM.DIHEDRAL>
0

>  <SCORE.SYSTEM.SOLV>
0

>  <SCORE.SYSTEM.norm>
0

>  <SCORE.heavy>
31

>  <SCORE.norm>
1.3238

>  <RMSD>
10.371

$$$$
ligand
 OpenBabel11021811493D
libRbt.so/2013.1/901 2013/11/27
 31 33  0  0  0  0  0  0  0  0999 V2000
  -14.6744  -23.0631  -12.9730 C   0  0  2  0  0  0  0  0  0  0  0  0
  -15.1424  -23.9584  -11.9749 O   0  0  0  0  0  0  0  0  0  0  0  0
  -17.9852  -24.2347   -8.8100 C   0  0  2  0  0  0  0  0  0  0  0  0
  -18.8243  -23.8412   -7.7245 N   0  0  0  0  0  0  0  0  0  0  0  0
  -20.8723  -22.8405  -10.4052 C   0  0  2  0  0  0  0  0  0  0  0  0
  -13.2091  -22.6277  -12.5538 C   0  0  2  0  0  0  0  0  0  0  0  0
  -12.3574  -23.8224  -12.4578 N   0  0  0  0  0  0  0  0  0  0  0  0
  -16.4791  -23.8920   -8.4303 C   0  0  0  0  0  0  0  0  0  0  0  0
  -20.8811  -22.1303  -11.7993 C   0  0  2  0  0  0  0  0  0  0  0  0
  -20.9493  -23.1240  -12.7946 O   0  0  0  0  0  0  0  0  0  0  0  0
  -13.2546  -21.8548  -11.1765 C   0  0  0  0  0  0  0  0  0  0  0  0
  -15.5392  -24.3374   -9.6397 C   0  0  2  0  0  0  0  0  0  0  0  0
  -14.1314  -24.0321   -9.3046 N   0  0  0  0  0  0  0  0  0  0  0  0
  -19.5695  -21.2525  -11.9490 C   0  0  1  0  0  0  0  0  0  0  0  0
  -19.5583  -20.5626  -13.2886 N   0  0  0  0  0  0  0  0  0  0  0  0
  -14.4993  -20.8791  -11.0708 C   0  0  0  0  0  0  0  0  0  0  0  0
  -15.9648  -23.5423  -10.9420 C   0  0  2  0  0  0  0  0  0  0  0  0
  -19.5455  -20.1265  -10.7748 C   0  0  1  0  0  0  0  0  0  0  0  0
  -20.6448  -19.2402  -10.8315 O   0  0  0  0  0  0  0  0  0  0  0  0
  -15.5099  -20.9375  -11.9675 C   0  0  2  0  0  0  0  0  0  0  0  0
  -15.5202  -21.8682  -13.0549 O   0  0  0  0  0  0  0  0  0  0  0  0
  -17.4714  -23.8796  -11.2941 C   0  0  2  0  0  0  0  0  0  0  0  0
  -17.8540  -23.1474  -12.4702 O   0  0  0  0  0  0  0  0  0  0  0  0
  -19.5653  -20.8516   -9.3881 C   0  0  0  0  0  0  0  0  0  0  0  0
  -20.7593  -21.8008   -9.3052 O   0  0  0  0  0  0  0  0  0  0  0  0
  -16.7240  -20.0121  -11.8986 C   0  0  0  0  0  0  0  0  0  0  0  0
  -16.8437  -19.3420  -13.1630 O   0  0  0  0  0  0  0  0  0  0  0  0
  -18.4067  -23.4406  -10.0984 C   0  0  1  0  0  0  0  0  0  0  0  0
  -19.7409  -23.7699  -10.4452 O   0  0  0  0  0  0  0  0  0  0  0  0
  -18.3063  -19.2060  -10.7904 C   0  0  0  0  0  0  0  0  0  0  0  0
  -20.6894  -19.6552  -13.5696 C   0  0  0  0  0  0  0  0  0  0  0  0
  1  2  1  1  0  0  0
  1  6  1  0  0  0  0
  1 21  1  0  0  0  0
  3  4  1  1  0  0  0
  3  8  1  0  0  0  0
  3 28  1  0  0  0  0
  5  9  1  0  0  0  0
  5 25  1  0  0  0  0
  5 29  1  6  0  0  0
  6  7  1  1  0  0  0
  6 11  1  0  0  0  0
  8 12  1  0  0  0  0
  9 10  1  6  0  0  0
  9 14  1  0  0  0  0
 11 16  1  0  0  0  0
 12 13  1  1  0  0  0
 12 17  1  0  0  0  0
 14 15  1  6  0  0  0
 14 18  1  0  0  0  0
 15 31  1  0  0  0  0
 16 20  1  0  0  0  0
 17  2  1  6  0  0  0
 17 22  1  0  0  0  0
 18 19  1  6  0  0  0
 18 24  1  0  0  0  0
 18 30  1  0  0  0  0
 20 21  1  0  0  0  0
 20 26  1  6  0  0  0
 22 23  1  6  0  0  0
 22 28  1  0  0  0  0
 24 25  1  0  0  0  0
 26 27  1  0  0  0  0
 28 29  1  6  0  0  0
M  END
>  <CHROM.1>
98.10749245,87.40817483,59.39367588,-142.98192287,124.98796887,113.93118816
-17.50624743,-22.14245356,-11.20097361,-0.18088528,0.22558221,-0.73565120

>  <Name>
ligand

>  <RI>
0

>  <Rbt.Current_Directory>
/home/itssahil/PROJECTS/Mol_Feturizer/New_Systems/rnas/4GPW

>  <Rbt.Executable>
rbdock ($Id: //depot/dev/client3/rdock/2013.1/src/exe/rbdock.cxx#4 $)

>  <Rbt.Library>
libRbt.so (2013.1, Build901 2013/11/27)

>  <Rbt.Parameter_File>
/export/apps/rDock/src/rDock_2013.1_src/data/scripts/dock_solv.prm

>  <Rbt.Receptor>
prm/blind_docking_60.prm

>  <SCORE>
67.5492

>  <SCORE.INTER>
25.9185

>  <SCORE.INTER.CONST>
1

>  <SCORE.INTER.POLAR>
0

>  <SCORE.INTER.ROT>
6

>  <SCORE.INTER.SOLV>
17.7103

>  <SCORE.INTER.VDW>
3.77558

>  <SCORE.INTER.norm>
0.836081

>  <SCORE.INTRA>
23.4128

>  <SCORE.INTRA.DIHEDRAL>
2.55296

>  <SCORE.INTRA.DIHEDRAL.0>
19.2558

>  <SCORE.INTRA.POLAR>
0

>  <SCORE.INTRA.POLAR.0>
0

>  <SCORE.INTRA.REPUL>
0.0389565

>  <SCORE.INTRA.REPUL.0>
0

>  <SCORE.INTRA.SOLV>
5.41128

>  <SCORE.INTRA.SOLV.lig_0>
-64.5929

>  <SCORE.INTRA.VDW>
19.2359

>  <SCORE.INTRA.VDW.0>
-4.40538

>  <SCORE.INTRA.norm>
0.755251

>  <SCORE.RESTR>
18.2179

>  <SCORE.RESTR.CAVITY>
18.2179

>  <SCORE.RESTR.norm>
0.587674

>  <SCORE.SYSTEM>
0

>  <SCORE.SYSTEM.CONST>
0

>  <SCORE.SYSTEM.DIHEDRAL>
0

>  <SCORE.SYSTEM.SOLV>
0

>  <SCORE.SYSTEM.norm>
0

>  <SCORE.heavy>
31

>  <SCORE.norm>
2.17901

>  <RMSD>
10.387

$$$$
ligand
 OpenBabel11021811493D
libRbt.so/2013.1/901 2013/11/27
 31 33  0  0  0  0  0  0  0  0999 V2000
  -14.6452  -23.0515  -12.9463 C   0  0  2  0  0  0  0  0  0  0  0  0
  -15.1359  -23.9536  -11.9655 O   0  0  0  0  0  0  0  0  0  0  0  0
  -17.9776  -24.2337   -8.7999 C   0  0  2  0  0  0  0  0  0  0  0  0
  -18.8157  -23.8416   -7.7132 N   0  0  0  0  0  0  0  0  0  0  0  0
  -20.8634  -22.8317  -10.3912 C   0  0  2  0  0  0  0  0  0  0  0  0
  -13.1881  -22.6227  -12.4930 C   0  0  2  0  0  0  0  0  0  0  0  0
  -12.3411  -23.8200  -12.3888 N   0  0  0  0  0  0  0  0  0  0  0  0
  -16.4709  -23.8939   -8.4202 C   0  0  0  0  0  0  0  0  0  0  0  0
  -20.8716  -22.1190  -11.7841 C   0  0  2  0  0  0  0  0  0  0  0  0
  -20.9415  -23.1108  -12.7811 O   0  0  0  0  0  0  0  0  0  0  0  0
  -13.2609  -21.8607  -11.1107 C   0  0  0  0  0  0  0  0  0  0  0  0
  -15.5321  -24.3377   -9.6310 C   0  0  2  0  0  0  0  0  0  0  0  0
  -14.1238  -24.0350   -9.2959 N   0  0  0  0  0  0  0  0  0  0  0  0
  -19.5587  -21.2429  -11.9326 C   0  0  1  0  0  0  0  0  0  0  0  0
  -19.5468  -20.5506  -13.2709 N   0  0  0  0  0  0  0  0  0  0  0  0
  -14.5056  -20.8832  -11.0233 C   0  0  0  0  0  0  0  0  0  0  0  0
  -15.9572  -23.5389  -10.9312 C   0  0  2  0  0  0  0  0  0  0  0  0
  -19.5328  -20.1190  -10.7563 C   0  0  1  0  0  0  0  0  0  0  0  0
  -20.6308  -19.2310  -10.8111 O   0  0  0  0  0  0  0  0  0  0  0  0
  -15.4972  -20.9321  -11.9414 C   0  0  2  0  0  0  0  0  0  0  0  0
  -15.4866  -21.8540  -13.0363 O   0  0  0  0  0  0  0  0  0  0  0  0
  -17.4645  -23.8734  -11.2834 C   0  0  2  0  0  0  0  0  0  0  0  0
  -17.8466  -23.1379  -12.4576 O   0  0  0  0  0  0  0  0  0  0  0  0
  -19.5533  -20.8467   -9.3709 C   0  0  0  0  0  0  0  0  0  0  0  0
  -20.7487  -21.7942   -9.2894 O   0  0  0  0  0  0  0  0  0  0  0  0
  -16.7105  -20.0046  -11.8906 C   0  0  0  0  0  0  0  0  0  0  0  0
  -16.8428  -19.3758  -13.1748 O   0  0  0  0  0  0  0  0  0  0  0  0
  -18.3987  -23.4360  -10.0863 C   0  0  1  0  0  0  0  0  0  0  0  0
  -19.7334  -23.7627  -10.4332 O   0  0  0  0  0  0  0  0  0  0  0  0
  -18.2922  -19.2004  -10.7705 C   0  0  0  0  0  0  0  0  0  0  0  0
  -20.6721  -19.6342  -13.5464 C   0  0  0  0  0  0  0  0  0  0  0  0
  1  2  1  1  0  0  0
  1  6  1  0  0  0  0
  1 21  1  0  0  0  0
  3  4  1  1  0  0  0
  3  8  1  0  0  0  0
  3 28  1  0  0  0  0
  5  9  1  0  0  0  0
  5 25  1  0  0  0  0
  5 29  1  6  0  0  0
  6  7  1  1  0  0  0
  6 11  1  0  0  0  0
  8 12  1  0  0  0  0
  9 10  1  6  0  0  0
  9 14  1  0  0  0  0
 11 16  1  0  0  0  0
 12 13  1  1  0  0  0
 12 17  1  0  0  0  0
 14 15  1  6  0  0  0
 14 18  1  0  0  0  0
 15 31  1  0  0  0  0
 16 20  1  0  0  0  0
 17  2  1  6  0  0  0
 17 22  1  0  0  0  0
 18 19  1  6  0  0  0
 18 24  1  0  0  0  0
 18 30  1  0  0  0  0
 20 21  1  0  0  0  0
 20 26  1  6  0  0  0
 22 23  1  6  0  0  0
 22 28  1  0  0  0  0
 24 25  1  0  0  0  0
 26 27  1  0  0  0  0
 28 29  1  6  0  0  0
M  END
>  <CHROM.1>
96.78355698,87.40395509,59.77989004,-141.68169473,127.90904915,113.96817819
-17.49571656,-22.13787018,-11.18128546,-0.18601633,0.22379859,-0.73513750

>  <Name>
ligand

>  <RI>
0

>  <Rbt.Current_Directory>
/home/itssahil/PROJECTS/Mol_Feturizer/New_Systems/rnas/4GPW

>  <Rbt.Executable>
rbdock ($Id: //depot/dev/client3/rdock/2013.1/src/exe/rbdock.cxx#4 $)

>  <Rbt.Library>
libRbt.so (2013.1, Build901 2013/11/27)

>  <Rbt.Parameter_File>
/export/apps/rDock/src/rDock_2013.1_src/data/scripts/dock_solv.prm

>  <Rbt.Receptor>
prm/blind_docking_60.prm

>  <SCORE>
67.2377

>  <SCORE.INTER>
25.4587

>  <SCORE.INTER.CONST>
1

>  <SCORE.INTER.POLAR>
0

>  <SCORE.INTER.ROT>
6

>  <SCORE.INTER.SOLV>
17.5242

>  <SCORE.INTER.VDW>
3.53108

>  <SCORE.INTER.norm>
0.821249

>  <SCORE.INTRA>
23.4555

>  <SCORE.INTRA.DIHEDRAL>
2.59725

>  <SCORE.INTRA.DIHEDRAL.0>
19.2558

>  <SCORE.INTRA.POLAR>
0

>  <SCORE.INTRA.POLAR.0>
0

>  <SCORE.INTRA.REPUL>
0.0313305

>  <SCORE.INTRA.REPUL.0>
0

>  <SCORE.INTRA.SOLV>
5.57465

>  <SCORE.INTRA.SOLV.lig_0>
-64.5929

>  <SCORE.INTRA.VDW>
19.2129

>  <SCORE.INTRA.VDW.0>
-4.40538

>  <SCORE.INTRA.norm>
0.756629

>  <SCORE.RESTR>
18.3234

>  <SCORE.RESTR.CAVITY>
18.3234

>  <SCORE.RESTR.norm>
0.591079

>  <SCORE.SYSTEM>
0

>  <SCORE.SYSTEM.CONST>
0

>  <SCORE.SYSTEM.DIHEDRAL>
0

>  <SCORE.SYSTEM.SOLV>
0

>  <SCORE.SYSTEM.norm>
0

>  <SCORE.heavy>
31

>  <SCORE.norm>
2.16896

>  <RMSD>
10.392

$$$$
ligand
 OpenBabel11021811493D
libRbt.so/2013.1/901 2013/11/27
 31 33  0  0  0  0  0  0  0  0999 V2000
  -17.5563  -16.0492  -12.7265 C   0  0  2  0  0  0  0  0  0  0  0  0
  -18.7867  -16.7184  -12.9611 O   0  0  0  0  0  0  0  0  0  0  0  0
  -19.9221  -20.7381  -12.1082 C   0  0  2  0  0  0  0  0  0  0  0  0
  -20.0378  -22.1546  -12.2406 N   0  0  0  0  0  0  0  0  0  0  0  0
  -17.6645  -22.3788  -10.5612 C   0  0  2  0  0  0  0  0  0  0  0  0
  -17.8145  -14.5053  -12.9758 C   0  0  2  0  0  0  0  0  0  0  0  0
  -18.8669  -14.0363  -12.0624 N   0  0  0  0  0  0  0  0  0  0  0  0
  -20.5093  -20.0613  -13.4224 C   0  0  0  0  0  0  0  0  0  0  0  0
  -16.7168  -22.4846   -9.3207 C   0  0  2  0  0  0  0  0  0  0  0  0
  -17.3324  -21.8184   -8.2436 O   0  0  0  0  0  0  0  0  0  0  0  0
  -18.2281  -14.2689  -14.4823 C   0  0  0  0  0  0  0  0  0  0  0  0
  -20.3870  -18.4779  -13.2731 C   0  0  2  0  0  0  0  0  0  0  0  0
  -20.9332  -17.8278  -14.4841 N   0  0  0  0  0  0  0  0  0  0  0  0
  -15.3145  -21.8357   -9.6752 C   0  0  1  0  0  0  0  0  0  0  0  0
  -14.3882  -21.9249   -8.4900 N   0  0  0  0  0  0  0  0  0  0  0  0
  -17.3961  -15.1694  -15.4869 C   0  0  0  0  0  0  0  0  0  0  0  0
  -18.8600  -18.0937  -13.1010 C   0  0  2  0  0  0  0  0  0  0  0  0
  -14.6543  -22.6436  -10.9236 C   0  0  1  0  0  0  0  0  0  0  0  0
  -14.4188  -24.0081  -10.6408 O   0  0  0  0  0  0  0  0  0  0  0  0
  -16.6272  -16.1875  -15.0385 C   0  0  2  0  0  0  0  0  0  0  0  0
  -16.5146  -16.5118  -13.6489 O   0  0  0  0  0  0  0  0  0  0  0  0
  -18.2866  -18.7911  -11.8000 C   0  0  2  0  0  0  0  0  0  0  0  0
  -16.8987  -18.4466  -11.6555 O   0  0  0  0  0  0  0  0  0  0  0  0
  -15.6263  -22.5522  -12.1467 C   0  0  0  0  0  0  0  0  0  0  0  0
  -17.0156  -23.0531  -11.7562 O   0  0  0  0  0  0  0  0  0  0  0  0
  -15.8101  -17.0749  -15.9765 C   0  0  0  0  0  0  0  0  0  0  0  0
  -16.2750  -18.4253  -15.8272 O   0  0  0  0  0  0  0  0  0  0  0  0
  -18.4062  -20.3603  -11.9428 C   0  0  1  0  0  0  0  0  0  0  0  0
  -17.8964  -20.9459  -10.7571 O   0  0  0  0  0  0  0  0  0  0  0  0
  -13.2848  -22.1037  -11.3882 C   0  0  0  0  0  0  0  0  0  0  0  0
  -13.5047  -20.7642   -8.2582 C   0  0  0  0  0  0  0  0  0  0  0  0
  1  2  1  6  0  0  0
  1  6  1  0  0  0  0
  1 21  1  0  0  0  0
  3  4  1  6  0  0  0
  3  8  1  0  0  0  0
  3 28  1  0  0  0  0
  5  9  1  0  0  0  0
  5 25  1  0  0  0  0
  5 29  1  6  0  0  0
  6  7  1  1  0  0  0
  6 11  1  0  0  0  0
  8 12  1  0  0  0  0
  9 10  1  1  0  0  0
  9 14  1  0  0  0  0
 11 16  1  0  0  0  0
 12 13  1  6  0  0  0
 12 17  1  0  0  0  0
 14 15  1  1  0  0  0
 14 18  1  0  0  0  0
 15 31  1  0  0  0  0
 16 20  1  0  0  0  0
 17  2  1  1  0  0  0
 17 22  1  0  0  0  0
 18 19  1  1  0  0  0
 18 24  1  0  0  0  0
 18 30  1  0  0  0  0
 20 21  1  0  0  0  0
 20 26  1  1  0  0  0
 22 23  1  6  0  0  0
 22 28  1  0  0  0  0
 24 25  1  0  0  0  0
 26 27  1  0  0  0  0
 28 29  1  1  0  0  0
M  END
>  <CHROM.1>
166.49750766,163.10727203,-142.00626310,177.12185671,-119.28263068,70.25354457
-17.25101686,-19.39221847,-12.16306697,-1.90381110,0.18158842,2.64071780

>  <Name>
ligand

>  <RI>
0

>  <Rbt.Current_Directory>
/home/itssahil/PROJECTS/Mol_Feturizer/New_Systems/rnas/4GPW

>  <Rbt.Executable>
rbdock ($Id: //depot/dev/client3/rdock/2013.1/src/exe/rbdock.cxx#4 $)

>  <Rbt.Library>
libRbt.so (2013.1, Build901 2013/11/27)

>  <Rbt.Parameter_File>
/export/apps/rDock/src/rDock_2013.1_src/data/scripts/dock_solv.prm

>  <Rbt.Receptor>
prm/pocket_docking_7.prm

>  <SCORE>
-17.5802

>  <SCORE.INTER>
-11.0382

>  <SCORE.INTER.CONST>
1

>  <SCORE.INTER.POLAR>
0

>  <SCORE.INTER.ROT>
6

>  <SCORE.INTER.SOLV>
17.8471

>  <SCORE.INTER.VDW>
-20.9079

>  <SCORE.INTER.norm>
-0.356072

>  <SCORE.INTRA>
-6.54321

>  <SCORE.INTRA.DIHEDRAL>
-13.9863

>  <SCORE.INTRA.DIHEDRAL.0>
19.2558

>  <SCORE.INTRA.POLAR>
0

>  <SCORE.INTRA.POLAR.0>
0

>  <SCORE.INTRA.REPUL>
0

>  <SCORE.INTRA.REPUL.0>
0

>  <SCORE.INTRA.SOLV>
-2.24767

>  <SCORE.INTRA.SOLV.lig_0>
-64.5929

>  <SCORE.INTRA.VDW>
1.57377

>  <SCORE.INTRA.VDW.0>
-4.40538

>  <SCORE.INTRA.norm>
-0.211071

>  <SCORE.RESTR>
0.00127901

>  <SCORE.RESTR.CAVITY>
0.00127901

>  <SCORE.RESTR.norm>
4.12584e-05

>  <SCORE.SYSTEM>
0

>  <SCORE.SYSTEM.CONST>
0

>  <SCORE.SYSTEM.DIHEDRAL>
0

>  <SCORE.SYSTEM.SOLV>
0

>  <SCORE.SYSTEM.norm>
0

>  <SCORE.heavy>
31

>  <SCORE.norm>
-0.567102

>  <RMSD>
10.427

$$$$
ligand
 OpenBabel11021811493D
libRbt.so/2013.1/901 2013/11/27
 31 33  0  0  0  0  0  0  0  0999 V2000
  -20.6629  -18.8620  -12.7477 C   0  0  2  0  0  0  0  0  0  0  0  0
  -19.4678  -19.6278  -12.7036 O   0  0  0  0  0  0  0  0  0  0  0  0
  -17.5121  -21.6948   -9.5292 C   0  0  2  0  0  0  0  0  0  0  0  0
  -16.7570  -21.9145   -8.3381 N   0  0  0  0  0  0  0  0  0  0  0  0
  -20.5821  -22.6387   -8.6850 C   0  0  2  0  0  0  0  0  0  0  0  0
  -20.8698  -18.4134  -14.2538 C   0  0  2  0  0  0  0  0  0  0  0  0
  -20.9619  -19.6075  -15.1068 N   0  0  0  0  0  0  0  0  0  0  0  0
  -16.6100  -20.8760  -10.5518 C   0  0  0  0  0  0  0  0  0  0  0  0
  -19.7379  -23.9193   -8.9938 C   0  0  2  0  0  0  0  0  0  0  0  0
  -18.9756  -24.2253   -7.8501 O   0  0  0  0  0  0  0  0  0  0  0  0
  -19.6712  -17.4882  -14.7055 C   0  0  0  0  0  0  0  0  0  0  0  0
  -17.4502  -20.6355  -11.8862 C   0  0  2  0  0  0  0  0  0  0  0  0
  -16.6267  -19.8792  -12.8543 N   0  0  0  0  0  0  0  0  0  0  0  0
  -18.8099  -23.6455  -10.2497 C   0  0  1  0  0  0  0  0  0  0  0  0
  -17.9855  -24.8679  -10.5606 N   0  0  0  0  0  0  0  0  0  0  0  0
  -19.2225  -16.4803  -13.5674 C   0  0  0  0  0  0  0  0  0  0  0  0
  -18.7543  -19.8093  -11.5313 C   0  0  2  0  0  0  0  0  0  0  0  0
  -19.7437  -23.2970  -11.5357 C   0  0  1  0  0  0  0  0  0  0  0  0
  -20.6183  -24.3492  -11.8895 O   0  0  0  0  0  0  0  0  0  0  0  0
  -19.6671  -16.6184  -12.2978 C   0  0  2  0  0  0  0  0  0  0  0  0
  -20.5600  -17.6661  -11.9055 O   0  0  0  0  0  0  0  0  0  0  0  0
  -19.6303  -20.6295  -10.4981 C   0  0  2  0  0  0  0  0  0  0  0  0
  -20.8064  -19.8700  -10.1728 O   0  0  0  0  0  0  0  0  0  0  0  0
  -20.6015  -22.0316  -11.2008 C   0  0  0  0  0  0  0  0  0  0  0  0
  -21.3896  -22.2537   -9.9112 O   0  0  0  0  0  0  0  0  0  0  0  0
  -19.2580  -15.6653  -11.1757 C   0  0  0  0  0  0  0  0  0  0  0  0
  -19.2502  -16.4055   -9.9452 O   0  0  0  0  0  0  0  0  0  0  0  0
  -18.8019  -20.8710   -9.1743 C   0  0  1  0  0  0  0  0  0  0  0  0
  -19.6128  -21.6169   -8.2828 O   0  0  0  0  0  0  0  0  0  0  0  0
  -18.9649  -22.9898  -12.8327 C   0  0  0  0  0  0  0  0  0  0  0  0
  -16.5742  -24.6323  -10.9275 C   0  0  0  0  0  0  0  0  0  0  0  0
  1  2  1  6  0  0  0
  1  6  1  0  0  0  0
  1 21  1  0  0  0  0
  3  4  1  1  0  0  0
  3  8  1  0  0  0  0
  3 28  1  0  0  0  0
  5  9  1  0  0  0  0
  5 25  1  0  0  0  0
  5 29  1  6  0  0  0
  6  7  1  6  0  0  0
  6 11  1  0  0  0  0
  8 12  1  0  0  0  0
  9 10  1  1  0  0  0
  9 14  1  0  0  0  0
 11 16  1  0  0  0  0
 12 13  1  6  0  0  0
 12 17  1  0  0  0  0
 14 15  1  6  0  0  0
 14 18  1  0  0  0  0
 15 31  1  0  0  0  0
 16 20  1  0  0  0  0
 17  2  1  6  0  0  0
 17 22  1  0  0  0  0
 18 19  1  6  0  0  0
 18 24  1  0  0  0  0
 18 30  1  0  0  0  0
 20 21  1  0  0  0  0
 20 26  1  6  0  0  0
 22 23  1  1  0  0  0
 22 28  1  0  0  0  0
 24 25  1  0  0  0  0
 26 27  1  0  0  0  0
 28 29  1  1  0  0  0
M  END
>  <CHROM.1>
158.48110637,78.63037487,-138.57832476,-176.67763681,-149.24840599,-84.28238969
-19.24989323,-20.76083683,-11.13540610,2.09098475,-1.28992535,0.03604649

>  <Name>
ligand

>  <RI>
0

>  <Rbt.Current_Directory>
/home/itssahil/PROJECTS/Mol_Feturizer/New_Systems/rnas/4GPW

>  <Rbt.Executable>
rbdock ($Id: //depot/dev/client3/rdock/2013.1/src/exe/rbdock.cxx#4 $)

>  <Rbt.Library>
libRbt.so (2013.1, Build901 2013/11/27)

>  <Rbt.Parameter_File>
/export/apps/rDock/src/rDock_2013.1_src/data/scripts/dock_solv.prm

>  <Rbt.Receptor>
prm/blind_docking_100.prm

>  <SCORE>
79.9362

>  <SCORE.INTER>
34.423

>  <SCORE.INTER.CONST>
1

>  <SCORE.INTER.POLAR>
0

>  <SCORE.INTER.ROT>
6

>  <SCORE.INTER.SOLV>
27.4354

>  <SCORE.INTER.VDW>
6.20354

>  <SCORE.INTER.norm>
1.11042

>  <SCORE.INTRA>
32.9288

>  <SCORE.INTRA.DIHEDRAL>
-9.47827

>  <SCORE.INTRA.DIHEDRAL.0>
19.2558

>  <SCORE.INTRA.POLAR>
0

>  <SCORE.INTRA.POLAR.0>
0

>  <SCORE.INTRA.REPUL>
0

>  <SCORE.INTRA.REPUL.0>
0

>  <SCORE.INTRA.SOLV>
3.10346

>  <SCORE.INTRA.SOLV.lig_0>
-64.5929

>  <SCORE.INTRA.VDW>
36.1162

>  <SCORE.INTRA.VDW.0>
-4.40538

>  <SCORE.INTRA.norm>
1.06222

>  <SCORE.RESTR>
12.5844

>  <SCORE.RESTR.CAVITY>
12.5844

>  <SCORE.RESTR.norm>
0.405948

>  <SCORE.SYSTEM>
0

>  <SCORE.SYSTEM.CONST>
0

>  <SCORE.SYSTEM.DIHEDRAL>
0

>  <SCORE.SYSTEM.SOLV>
0

>  <SCORE.SYSTEM.norm>
0

>  <SCORE.heavy>
31

>  <SCORE.norm>
2.57859

>  <RMSD>
10.430

$$$$
ligand
 OpenBabel11021811493D
libRbt.so/2013.1/901 2013/11/27
 31 33  0  0  0  0  0  0  0  0999 V2000
  -18.8830  -17.7884  -12.8970 C   0  0  2  0  0  0  0  0  0  0  0  0
  -19.1561  -18.4842  -11.6896 O   0  0  0  0  0  0  0  0  0  0  0  0
  -17.1215  -22.0143  -10.4356 C   0  0  2  0  0  0  0  0  0  0  0  0
  -16.1398  -22.8481   -9.8204 N   0  0  0  0  0  0  0  0  0  0  0  0
  -19.8479  -22.5349   -8.6024 C   0  0  2  0  0  0  0  0  0  0  0  0
  -19.4218  -16.3094  -12.7108 C   0  0  2  0  0  0  0  0  0  0  0  0
  -18.7438  -15.6874  -11.5640 N   0  0  0  0  0  0  0  0  0  0  0  0
  -16.3900  -21.0650  -11.4814 C   0  0  0  0  0  0  0  0  0  0  0  0
  -19.6528  -23.9838   -9.1598 C   0  0  2  0  0  0  0  0  0  0  0  0
  -18.8414  -24.6939   -8.2542 O   0  0  0  0  0  0  0  0  0  0  0  0
  -20.9870  -16.3338  -12.4959 C   0  0  0  0  0  0  0  0  0  0  0  0
  -17.4868  -20.1372  -12.1747 C   0  0  2  0  0  0  0  0  0  0  0  0
  -16.8276  -19.2488  -13.1563 N   0  0  0  0  0  0  0  0  0  0  0  0
  -18.9854  -23.9079  -10.5957 C   0  0  1  0  0  0  0  0  0  0  0  0
  -18.7860  -25.2955  -11.1481 N   0  0  0  0  0  0  0  0  0  0  0  0
  -21.7090  -17.3959  -13.4249 C   0  0  0  0  0  0  0  0  0  0  0  0
  -18.2033  -19.2675  -11.0613 C   0  0  2  0  0  0  0  0  0  0  0  0
  -19.9648  -23.0772  -11.5948 C   0  0  1  0  0  0  0  0  0  0  0  0
  -21.2322  -23.6803  -11.7594 O   0  0  0  0  0  0  0  0  0  0  0  0
  -20.9995  -18.3243  -14.1056 C   0  0  2  0  0  0  0  0  0  0  0  0
  -19.5722  -18.4056  -14.0345 O   0  0  0  0  0  0  0  0  0  0  0  0
  -18.9090  -20.2279  -10.0185 C   0  0  2  0  0  0  0  0  0  0  0  0
  -19.5482  -19.4329   -9.0060 O   0  0  0  0  0  0  0  0  0  0  0  0
  -20.1723  -21.6409  -11.0093 C   0  0  0  0  0  0  0  0  0  0  0  0
  -20.6870  -21.7248   -9.5736 O   0  0  0  0  0  0  0  0  0  0  0  0
  -21.6606  -19.3619  -15.0118 C   0  0  0  0  0  0  0  0  0  0  0  0
  -21.0666  -19.2561  -16.3149 O   0  0  0  0  0  0  0  0  0  0  0  0
  -17.8264  -21.1499   -9.3292 C   0  0  1  0  0  0  0  0  0  0  0  0
  -18.4968  -22.0009   -8.4155 O   0  0  0  0  0  0  0  0  0  0  0  0
  -19.4270  -22.9105  -13.0322 C   0  0  0  0  0  0  0  0  0  0  0  0
  -17.3882  -25.7512  -11.2905 C   0  0  0  0  0  0  0  0  0  0  0  0
  1  2  1  1  0  0  0
  1  6  1  0  0  0  0
  1 21  1  0  0  0  0
  3  4  1  1  0  0  0
  3  8  1  0  0  0  0
  3 28  1  0  0  0  0
  5  9  1  0  0  0  0
  5 25  1  0  0  0  0
  5 29  1  6  0  0  0
  6  7  1  1  0  0  0
  6 11  1  0  0  0  0
  8 12  1  0  0  0  0
  9 10  1  1  0  0  0
  9 14  1  0  0  0  0
 11 16  1  0  0  0  0
 12 13  1  6  0  0  0
 12 17  1  0  0  0  0
 14 15  1  6  0  0  0
 14 18  1  0  0  0  0
 15 31  1  0  0  0  0
 16 20  1  0  0  0  0
 17  2  1  6  0  0  0
 17 22  1  0  0  0  0
 18 19  1  6  0  0  0
 18 24  1  0  0  0  0
 18 30  1  0  0  0  0
 20 21  1  0  0  0  0
 20 26  1  6  0  0  0
 22 23  1  1  0  0  0
 22 28  1  0  0  0  0
 24 25  1  0  0  0  0
 26 27  1  0  0  0  0
 28 29  1  1  0  0  0
M  END
>  <CHROM.1>
-133.08920690,98.28984213,-112.22617554,-44.46318518,124.74826610,-84.87485686
-19.19042307,-20.79129946,-11.45924463,-1.97237047,1.02512295,2.96562107

>  <Name>
ligand

>  <RI>
0

>  <Rbt.Current_Directory>
/home/itssahil/PROJECTS/Mol_Feturizer/New_Systems/rnas/4GPW

>  <Rbt.Executable>
rbdock ($Id: //depot/dev/client3/rdock/2013.1/src/exe/rbdock.cxx#4 $)

>  <Rbt.Library>
libRbt.so (2013.1, Build901 2013/11/27)

>  <Rbt.Parameter_File>
/export/apps/rDock/src/rDock_2013.1_src/data/scripts/dock_solv.prm

>  <Rbt.Receptor>
prm/blind_docking_100.prm

>  <SCORE>
54.7646

>  <SCORE.INTER>
13.3118

>  <SCORE.INTER.CONST>
1

>  <SCORE.INTER.POLAR>
0

>  <SCORE.INTER.ROT>
6

>  <SCORE.INTER.SOLV>
23.4672

>  <SCORE.INTER.VDW>
-6.54783

>  <SCORE.INTER.norm>
0.429414

>  <SCORE.INTRA>
25.9745

>  <SCORE.INTRA.DIHEDRAL>
-1.11976

>  <SCORE.INTRA.DIHEDRAL.0>
19.2558

>  <SCORE.INTRA.POLAR>
0

>  <SCORE.INTRA.POLAR.0>
0

>  <SCORE.INTRA.REPUL>
0

>  <SCORE.INTRA.REPUL.0>
0

>  <SCORE.INTRA.SOLV>
3.5236

>  <SCORE.INTRA.SOLV.lig_0>
-64.5929

>  <SCORE.INTRA.VDW>
24.7726

>  <SCORE.INTRA.VDW.0>
-4.40538

>  <SCORE.INTRA.norm>
0.837887

>  <SCORE.RESTR>
15.4783

>  <SCORE.RESTR.CAVITY>
15.4783

>  <SCORE.RESTR.norm>
0.4993

>  <SCORE.SYSTEM>
0

>  <SCORE.SYSTEM.CONST>
0

>  <SCORE.SYSTEM.DIHEDRAL>
0

>  <SCORE.SYSTEM.SOLV>
0

>  <SCORE.SYSTEM.norm>
0

>  <SCORE.heavy>
31

>  <SCORE.norm>
1.7666

>  <RMSD>
10.448

$$$$
ligand
 OpenBabel11021811493D
libRbt.so/2013.1/901 2013/11/27
 31 33  0  0  0  0  0  0  0  0999 V2000
  -17.1582  -18.5750  -12.5423 C   0  0  2  0  0  0  0  0  0  0  0  0
  -16.8352  -18.9752  -11.2186 O   0  0  0  0  0  0  0  0  0  0  0  0
  -16.9508  -23.2168  -11.6301 C   0  0  2  0  0  0  0  0  0  0  0  0
  -16.8242  -24.5992  -11.2979 N   0  0  0  0  0  0  0  0  0  0  0  0
  -19.7984  -24.2541  -10.0410 C   0  0  2  0  0  0  0  0  0  0  0  0
  -17.6187  -17.0601  -12.4684 C   0  0  2  0  0  0  0  0  0  0  0  0
  -16.5270  -16.2486  -11.9103 N   0  0  0  0  0  0  0  0  0  0  0  0
  -15.5302  -22.5247  -11.4490 C   0  0  0  0  0  0  0  0  0  0  0  0
  -21.3360  -23.9864   -9.9299 C   0  0  2  0  0  0  0  0  0  0  0  0
  -21.8570  -23.8887  -11.2344 O   0  0  0  0  0  0  0  0  0  0  0  0
  -18.9213  -16.9400  -11.5823 C   0  0  0  0  0  0  0  0  0  0  0  0
  -15.6684  -20.9811  -11.8265 C   0  0  2  0  0  0  0  0  0  0  0  0
  -14.3554  -20.3187  -11.6699 N   0  0  0  0  0  0  0  0  0  0  0  0
  -21.5780  -22.6513   -9.1102 C   0  0  1  0  0  0  0  0  0  0  0  0
  -23.0548  -22.3745   -8.9955 N   0  0  0  0  0  0  0  0  0  0  0  0
  -19.9368  -18.1306  -11.8344 C   0  0  0  0  0  0  0  0  0  0  0  0
  -16.7271  -20.3077  -10.8595 C   0  0  2  0  0  0  0  0  0  0  0  0
  -20.9553  -22.8230   -7.6169 C   0  0  1  0  0  0  0  0  0  0  0  0
  -21.5522  -23.8728   -6.8827 O   0  0  0  0  0  0  0  0  0  0  0  0
  -19.5672  -19.2265  -12.5352 C   0  0  2  0  0  0  0  0  0  0  0  0
  -18.2559  -19.3793  -13.0884 O   0  0  0  0  0  0  0  0  0  0  0  0
  -18.1295  -21.0212  -11.0382 C   0  0  2  0  0  0  0  0  0  0  0  0
  -19.0825  -20.4124  -10.1511 O   0  0  0  0  0  0  0  0  0  0  0  0
  -19.4238  -23.1177   -7.7461 C   0  0  0  0  0  0  0  0  0  0  0  0
  -19.1929  -24.3265   -8.6511 O   0  0  0  0  0  0  0  0  0  0  0  0
  -20.5191  -20.3921  -12.7999 C   0  0  0  0  0  0  0  0  0  0  0  0
  -20.2938  -20.8535  -14.1410 O   0  0  0  0  0  0  0  0  0  0  0  0
  -17.9976  -22.5513  -10.6660 C   0  0  1  0  0  0  0  0  0  0  0  0
  -19.2662  -23.1556  -10.8507 O   0  0  0  0  0  0  0  0  0  0  0  0
  -21.1061  -21.5831   -6.7097 C   0  0  0  0  0  0  0  0  0  0  0  0
  -23.7693  -22.0890  -10.2564 C   0  0  0  0  0  0  0  0  0  0  0  0
  1  2  1  1  0  0  0
  1  6  1  0  0  0  0
  1 21  1  0  0  0  0
  3  4  1  1  0  0  0
  3  8  1  0  0  0  0
  3 28  1  0  0  0  0
  5  9  1  0  0  0  0
  5 25  1  0  0  0  0
  5 29  1  6  0  0  0
  6  7  1  1  0  0  0
  6 11  1  0  0  0  0
  8 12  1  0  0  0  0
  9 10  1  6  0  0  0
  9 14  1  0  0  0  0
 11 16  1  0  0  0  0
 12 13  1  1  0  0  0
 12 17  1  0  0  0  0
 14 15  1  1  0  0  0
 14 18  1  0  0  0  0
 15 31  1  0  0  0  0
 16 20  1  0  0  0  0
 17  2  1  6  0  0  0
 17 22  1  0  0  0  0
 18 19  1  1  0  0  0
 18 24  1  0  0  0  0
 18 30  1  0  0  0  0
 20 21  1  0  0  0  0
 20 26  1  6  0  0  0
 22 23  1  1  0  0  0
 22 28  1  0  0  0  0
 24 25  1  0  0  0  0
 26 27  1  0  0  0  0
 28 29  1  6  0  0  0
M  END
>  <CHROM.1>
163.11490390,144.62981290,-64.84971923,55.45343869,140.75759714,95.29278581
-19.06653290,-21.30188260,-10.72834087,0.92639037,0.24145585,-0.45291546

>  <Name>
ligand

>  <RI>
0

>  <Rbt.Current_Directory>
/home/itssahil/PROJECTS/Mol_Feturizer/New_Systems/rnas/4GPW

>  <Rbt.Executable>
rbdock ($Id: //depot/dev/client3/rdock/2013.1/src/exe/rbdock.cxx#4 $)

>  <Rbt.Library>
libRbt.so (2013.1, Build901 2013/11/27)

>  <Rbt.Parameter_File>
/export/apps/rDock/src/rDock_2013.1_src/data/scripts/dock_solv.prm

>  <Rbt.Receptor>
prm/blind_docking_60.prm

>  <SCORE>
30.296

>  <SCORE.INTER>
9.7979

>  <SCORE.INTER.CONST>
1

>  <SCORE.INTER.POLAR>
0

>  <SCORE.INTER.ROT>
6

>  <SCORE.INTER.SOLV>
24.86

>  <SCORE.INTER.VDW>
-9.35472

>  <SCORE.INTER.norm>
0.316061

>  <SCORE.INTRA>
1.17275

>  <SCORE.INTRA.DIHEDRAL>
-6.43675

>  <SCORE.INTRA.DIHEDRAL.0>
19.2558

>  <SCORE.INTRA.POLAR>
0

>  <SCORE.INTRA.POLAR.0>
0

>  <SCORE.INTRA.REPUL>
0

>  <SCORE.INTRA.REPUL.0>
0

>  <SCORE.INTRA.SOLV>
-1.11712

>  <SCORE.INTRA.SOLV.lig_0>
-64.5929

>  <SCORE.INTRA.VDW>
4.94968

>  <SCORE.INTRA.VDW.0>
-4.40538

>  <SCORE.INTRA.norm>
0.0378306

>  <SCORE.RESTR>
19.3253

>  <SCORE.RESTR.CAVITY>
19.3253

>  <SCORE.RESTR.norm>
0.623398

>  <SCORE.SYSTEM>
0

>  <SCORE.SYSTEM.CONST>
0

>  <SCORE.SYSTEM.DIHEDRAL>
0

>  <SCORE.SYSTEM.SOLV>
0

>  <SCORE.SYSTEM.norm>
0

>  <SCORE.heavy>
31

>  <SCORE.norm>
0.97729

>  <RMSD>
10.467

$$$$
ligand
 OpenBabel11021811493D
libRbt.so/2013.1/901 2013/11/27
 31 33  0  0  0  0  0  0  0  0999 V2000
  -17.9574  -16.5587  -13.3049 C   0  0  2  0  0  0  0  0  0  0  0  0
  -17.6174  -17.1468  -12.0579 O   0  0  0  0  0  0  0  0  0  0  0  0
  -18.2504  -20.6001   -9.6394 C   0  0  2  0  0  0  0  0  0  0  0  0
  -18.8522  -21.7941   -9.1399 N   0  0  0  0  0  0  0  0  0  0  0  0
  -16.8562  -22.9560  -12.1686 C   0  0  2  0  0  0  0  0  0  0  0  0
  -18.7112  -15.2013  -12.9861 C   0  0  2  0  0  0  0  0  0  0  0  0
  -17.8262  -14.3284  -12.2008 N   0  0  0  0  0  0  0  0  0  0  0  0
  -19.3195  -19.4254   -9.5547 C   0  0  0  0  0  0  0  0  0  0  0  0
  -18.3622  -23.3281  -12.3731 C   0  0  2  0  0  0  0  0  0  0  0  0
  -19.0485  -22.1652  -12.7721 O   0  0  0  0  0  0  0  0  0  0  0  0
  -20.0479  -15.5040  -12.1998 C   0  0  0  0  0  0  0  0  0  0  0  0
  -18.6463  -18.0887  -10.1064 C   0  0  2  0  0  0  0  0  0  0  0  0
  -19.6233  -16.9808  -10.0314 N   0  0  0  0  0  0  0  0  0  0  0  0
  -18.9477  -23.9078  -11.0187 C   0  0  1  0  0  0  0  0  0  0  0  0
  -20.3999  -24.2691  -11.1951 N   0  0  0  0  0  0  0  0  0  0  0  0
  -20.7962  -16.7883  -12.7503 C   0  0  0  0  0  0  0  0  0  0  0  0
  -18.2086  -18.3163  -11.6116 C   0  0  2  0  0  0  0  0  0  0  0  0
  -18.1166  -25.2452  -10.6086 C   0  0  1  0  0  0  0  0  0  0  0  0
  -18.2083  -26.2744  -11.5727 O   0  0  0  0  0  0  0  0  0  0  0  0
  -20.1880  -17.6348  -13.6119 C   0  0  2  0  0  0  0  0  0  0  0  0
  -18.8503  -17.4280  -14.0775 O   0  0  0  0  0  0  0  0  0  0  0  0
  -17.1600  -19.5010  -11.6799 C   0  0  2  0  0  0  0  0  0  0  0  0
  -16.7749  -19.7088  -13.0490 O   0  0  0  0  0  0  0  0  0  0  0  0
  -16.6092  -24.8620  -10.4354 C   0  0  0  0  0  0  0  0  0  0  0  0
  -16.0892  -24.1785  -11.6986 O   0  0  0  0  0  0  0  0  0  0  0  0
  -20.8784  -18.8807  -14.1649 C   0  0  0  0  0  0  0  0  0  0  0  0
  -20.9161  -18.7691  -15.5961 O   0  0  0  0  0  0  0  0  0  0  0  0
  -17.8222  -20.8278  -11.1337 C   0  0  1  0  0  0  0  0  0  0  0  0
  -16.8513  -21.8582  -11.1989 O   0  0  0  0  0  0  0  0  0  0  0  0
  -18.5729  -25.9083   -9.2914 C   0  0  0  0  0  0  0  0  0  0  0  0
  -21.3774  -23.1819  -10.9850 C   0  0  0  0  0  0  0  0  0  0  0  0
  1  2  1  1  0  0  0
  1  6  1  0  0  0  0
  1 21  1  0  0  0  0
  3  4  1  6  0  0  0
  3  8  1  0  0  0  0
  3 28  1  0  0  0  0
  5  9  1  0  0  0  0
  5 25  1  0  0  0  0
  5 29  1  1  0  0  0
  6  7  1  1  0  0  0
  6 11  1  0  0  0  0
  8 12  1  0  0  0  0
  9 10  1  1  0  0  0
  9 14  1  0  0  0  0
 11 16  1  0  0  0  0
 12 13  1  6  0  0  0
 12 17  1  0  0  0  0
 14 15  1  6  0  0  0
 14 18  1  0  0  0  0
 15 31  1  0  0  0  0
 16 20  1  0  0  0  0
 17  2  1  1  0  0  0
 17 22  1  0  0  0  0
 18 19  1  6  0  0  0
 18 24  1  0  0  0  0
 18 30  1  0  0  0  0
 20 21  1  0  0  0  0
 20 26  1  6  0  0  0
 22 23  1  6  0  0  0
 22 28  1  0  0  0  0
 24 25  1  0  0  0  0
 26 27  1  0  0  0  0
 28 29  1  1  0  0  0
M  END
>  <CHROM.1>
111.76340628,-36.58640737,-86.18308258,-132.71902916,120.61236785,134.90805315
-18.63752276,-20.40860332,-11.78204158,-1.74181842,0.83490963,3.04209325

>  <Name>
ligand

>  <RI>
0

>  <Rbt.Current_Directory>
/home/itssahil/PROJECTS/Mol_Feturizer/New_Systems/rnas/4GPW

>  <Rbt.Executable>
rbdock ($Id: //depot/dev/client3/rdock/2013.1/src/exe/rbdock.cxx#4 $)

>  <Rbt.Library>
libRbt.so (2013.1, Build901 2013/11/27)

>  <Rbt.Parameter_File>
/export/apps/rDock/src/rDock_2013.1_src/data/scripts/dock_solv.prm

>  <Rbt.Receptor>
prm/blind_docking_100.prm

>  <SCORE>
39.6184

>  <SCORE.INTER>
8.90051

>  <SCORE.INTER.CONST>
1

>  <SCORE.INTER.POLAR>
0

>  <SCORE.INTER.ROT>
6

>  <SCORE.INTER.SOLV>
21.8525

>  <SCORE.INTER.VDW>
-8.95051

>  <SCORE.INTER.norm>
0.287113

>  <SCORE.INTRA>
10.6976

>  <SCORE.INTRA.DIHEDRAL>
4.73313

>  <SCORE.INTRA.DIHEDRAL.0>
19.2558

>  <SCORE.INTRA.POLAR>
0

>  <SCORE.INTRA.POLAR.0>
0

>  <SCORE.INTRA.REPUL>
0

>  <SCORE.INTRA.REPUL.0>
0

>  <SCORE.INTRA.SOLV>
6.05876

>  <SCORE.INTRA.SOLV.lig_0>
-64.5929

>  <SCORE.INTRA.VDW>
5.30161

>  <SCORE.INTRA.VDW.0>
-4.40538

>  <SCORE.INTRA.norm>
0.345082

>  <SCORE.RESTR>
20.0203

>  <SCORE.RESTR.CAVITY>
20.0203

>  <SCORE.RESTR.norm>
0.645817

>  <SCORE.SYSTEM>
0

>  <SCORE.SYSTEM.CONST>
0

>  <SCORE.SYSTEM.DIHEDRAL>
0

>  <SCORE.SYSTEM.SOLV>
0

>  <SCORE.SYSTEM.norm>
0

>  <SCORE.heavy>
31

>  <SCORE.norm>
1.27801

>  <RMSD>
10.570

$$$$
ligand
 OpenBabel11021811493D
libRbt.so/2013.1/901 2013/11/27
 31 33  0  0  0  0  0  0  0  0999 V2000
  -17.2339  -16.2859  -12.8915 C   0  0  2  0  0  0  0  0  0  0  0  0
  -18.5077  -16.8869  -13.0729 O   0  0  0  0  0  0  0  0  0  0  0  0
  -19.7919  -20.8151  -12.0265 C   0  0  2  0  0  0  0  0  0  0  0  0
  -19.9939  -22.2255  -12.1104 N   0  0  0  0  0  0  0  0  0  0  0  0
  -17.5182  -22.5430  -10.6052 C   0  0  2  0  0  0  0  0  0  0  0  0
  -17.4217  -14.7277  -13.1128 C   0  0  2  0  0  0  0  0  0  0  0  0
  -18.4030  -14.2156  -12.1451 N   0  0  0  0  0  0  0  0  0  0  0  0
  -20.4391  -20.1377  -13.3119 C   0  0  0  0  0  0  0  0  0  0  0  0
  -16.4835  -22.6731   -9.4387 C   0  0  2  0  0  0  0  0  0  0  0  0
  -16.9743  -21.9461   -8.3372 O   0  0  0  0  0  0  0  0  0  0  0  0
  -17.8936  -14.4513  -14.5952 C   0  0  0  0  0  0  0  0  0  0  0  0
  -20.2202  -18.5606  -13.2163 C   0  0  2  0  0  0  0  0  0  0  0  0
  -20.8202  -17.9097  -14.4011 N   0  0  0  0  0  0  0  0  0  0  0  0
  -15.0792  -22.1157   -9.9187 C   0  0  1  0  0  0  0  0  0  0  0  0
  -14.0692  -22.2295   -8.8062 N   0  0  0  0  0  0  0  0  0  0  0  0
  -17.1592  -15.3817  -15.6476 C   0  0  0  0  0  0  0  0  0  0  0  0
  -18.6659  -18.2588  -13.1687 C   0  0  2  0  0  0  0  0  0  0  0  0
  -14.5653  -22.9911  -11.1903 C   0  0  1  0  0  0  0  0  0  0  0  0
  -14.3851  -24.3596  -10.8870 O   0  0  0  0  0  0  0  0  0  0  0  0
  -16.4247  -16.4441  -15.2469 C   0  0  2  0  0  0  0  0  0  0  0  0
  -16.2633  -16.7910  -13.8676 O   0  0  0  0  0  0  0  0  0  0  0  0
  -18.0345  -18.9563  -11.8948 C   0  0  2  0  0  0  0  0  0  0  0  0
  -16.6230  -18.6871  -11.8633 O   0  0  0  0  0  0  0  0  0  0  0  0
  -15.6236  -22.8734  -12.3371 C   0  0  0  0  0  0  0  0  0  0  0  0
  -17.0038  -23.2830  -11.8264 O   0  0  0  0  0  0  0  0  0  0  0  0
  -15.7013  -17.3613  -16.2319 C   0  0  0  0  0  0  0  0  0  0  0  0
  -16.0722  -18.7158  -15.9318 O   0  0  0  0  0  0  0  0  0  0  0  0
  -18.2495  -20.5193  -11.9846 C   0  0  1  0  0  0  0  0  0  0  0  0
  -17.6841  -21.1042  -10.8241 O   0  0  0  0  0  0  0  0  0  0  0  0
  -13.2083  -22.5432  -11.7742 C   0  0  0  0  0  0  0  0  0  0  0  0
  -13.6156  -20.9618   -8.1988 C   0  0  0  0  0  0  0  0  0  0  0  0
  1  2  1  6  0  0  0
  1  6  1  0  0  0  0
  1 21  1  0  0  0  0
  3  4  1  6  0  0  0
  3  8  1  0  0  0  0
  3 28  1  0  0  0  0
  5  9  1  0  0  0  0
  5 25  1  0  0  0  0
  5 29  1  6  0  0  0
  6  7  1  1  0  0  0
  6 11  1  0  0  0  0
  8 12  1  0  0  0  0
  9 10  1  1  0  0  0
  9 14  1  0  0  0  0
 11 16  1  0  0  0  0
 12 13  1  6  0  0  0
 12 17  1  0  0  0  0
 14 15  1  1  0  0  0
 14 18  1  0  0  0  0
 15 31  1  0  0  0  0
 16 20  1  0  0  0  0
 17  2  1  1  0  0  0
 17 22  1  0  0  0  0
 18 19  1  1  0  0  0
 18 24  1  0  0  0  0
 18 30  1  0  0  0  0
 20 21  1  0  0  0  0
 20 26  1  1  0  0  0
 22 23  1  6  0  0  0
 22 28  1  0  0  0  0
 24 25  1  0  0  0  0
 26 27  1  0  0  0  0
 28 29  1  1  0  0  0
M  END
>  <CHROM.1>
169.15916284,162.98536993,-110.64411811,174.36649420,-128.25170668,70.14848437
-17.06455022,-19.60463022,-12.27675327,-1.87791845,0.09360309,2.61893303

>  <Name>
ligand

>  <RI>
0

>  <Rbt.Current_Directory>
/home/itssahil/PROJECTS/Mol_Feturizer/New_Systems/rnas/4GPW

>  <Rbt.Executable>
rbdock ($Id: //depot/dev/client3/rdock/2013.1/src/exe/rbdock.cxx#4 $)

>  <Rbt.Library>
libRbt.so (2013.1, Build901 2013/11/27)

>  <Rbt.Parameter_File>
/export/apps/rDock/src/rDock_2013.1_src/data/scripts/dock_solv.prm

>  <Rbt.Receptor>
prm/pocket_docking_8.prm

>  <SCORE>
-18.0641

>  <SCORE.INTER>
-11.5341

>  <SCORE.INTER.CONST>
1

>  <SCORE.INTER.POLAR>
0

>  <SCORE.INTER.ROT>
6

>  <SCORE.INTER.SOLV>
18.3187

>  <SCORE.INTER.VDW>
-21.3956

>  <SCORE.INTER.norm>
-0.372067

>  <SCORE.INTRA>
-6.53005

>  <SCORE.INTRA.DIHEDRAL>
-13.7883

>  <SCORE.INTRA.DIHEDRAL.0>
19.2558

>  <SCORE.INTRA.POLAR>
0

>  <SCORE.INTRA.POLAR.0>
0

>  <SCORE.INTRA.REPUL>
0

>  <SCORE.INTRA.REPUL.0>
0

>  <SCORE.INTRA.SOLV>
-2.25546

>  <SCORE.INTRA.SOLV.lig_0>
-64.5929

>  <SCORE.INTRA.VDW>
1.49183

>  <SCORE.INTRA.VDW.0>
-4.40538

>  <SCORE.INTRA.norm>
-0.210647

>  <SCORE.RESTR>
0

>  <SCORE.RESTR.CAVITY>
0

>  <SCORE.RESTR.norm>
0

>  <SCORE.SYSTEM>
0

>  <SCORE.SYSTEM.CONST>
0

>  <SCORE.SYSTEM.DIHEDRAL>
0

>  <SCORE.SYSTEM.SOLV>
0

>  <SCORE.SYSTEM.norm>
0

>  <SCORE.heavy>
31

>  <SCORE.norm>
-0.582714

>  <RMSD>
10.595

$$$$
ligand
 OpenBabel11021811493D
libRbt.so/2013.1/901 2013/11/27
 31 33  0  0  0  0  0  0  0  0999 V2000
  -18.9883  -17.6929  -11.0935 C   0  0  2  0  0  0  0  0  0  0  0  0
  -19.9703  -18.5669  -11.6307 O   0  0  0  0  0  0  0  0  0  0  0  0
  -20.7633  -22.7509  -11.8297 C   0  0  2  0  0  0  0  0  0  0  0  0
  -20.5512  -24.1462  -12.0428 N   0  0  0  0  0  0  0  0  0  0  0  0
  -19.1642  -23.8372   -8.8031 C   0  0  2  0  0  0  0  0  0  0  0  0
  -18.7082  -16.5824  -12.1892 C   0  0  2  0  0  0  0  0  0  0  0  0
  -19.9593  -15.8702  -12.4882 N   0  0  0  0  0  0  0  0  0  0  0  0
  -20.4650  -21.9839  -13.1909 C   0  0  0  0  0  0  0  0  0  0  0  0
  -17.9021  -22.9860   -8.4416 C   0  0  2  0  0  0  0  0  0  0  0  0
  -18.3265  -21.8760   -7.6862 O   0  0  0  0  0  0  0  0  0  0  0  0
  -18.1157  -17.2534  -13.4912 C   0  0  0  0  0  0  0  0  0  0  0  0
  -20.7082  -20.4251  -12.9562 C   0  0  2  0  0  0  0  0  0  0  0  0
  -20.4412  -19.6927  -14.2131 N   0  0  0  0  0  0  0  0  0  0  0  0
  -17.1758  -22.5324   -9.7757 C   0  0  1  0  0  0  0  0  0  0  0  0
  -15.9583  -21.7074   -9.4477 N   0  0  0  0  0  0  0  0  0  0  0  0
  -17.0809  -18.4075  -13.1600 C   0  0  0  0  0  0  0  0  0  0  0  0
  -19.7277  -19.9165  -11.8209 C   0  0  2  0  0  0  0  0  0  0  0  0
  -16.7112  -23.8533  -10.6045 C   0  0  1  0  0  0  0  0  0  0  0  0
  -15.7990  -24.6644   -9.8923 O   0  0  0  0  0  0  0  0  0  0  0  0
  -16.9573  -18.8949  -11.9046 C   0  0  2  0  0  0  0  0  0  0  0  0
  -17.7391  -18.4063  -10.8097 O   0  0  0  0  0  0  0  0  0  0  0  0
  -20.0248  -20.7036  -10.4793 C   0  0  2  0  0  0  0  0  0  0  0  0
  -19.1252  -20.2446   -9.4566 O   0  0  0  0  0  0  0  0  0  0  0  0
  -17.9805  -24.7074  -10.9337 C   0  0  0  0  0  0  0  0  0  0  0  0
  -18.7507  -25.0246   -9.6532 O   0  0  0  0  0  0  0  0  0  0  0  0
  -15.9696  -20.0049  -11.5477 C   0  0  0  0  0  0  0  0  0  0  0  0
  -15.8871  -20.9021  -12.6659 O   0  0  0  0  0  0  0  0  0  0  0  0
  -19.7859  -22.2490  -10.7068 C   0  0  1  0  0  0  0  0  0  0  0  0
  -20.0738  -22.9181   -9.4911 O   0  0  0  0  0  0  0  0  0  0  0  0
  -16.0011  -23.5571  -11.9428 C   0  0  0  0  0  0  0  0  0  0  0  0
  -15.1082  -22.2008   -8.3452 C   0  0  0  0  0  0  0  0  0  0  0  0
  1  2  1  6  0  0  0
  1  6  1  0  0  0  0
  1 21  1  0  0  0  0
  3  4  1  6  0  0  0
  3  8  1  0  0  0  0
  3 28  1  0  0  0  0
  5  9  1  0  0  0  0
  5 25  1  0  0  0  0
  5 29  1  6  0  0  0
  6  7  1  6  0  0  0
  6 11  1  0  0  0  0
  8 12  1  0  0  0  0
  9 10  1  6  0  0  0
  9 14  1  0  0  0  0
 11 16  1  0  0  0  0
 12 13  1  6  0  0  0
 12 17  1  0  0  0  0
 14 15  1  1  0  0  0
 14 18  1  0  0  0  0
 15 31  1  0  0  0  0
 16 20  1  0  0  0  0
 17  2  1  1  0  0  0
 17 22  1  0  0  0  0
 18 19  1  1  0  0  0
 18 24  1  0  0  0  0
 18 30  1  0  0  0  0
 20 21  1  0  0  0  0
 20 26  1  1  0  0  0
 22 23  1  1  0  0  0
 22 28  1  0  0  0  0
 24 25  1  0  0  0  0
 26 27  1  0  0  0  0
 28 29  1  1  0  0  0
M  END
>  <CHROM.1>
119.74500378,61.54571379,43.23469098,-155.66871698,-34.77465289,115.24212641
-18.35513761,-21.13548820,-11.02391525,-1.78597087,0.35308208,2.77782233

>  <Name>
ligand

>  <RI>
0

>  <Rbt.Current_Directory>
/home/itssahil/PROJECTS/Mol_Feturizer/New_Systems/rnas/4GPW

>  <Rbt.Executable>
rbdock ($Id: //depot/dev/client3/rdock/2013.1/src/exe/rbdock.cxx#4 $)

>  <Rbt.Library>
libRbt.so (2013.1, Build901 2013/11/27)

>  <Rbt.Parameter_File>
/export/apps/rDock/src/rDock_2013.1_src/data/scripts/dock_solv.prm

>  <Rbt.Receptor>
prm/blind_docking_100.prm

>  <SCORE>
52.6425

>  <SCORE.INTER>
29.3932

>  <SCORE.INTER.CONST>
1

>  <SCORE.INTER.POLAR>
0

>  <SCORE.INTER.ROT>
6

>  <SCORE.INTER.SOLV>
23.4895

>  <SCORE.INTER.VDW>
4.16564

>  <SCORE.INTER.norm>
0.948168

>  <SCORE.INTRA>
8.36505

>  <SCORE.INTRA.DIHEDRAL>
0.674499

>  <SCORE.INTRA.DIHEDRAL.0>
19.2558

>  <SCORE.INTRA.POLAR>
0

>  <SCORE.INTRA.POLAR.0>
0

>  <SCORE.INTRA.REPUL>
0.0689047

>  <SCORE.INTRA.REPUL.0>
0

>  <SCORE.INTRA.SOLV>
4.65971

>  <SCORE.INTRA.SOLV.lig_0>
-64.5929

>  <SCORE.INTRA.VDW>
5.35342

>  <SCORE.INTRA.VDW.0>
-4.40538

>  <SCORE.INTRA.norm>
0.26984

>  <SCORE.RESTR>
14.8843

>  <SCORE.RESTR.CAVITY>
14.8843

>  <SCORE.RESTR.norm>
0.480138

>  <SCORE.SYSTEM>
0

>  <SCORE.SYSTEM.CONST>
0

>  <SCORE.SYSTEM.DIHEDRAL>
0

>  <SCORE.SYSTEM.SOLV>
0

>  <SCORE.SYSTEM.norm>
0

>  <SCORE.heavy>
31

>  <SCORE.norm>
1.69815

>  <RMSD>
10.597

$$$$
ligand
 OpenBabel11021811493D
libRbt.so/2013.1/901 2013/11/27
 31 33  0  0  0  0  0  0  0  0999 V2000
  -17.4449  -18.2961  -12.9052 C   0  0  2  0  0  0  0  0  0  0  0  0
  -17.3838  -18.6729  -11.5374 O   0  0  0  0  0  0  0  0  0  0  0  0
  -17.0921  -22.9105  -11.9015 C   0  0  2  0  0  0  0  0  0  0  0  0
  -16.9320  -24.2793  -11.5303 N   0  0  0  0  0  0  0  0  0  0  0  0
  -20.2232  -24.0432  -10.8272 C   0  0  2  0  0  0  0  0  0  0  0  0
  -18.0444  -16.8296  -12.9549 C   0  0  2  0  0  0  0  0  0  0  0  0
  -17.1780  -15.9257  -12.1841 N   0  0  0  0  0  0  0  0  0  0  0  0
  -15.7949  -22.1112  -11.4448 C   0  0  0  0  0  0  0  0  0  0  0  0
  -21.0492  -23.2492   -9.7616 C   0  0  2  0  0  0  0  0  0  0  0  0
  -21.8701  -22.3299  -10.4426 O   0  0  0  0  0  0  0  0  0  0  0  0
  -19.5143  -16.8331  -12.3754 C   0  0  0  0  0  0  0  0  0  0  0  0
  -15.9693  -20.5824  -11.8651 C   0  0  2  0  0  0  0  0  0  0  0  0
  -14.7698  -19.8211  -11.4538 N   0  0  0  0  0  0  0  0  0  0  0  0
  -20.0554  -22.5119   -8.7707 C   0  0  1  0  0  0  0  0  0  0  0  0
  -20.8333  -21.7379   -7.7380 N   0  0  0  0  0  0  0  0  0  0  0  0
  -20.3394  -18.1094  -12.8256 C   0  0  0  0  0  0  0  0  0  0  0  0
  -17.2510  -19.9936  -11.1443 C   0  0  2  0  0  0  0  0  0  0  0  0
  -19.1348  -23.6214   -8.0165 C   0  0  1  0  0  0  0  0  0  0  0  0
  -19.8865  -24.5354   -7.2439 O   0  0  0  0  0  0  0  0  0  0  0  0
  -19.7291  -19.1633  -13.4135 C   0  0  2  0  0  0  0  0  0  0  0  0
  -18.3204  -19.1934  -13.6657 O   0  0  0  0  0  0  0  0  0  0  0  0
  -18.5293  -20.8127  -11.5947 C   0  0  2  0  0  0  0  0  0  0  0  0
  -19.6867  -20.2799  -10.9296 O   0  0  0  0  0  0  0  0  0  0  0  0
  -18.3371  -24.4251   -9.0967 C   0  0  0  0  0  0  0  0  0  0  0  0
  -19.2950  -25.0192  -10.1276 O   0  0  0  0  0  0  0  0  0  0  0  0
  -20.4918  -20.4089  -13.8625 C   0  0  0  0  0  0  0  0  0  0  0  0
  -20.9053  -21.1238  -12.6877 O   0  0  0  0  0  0  0  0  0  0  0  0
  -18.3611  -22.3285  -11.1810 C   0  0  1  0  0  0  0  0  0  0  0  0
  -19.5158  -23.0284  -11.6115 O   0  0  0  0  0  0  0  0  0  0  0  0
  -18.1029  -23.0376   -7.0279 C   0  0  0  0  0  0  0  0  0  0  0  0
  -21.9108  -22.4705   -7.0424 C   0  0  0  0  0  0  0  0  0  0  0  0
  1  2  1  1  0  0  0
  1  6  1  0  0  0  0
  1 21  1  0  0  0  0
  3  4  1  1  0  0  0
  3  8  1  0  0  0  0
  3 28  1  0  0  0  0
  5  9  1  0  0  0  0
  5 25  1  0  0  0  0
  5 29  1  1  0  0  0
  6  7  1  1  0  0  0
  6 11  1  0  0  0  0
  8 12  1  0  0  0  0
  9 10  1  6  0  0  0
  9 14  1  0  0  0  0
 11 16  1  0  0  0  0
 12 13  1  1  0  0  0
 12 17  1  0  0  0  0
 14 15  1  1  0  0  0
 14 18  1  0  0  0  0
 15 31  1  0  0  0  0
 16 20  1  0  0  0  0
 17  2  1  6  0  0  0
 17 22  1  0  0  0  0
 18 19  1  1  0  0  0
 18 24  1  0  0  0  0
 18 30  1  0  0  0  0
 20 21  1  0  0  0  0
 20 26  1  6  0  0  0
 22 23  1  1  0  0  0
 22 28  1  0  0  0  0
 24 25  1  0  0  0  0
 26 27  1  0  0  0  0
 28 29  1  6  0  0  0
M  END
>  <CHROM.1>
162.45022261,76.74632494,49.49153357,54.79587040,-70.78858606,103.98796842
-18.87702958,-21.23790911,-10.92583858,-1.31673332,-0.19881471,2.56639376

>  <Name>
ligand

>  <RI>
0

>  <Rbt.Current_Directory>
/home/itssahil/PROJECTS/Mol_Feturizer/New_Systems/rnas/4GPW

>  <Rbt.Executable>
rbdock ($Id: //depot/dev/client3/rdock/2013.1/src/exe/rbdock.cxx#4 $)

>  <Rbt.Library>
libRbt.so (2013.1, Build901 2013/11/27)

>  <Rbt.Parameter_File>
/export/apps/rDock/src/rDock_2013.1_src/data/scripts/dock_solv.prm

>  <Rbt.Receptor>
prm/blind_docking_100.prm

>  <SCORE>
41.1656

>  <SCORE.INTER>
15.8267

>  <SCORE.INTER.CONST>
1

>  <SCORE.INTER.POLAR>
0

>  <SCORE.INTER.ROT>
6

>  <SCORE.INTER.SOLV>
30.4309

>  <SCORE.INTER.VDW>
-7.19248

>  <SCORE.INTER.norm>
0.51054

>  <SCORE.INTRA>
7.75539

>  <SCORE.INTRA.DIHEDRAL>
-6.86335

>  <SCORE.INTRA.DIHEDRAL.0>
19.2558

>  <SCORE.INTRA.POLAR>
0

>  <SCORE.INTRA.POLAR.0>
0

>  <SCORE.INTRA.REPUL>
0.0654886

>  <SCORE.INTRA.REPUL.0>
0

>  <SCORE.INTRA.SOLV>
2.937

>  <SCORE.INTRA.SOLV.lig_0>
-64.5929

>  <SCORE.INTRA.VDW>
9.39112

>  <SCORE.INTRA.VDW.0>
-4.40538

>  <SCORE.INTRA.norm>
0.250174

>  <SCORE.RESTR>
17.5835

>  <SCORE.RESTR.CAVITY>
17.5835

>  <SCORE.RESTR.norm>
0.567208

>  <SCORE.SYSTEM>
0

>  <SCORE.SYSTEM.CONST>
0

>  <SCORE.SYSTEM.DIHEDRAL>
0

>  <SCORE.SYSTEM.SOLV>
0

>  <SCORE.SYSTEM.norm>
0

>  <SCORE.heavy>
31

>  <SCORE.norm>
1.32792

>  <RMSD>
10.619

$$$$
ligand
 OpenBabel11021811493D
libRbt.so/2013.1/901 2013/11/27
 31 33  0  0  0  0  0  0  0  0999 V2000
  -16.9941  -18.9757  -13.1273 C   0  0  2  0  0  0  0  0  0  0  0  0
  -16.4733  -19.0355  -11.8075 O   0  0  0  0  0  0  0  0  0  0  0  0
  -17.4139  -23.0589  -10.7574 C   0  0  2  0  0  0  0  0  0  0  0  0
  -17.4264  -24.2850  -10.0269 N   0  0  0  0  0  0  0  0  0  0  0  0
  -20.4730  -22.1138  -10.4548 C   0  0  2  0  0  0  0  0  0  0  0  0
  -17.1658  -17.4418  -13.4879 C   0  0  2  0  0  0  0  0  0  0  0  0
  -15.8603  -16.7723  -13.3917 N   0  0  0  0  0  0  0  0  0  0  0  0
  -15.9096  -22.7243  -11.1513 C   0  0  0  0  0  0  0  0  0  0  0  0
  -21.5542  -23.1016   -9.9040 C   0  0  2  0  0  0  0  0  0  0  0  0
  -21.8360  -22.7414   -8.5723 O   0  0  0  0  0  0  0  0  0  0  0  0
  -18.2144  -16.7771  -12.5106 C   0  0  0  0  0  0  0  0  0  0  0  0
  -15.8946  -21.3576  -11.9736 C   0  0  2  0  0  0  0  0  0  0  0  0
  -14.5036  -21.0302  -12.3549 N   0  0  0  0  0  0  0  0  0  0  0  0
  -21.0043  -24.5856   -9.9965 C   0  0  1  0  0  0  0  0  0  0  0  0
  -22.0315  -25.5524   -9.4666 N   0  0  0  0  0  0  0  0  0  0  0  0
  -19.4466  -17.7271  -12.2079 C   0  0  0  0  0  0  0  0  0  0  0  0
  -16.4869  -20.2035  -11.0645 C   0  0  2  0  0  0  0  0  0  0  0  0
  -20.6961  -24.9432  -11.5535 C   0  0  1  0  0  0  0  0  0  0  0  0
  -21.8424  -24.8750  -12.3773 O   0  0  0  0  0  0  0  0  0  0  0  0
  -19.4228  -19.0335  -12.5567 C   0  0  2  0  0  0  0  0  0  0  0  0
  -18.3016  -19.6336  -13.2138 O   0  0  0  0  0  0  0  0  0  0  0  0
  -17.9770  -20.5619  -10.6658 C   0  0  2  0  0  0  0  0  0  0  0  0
  -18.5046  -19.5159   -9.8330 O   0  0  0  0  0  0  0  0  0  0  0  0
  -19.6348  -23.9297  -12.0973 C   0  0  0  0  0  0  0  0  0  0  0  0
  -20.1134  -22.4956  -11.8791 O   0  0  0  0  0  0  0  0  0  0  0  0
  -20.5921  -19.9783  -12.2832 C   0  0  0  0  0  0  0  0  0  0  0  0
  -21.1623  -19.6233  -11.0140 O   0  0  0  0  0  0  0  0  0  0  0  0
  -17.9972  -21.9158   -9.8512 C   0  0  1  0  0  0  0  0  0  0  0  0
  -19.3451  -22.2080   -9.5250 O   0  0  0  0  0  0  0  0  0  0  0  0
  -20.1349  -26.3618  -11.7897 C   0  0  0  0  0  0  0  0  0  0  0  0
  -23.3975  -25.4248  -10.0141 C   0  0  0  0  0  0  0  0  0  0  0  0
  1  2  1  1  0  0  0
  1  6  1  0  0  0  0
  1 21  1  0  0  0  0
  3  4  1  1  0  0  0
  3  8  1  0  0  0  0
  3 28  1  0  0  0  0
  5  9  1  0  0  0  0
  5 25  1  0  0  0  0
  5 29  1  1  0  0  0
  6  7  1  1  0  0  0
  6 11  1  0  0  0  0
  8 12  1  0  0  0  0
  9 10  1  1  0  0  0
  9 14  1  0  0  0  0
 11 16  1  0  0  0  0
 12 13  1  1  0  0  0
 12 17  1  0  0  0  0
 14 15  1  6  0  0  0
 14 18  1  0  0  0  0
 15 31  1  0  0  0  0
 16 20  1  0  0  0  0
 17  2  1  6  0  0  0
 17 22  1  0  0  0  0
 18 19  1  6  0  0  0
 18 24  1  0  0  0  0
 18 30  1  0  0  0  0
 20 21  1  0  0  0  0
 20 26  1  6  0  0  0
 22 23  1  1  0  0  0
 22 28  1  0  0  0  0
 24 25  1  0  0  0  0
 26 27  1  0  0  0  0
 28 29  1  6  0  0  0
M  END
>  <CHROM.1>
164.88888929,154.86649317,50.69832342,49.32800074,-37.04298808,-72.98799838
-19.00743479,-21.55277029,-11.30774357,-0.98545410,-0.13740805,2.91733242

>  <Name>
ligand

>  <RI>
0

>  <Rbt.Current_Directory>
/home/itssahil/PROJECTS/Mol_Feturizer/New_Systems/rnas/4GPW

>  <Rbt.Executable>
rbdock ($Id: //depot/dev/client3/rdock/2013.1/src/exe/rbdock.cxx#4 $)

>  <Rbt.Library>
libRbt.so (2013.1, Build901 2013/11/27)

>  <Rbt.Parameter_File>
/export/apps/rDock/src/rDock_2013.1_src/data/scripts/dock_solv.prm

>  <Rbt.Receptor>
prm/blind_docking_60.prm

>  <SCORE>
37.703

>  <SCORE.INTER>
15.769

>  <SCORE.INTER.CONST>
1

>  <SCORE.INTER.POLAR>
0

>  <SCORE.INTER.ROT>
6

>  <SCORE.INTER.SOLV>
27.0013

>  <SCORE.INTER.VDW>
-6.08776

>  <SCORE.INTER.norm>
0.508678

>  <SCORE.INTRA>
6.62462

>  <SCORE.INTRA.DIHEDRAL>
-11.0742

>  <SCORE.INTRA.DIHEDRAL.0>
19.2558

>  <SCORE.INTRA.POLAR>
0

>  <SCORE.INTRA.POLAR.0>
0

>  <SCORE.INTRA.REPUL>
0.0622792

>  <SCORE.INTRA.REPUL.0>
0

>  <SCORE.INTRA.SOLV>
2.65103

>  <SCORE.INTRA.SOLV.lig_0>
-64.5929

>  <SCORE.INTRA.VDW>
10.5248

>  <SCORE.INTRA.VDW.0>
-4.40538

>  <SCORE.INTRA.norm>
0.213698

>  <SCORE.RESTR>
15.3093

>  <SCORE.RESTR.CAVITY>
15.3093

>  <SCORE.RESTR.norm>
0.49385

>  <SCORE.SYSTEM>
0

>  <SCORE.SYSTEM.CONST>
0

>  <SCORE.SYSTEM.DIHEDRAL>
0

>  <SCORE.SYSTEM.SOLV>
0

>  <SCORE.SYSTEM.norm>
0

>  <SCORE.heavy>
31

>  <SCORE.norm>
1.21623

>  <RMSD>
10.648

$$$$
ligand
 OpenBabel11021811493D
libRbt.so/2013.1/901 2013/11/27
 31 33  0  0  0  0  0  0  0  0999 V2000
  -18.7964  -17.5195  -11.2753 C   0  0  2  0  0  0  0  0  0  0  0  0
  -19.8851  -18.3775  -11.5840 O   0  0  0  0  0  0  0  0  0  0  0  0
  -20.9293  -22.5074  -11.7521 C   0  0  2  0  0  0  0  0  0  0  0  0
  -20.7979  -23.9160  -11.9411 N   0  0  0  0  0  0  0  0  0  0  0  0
  -19.7786  -23.9593   -8.9179 C   0  0  2  0  0  0  0  0  0  0  0  0
  -18.5400  -16.6187  -12.5540 C   0  0  2  0  0  0  0  0  0  0  0  0
  -19.7586  -15.8555  -12.8613 N   0  0  0  0  0  0  0  0  0  0  0  0
  -20.5464  -21.7800  -13.1139 C   0  0  0  0  0  0  0  0  0  0  0  0
  -18.5101  -23.5933   -8.0781 C   0  0  2  0  0  0  0  0  0  0  0  0
  -18.8995  -22.6889   -7.0716 O   0  0  0  0  0  0  0  0  0  0  0  0
  -18.1220  -17.5304  -13.7750 C   0  0  0  0  0  0  0  0  0  0  0  0
  -20.6992  -20.2059  -12.9063 C   0  0  2  0  0  0  0  0  0  0  0  0
  -20.3526  -19.5097  -14.1642 N   0  0  0  0  0  0  0  0  0  0  0  0
  -17.4148  -22.9585   -9.0323 C   0  0  1  0  0  0  0  0  0  0  0  0
  -16.1854  -22.5957   -8.2400 N   0  0  0  0  0  0  0  0  0  0  0  0
  -17.1473  -18.7049  -13.3475 C   0  0  0  0  0  0  0  0  0  0  0  0
  -19.7211  -19.7420  -11.7499 C   0  0  2  0  0  0  0  0  0  0  0  0
  -17.0069  -24.0456  -10.1720 C   0  0  1  0  0  0  0  0  0  0  0  0
  -16.4527  -25.2306   -9.6374 O   0  0  0  0  0  0  0  0  0  0  0  0
  -16.9427  -19.0026  -12.0444 C   0  0  2  0  0  0  0  0  0  0  0  0
  -17.5813  -18.2861  -10.9825 O   0  0  0  0  0  0  0  0  0  0  0  0
  -20.1036  -20.4898  -10.4074 C   0  0  2  0  0  0  0  0  0  0  0  0
  -19.2063  -20.0721   -9.3652 O   0  0  0  0  0  0  0  0  0  0  0  0
  -18.2906  -24.4221  -10.9842 C   0  0  0  0  0  0  0  0  0  0  0  0
  -19.3905  -24.9044  -10.0403 O   0  0  0  0  0  0  0  0  0  0  0  0
  -16.0091  -20.1258  -11.5949 C   0  0  0  0  0  0  0  0  0  0  0  0
  -16.6571  -20.8436  -10.5333 O   0  0  0  0  0  0  0  0  0  0  0  0
  -19.9543  -22.0501  -10.6081 C   0  0  1  0  0  0  0  0  0  0  0  0
  -20.3169  -22.6825   -9.3928 O   0  0  0  0  0  0  0  0  0  0  0  0
  -15.9541  -23.5507  -11.1868 C   0  0  0  0  0  0  0  0  0  0  0  0
  -16.4083  -21.8364   -6.9928 C   0  0  0  0  0  0  0  0  0  0  0  0
  1  2  1  6  0  0  0
  1  6  1  0  0  0  0
  1 21  1  0  0  0  0
  3  4  1  6  0  0  0
  3  8  1  0  0  0  0
  3 28  1  0  0  0  0
  5  9  1  0  0  0  0
  5 25  1  0  0  0  0
  5 29  1  6  0  0  0
  6  7  1  6  0  0  0
  6 11  1  0  0  0  0
  8 12  1  0  0  0  0
  9 10  1  1  0  0  0
  9 14  1  0  0  0  0
 11 16  1  0  0  0  0
 12 13  1  6  0  0  0
 12 17  1  0  0  0  0
 14 15  1  1  0  0  0
 14 18  1  0  0  0  0
 15 31  1  0  0  0  0
 16 20  1  0  0  0  0
 17  2  1  1  0  0  0
 17 22  1  0  0  0  0
 18 19  1  1  0  0  0
 18 24  1  0  0  0  0
 18 30  1  0  0  0  0
 20 21  1  0  0  0  0
 20 26  1  1  0  0  0
 22 23  1  1  0  0  0
 22 28  1  0  0  0  0
 24 25  1  0  0  0  0
 26 27  1  0  0  0  0
 28 29  1  1  0  0  0
M  END
>  <CHROM.1>
110.91911515,89.62928410,-48.32040251,-143.37458179,-137.15746605,91.33605765
-18.57096312,-21.16913464,-10.80674034,-1.72438761,0.55994443,2.68769470

>  <Name>
ligand

>  <RI>
0

>  <Rbt.Current_Directory>
/home/itssahil/PROJECTS/Mol_Feturizer/New_Systems/rnas/4GPW

>  <Rbt.Executable>
rbdock ($Id: //depot/dev/client3/rdock/2013.1/src/exe/rbdock.cxx#4 $)

>  <Rbt.Library>
libRbt.so (2013.1, Build901 2013/11/27)

>  <Rbt.Parameter_File>
/export/apps/rDock/src/rDock_2013.1_src/data/scripts/dock_solv.prm

>  <Rbt.Receptor>
prm/blind_docking_80.prm

>  <SCORE>
59.6401

>  <SCORE.INTER>
28.313

>  <SCORE.INTER.CONST>
1

>  <SCORE.INTER.POLAR>
0

>  <SCORE.INTER.ROT>
6

>  <SCORE.INTER.SOLV>
21.4416

>  <SCORE.INTER.VDW>
4.12816

>  <SCORE.INTER.norm>
0.913323

>  <SCORE.INTRA>
9.32548

>  <SCORE.INTRA.DIHEDRAL>
1.89639

>  <SCORE.INTRA.DIHEDRAL.0>
19.2558

>  <SCORE.INTRA.POLAR>
0

>  <SCORE.INTRA.POLAR.0>
0

>  <SCORE.INTRA.REPUL>
0

>  <SCORE.INTRA.REPUL.0>
0

>  <SCORE.INTRA.SOLV>
5.80065

>  <SCORE.INTRA.SOLV.lig_0>
-64.5929

>  <SCORE.INTRA.VDW>
5.47696

>  <SCORE.INTRA.VDW.0>
-4.40538

>  <SCORE.INTRA.norm>
0.300822

>  <SCORE.RESTR>
22.0016

>  <SCORE.RESTR.CAVITY>
22.0016

>  <SCORE.RESTR.norm>
0.70973

>  <SCORE.SYSTEM>
0

>  <SCORE.SYSTEM.CONST>
0

>  <SCORE.SYSTEM.DIHEDRAL>
0

>  <SCORE.SYSTEM.SOLV>
0

>  <SCORE.SYSTEM.norm>
0

>  <SCORE.heavy>
31

>  <SCORE.norm>
1.92388

>  <RMSD>
10.662

$$$$
ligand
 OpenBabel11021811493D
libRbt.so/2013.1/901 2013/11/27
 31 33  0  0  0  0  0  0  0  0999 V2000
  -17.4258  -18.4604  -12.7789 C   0  0  2  0  0  0  0  0  0  0  0  0
  -17.2724  -18.8882  -11.4335 O   0  0  0  0  0  0  0  0  0  0  0  0
  -16.6250  -23.0627  -12.0074 C   0  0  2  0  0  0  0  0  0  0  0  0
  -16.3456  -24.4293  -11.7049 N   0  0  0  0  0  0  0  0  0  0  0  0
  -19.6503  -24.4970  -10.9646 C   0  0  2  0  0  0  0  0  0  0  0  0
  -18.0818  -17.0182  -12.7340 C   0  0  2  0  0  0  0  0  0  0  0  0
  -17.2075  -16.1116  -11.9755 N   0  0  0  0  0  0  0  0  0  0  0  0
  -15.3961  -22.1787  -11.5190 C   0  0  0  0  0  0  0  0  0  0  0  0
  -20.9749  -23.9053  -10.3785 C   0  0  2  0  0  0  0  0  0  0  0  0
  -21.7340  -23.3923  -11.4477 O   0  0  0  0  0  0  0  0  0  0  0  0
  -19.5151  -17.1033  -12.0744 C   0  0  0  0  0  0  0  0  0  0  0  0
  -15.7039  -20.6518  -11.8626 C   0  0  2  0  0  0  0  0  0  0  0  0
  -14.5697  -19.8117  -11.4209 N   0  0  0  0  0  0  0  0  0  0  0  0
  -20.6229  -22.7738   -9.3254 C   0  0  1  0  0  0  0  0  0  0  0  0
  -21.8875  -22.1887   -8.7518 N   0  0  0  0  0  0  0  0  0  0  0  0
  -20.3159  -18.3927  -12.5310 C   0  0  0  0  0  0  0  0  0  0  0  0
  -17.0241  -20.2103  -11.1067 C   0  0  2  0  0  0  0  0  0  0  0  0
  -19.7468  -23.4239   -8.1183 C   0  0  1  0  0  0  0  0  0  0  0  0
  -20.4337  -24.4412   -7.4179 O   0  0  0  0  0  0  0  0  0  0  0  0
  -19.7010  -19.3973  -13.1953 C   0  0  2  0  0  0  0  0  0  0  0  0
  -18.3088  -19.3612  -13.5264 O   0  0  0  0  0  0  0  0  0  0  0  0
  -18.2324  -21.1127  -11.5898 C   0  0  2  0  0  0  0  0  0  0  0  0
  -19.4244  -20.7137  -10.8929 O   0  0  0  0  0  0  0  0  0  0  0  0
  -18.4399  -24.0356   -8.7241 C   0  0  0  0  0  0  0  0  0  0  0  0
  -18.7855  -25.0256   -9.8348 O   0  0  0  0  0  0  0  0  0  0  0  0
  -20.4407  -20.6536  -13.6528 C   0  0  0  0  0  0  0  0  0  0  0  0
  -20.8327  -21.3887  -12.4831 O   0  0  0  0  0  0  0  0  0  0  0  0
  -17.9319  -22.6269  -11.2522 C   0  0  1  0  0  0  0  0  0  0  0  0
  -19.0270  -23.4012  -11.7103 O   0  0  0  0  0  0  0  0  0  0  0  0
  -19.3173  -22.4239   -7.0234 C   0  0  0  0  0  0  0  0  0  0  0  0
  -22.8192  -23.1392   -8.1112 C   0  0  0  0  0  0  0  0  0  0  0  0
  1  2  1  1  0  0  0
  1  6  1  0  0  0  0
  1 21  1  0  0  0  0
  3  4  1  1  0  0  0
  3  8  1  0  0  0  0
  3 28  1  0  0  0  0
  5  9  1  0  0  0  0
  5 25  1  0  0  0  0
  5 29  1  1  0  0  0
  6  7  1  1  0  0  0
  6 11  1  0  0  0  0
  8 12  1  0  0  0  0
  9 10  1  6  0  0  0
  9 14  1  0  0  0  0
 11 16  1  0  0  0  0
 12 13  1  1  0  0  0
 12 17  1  0  0  0  0
 14 15  1  1  0  0  0
 14 18  1  0  0  0  0
 15 31  1  0  0  0  0
 16 20  1  0  0  0  0
 17  2  1  6  0  0  0
 17 22  1  0  0  0  0
 18 19  1  1  0  0  0
 18 24  1  0  0  0  0
 18 30  1  0  0  0  0
 20 21  1  0  0  0  0
 20 26  1  6  0  0  0
 22 23  1  1  0  0  0
 22 28  1  0  0  0  0
 24 25  1  0  0  0  0
 26 27  1  0  0  0  0
 28 29  1  6  0  0  0
M  END
>  <CHROM.1>
164.61969512,102.64516718,56.52380646,57.07495760,-67.24171427,104.92103068
-18.87341462,-21.45154988,-11.00414738,1.17075998,0.20817455,-0.47185812

>  <Name>
ligand

>  <RI>
0

>  <Rbt.Current_Directory>
/home/itssahil/PROJECTS/Mol_Feturizer/New_Systems/rnas/4GPW

>  <Rbt.Executable>
rbdock ($Id: //depot/dev/client3/rdock/2013.1/src/exe/rbdock.cxx#4 $)

>  <Rbt.Library>
libRbt.so (2013.1, Build901 2013/11/27)

>  <Rbt.Parameter_File>
/export/apps/rDock/src/rDock_2013.1_src/data/scripts/dock_solv.prm

>  <Rbt.Receptor>
prm/blind_docking_100.prm

>  <SCORE>
53.9819

>  <SCORE.INTER>
26.3289

>  <SCORE.INTER.CONST>
1

>  <SCORE.INTER.POLAR>
0

>  <SCORE.INTER.ROT>
6

>  <SCORE.INTER.SOLV>
31.1325

>  <SCORE.INTER.VDW>
-0.424878

>  <SCORE.INTER.norm>
0.84932

>  <SCORE.INTRA>
9.93841

>  <SCORE.INTRA.DIHEDRAL>
-2.61814

>  <SCORE.INTRA.DIHEDRAL.0>
19.2558

>  <SCORE.INTRA.POLAR>
0

>  <SCORE.INTRA.POLAR.0>
0

>  <SCORE.INTRA.REPUL>
0

>  <SCORE.INTRA.REPUL.0>
0

>  <SCORE.INTRA.SOLV>
2.04945

>  <SCORE.INTRA.SOLV.lig_0>
-64.5929

>  <SCORE.INTRA.VDW>
10.2228

>  <SCORE.INTRA.VDW.0>
-4.40538

>  <SCORE.INTRA.norm>
0.320594

>  <SCORE.RESTR>
17.7146

>  <SCORE.RESTR.CAVITY>
17.7146

>  <SCORE.RESTR.norm>
0.571438

>  <SCORE.SYSTEM>
0

>  <SCORE.SYSTEM.CONST>
0

>  <SCORE.SYSTEM.DIHEDRAL>
0

>  <SCORE.SYSTEM.SOLV>
0

>  <SCORE.SYSTEM.norm>
0

>  <SCORE.heavy>
31

>  <SCORE.norm>
1.74135

>  <RMSD>
10.663

$$$$
ligand
 OpenBabel11021811493D
libRbt.so/2013.1/901 2013/11/27
 31 33  0  0  0  0  0  0  0  0999 V2000
  -20.6637  -18.9269  -12.7273 C   0  0  2  0  0  0  0  0  0  0  0  0
  -19.4154  -19.5233  -13.0479 O   0  0  0  0  0  0  0  0  0  0  0  0
  -16.3399  -22.0135  -11.4621 C   0  0  2  0  0  0  0  0  0  0  0  0
  -15.5148  -22.6802  -10.5071 N   0  0  0  0  0  0  0  0  0  0  0  0
  -18.4433  -24.8662  -10.5782 C   0  0  2  0  0  0  0  0  0  0  0  0
  -21.2035  -18.2432  -14.0516 C   0  0  2  0  0  0  0  0  0  0  0  0
  -21.3462  -19.2638  -15.1003 N   0  0  0  0  0  0  0  0  0  0  0  0
  -16.2325  -20.4464  -11.2116 C   0  0  0  0  0  0  0  0  0  0  0  0
  -19.9929  -24.6499  -10.5611 C   0  0  2  0  0  0  0  0  0  0  0  0
  -20.4642  -24.7669  -11.8828 O   0  0  0  0  0  0  0  0  0  0  0  0
  -20.2108  -17.1013  -14.5066 C   0  0  0  0  0  0  0  0  0  0  0  0
  -17.1488  -19.6995  -12.2825 C   0  0  2  0  0  0  0  0  0  0  0  0
  -17.0591  -18.2386  -12.0704 N   0  0  0  0  0  0  0  0  0  0  0  0
  -20.3161  -23.2200   -9.9575 C   0  0  1  0  0  0  0  0  0  0  0  0
  -21.8053  -22.9916   -9.9361 N   0  0  0  0  0  0  0  0  0  0  0  0
  -19.6464  -16.2669  -13.2828 C   0  0  0  0  0  0  0  0  0  0  0  0
  -18.6481  -20.1767  -12.0989 C   0  0  2  0  0  0  0  0  0  0  0  0
  -19.7481  -23.1441   -8.4347 C   0  0  1  0  0  0  0  0  0  0  0  0
  -20.3354  -24.0987   -7.5738 O   0  0  0  0  0  0  0  0  0  0  0  0
  -19.8185  -16.6910  -12.0103 C   0  0  2  0  0  0  0  0  0  0  0  0
  -20.5127  -17.9012  -11.6905 O   0  0  0  0  0  0  0  0  0  0  0  0
  -18.7334  -21.7407  -12.3323 C   0  0  2  0  0  0  0  0  0  0  0  0
  -20.0940  -22.1684  -12.1543 O   0  0  0  0  0  0  0  0  0  0  0  0
  -18.2029  -23.3902   -8.4660 C   0  0  0  0  0  0  0  0  0  0  0  0
  -17.8919  -24.7081   -9.1730 O   0  0  0  0  0  0  0  0  0  0  0  0
  -19.2906  -15.9123  -10.8062 C   0  0  0  0  0  0  0  0  0  0  0  0
  -19.2923  -16.7934   -9.6723 O   0  0  0  0  0  0  0  0  0  0  0  0
  -17.8265  -22.4853  -11.2739 C   0  0  1  0  0  0  0  0  0  0  0  0
  -17.9192  -23.8774  -11.5232 O   0  0  0  0  0  0  0  0  0  0  0  0
  -19.9803  -21.7918   -7.7274 C   0  0  0  0  0  0  0  0  0  0  0  0
  -22.6203  -24.0338   -9.2792 C   0  0  0  0  0  0  0  0  0  0  0  0
  1  2  1  6  0  0  0
  1  6  1  0  0  0  0
  1 21  1  0  0  0  0
  3  4  1  1  0  0  0
  3  8  1  0  0  0  0
  3 28  1  0  0  0  0
  5  9  1  0  0  0  0
  5 25  1  0  0  0  0
  5 29  1  6  0  0  0
  6  7  1  6  0  0  0
  6 11  1  0  0  0  0
  8 12  1  0  0  0  0
  9 10  1  6  0  0  0
  9 14  1  0  0  0  0
 11 16  1  0  0  0  0
 12 13  1  1  0  0  0
 12 17  1  0  0  0  0
 14 15  1  1  0  0  0
 14 18  1  0  0  0  0
 15 31  1  0  0  0  0
 16 20  1  0  0  0  0
 17  2  1  6  0  0  0
 17 22  1  0  0  0  0
 18 19  1  1  0  0  0
 18 24  1  0  0  0  0
 18 30  1  0  0  0  0
 20 21  1  0  0  0  0
 20 26  1  1  0  0  0
 22 23  1  1  0  0  0
 22 28  1  0  0  0  0
 24 25  1  0  0  0  0
 26 27  1  0  0  0  0
 28 29  1  6  0  0  0
M  END
>  <CHROM.1>
178.06590064,73.32431024,52.90057305,-134.96507105,-163.64527009,123.51181764
-19.27077770,-21.04714745,-11.17897032,1.61583845,-0.05463808,-0.44147418

>  <Name>
ligand

>  <RI>
0

>  <Rbt.Current_Directory>
/home/itssahil/PROJECTS/Mol_Feturizer/New_Systems/rnas/4GPW

>  <Rbt.Executable>
rbdock ($Id: //depot/dev/client3/rdock/2013.1/src/exe/rbdock.cxx#4 $)

>  <Rbt.Library>
libRbt.so (2013.1, Build901 2013/11/27)

>  <Rbt.Parameter_File>
/export/apps/rDock/src/rDock_2013.1_src/data/scripts/dock_solv.prm

>  <Rbt.Receptor>
prm/blind_docking_100.prm

>  <SCORE>
30.2133

>  <SCORE.INTER>
7.13563

>  <SCORE.INTER.CONST>
1

>  <SCORE.INTER.POLAR>
0

>  <SCORE.INTER.ROT>
6

>  <SCORE.INTER.SOLV>
23.1384

>  <SCORE.INTER.VDW>
-10.5557

>  <SCORE.INTER.norm>
0.230182

>  <SCORE.INTRA>
5.89751

>  <SCORE.INTRA.DIHEDRAL>
-1.80427

>  <SCORE.INTRA.DIHEDRAL.0>
19.2558

>  <SCORE.INTRA.POLAR>
0

>  <SCORE.INTRA.POLAR.0>
0

>  <SCORE.INTRA.REPUL>
0

>  <SCORE.INTRA.REPUL.0>
0

>  <SCORE.INTRA.SOLV>
3.34983

>  <SCORE.INTRA.SOLV.lig_0>
-64.5929

>  <SCORE.INTRA.VDW>
5.12473

>  <SCORE.INTRA.VDW.0>
-4.40538

>  <SCORE.INTRA.norm>
0.190242

>  <SCORE.RESTR>
17.1802

>  <SCORE.RESTR.CAVITY>
17.1802

>  <SCORE.RESTR.norm>
0.5542

>  <SCORE.SYSTEM>
0

>  <SCORE.SYSTEM.CONST>
0

>  <SCORE.SYSTEM.DIHEDRAL>
0

>  <SCORE.SYSTEM.SOLV>
0

>  <SCORE.SYSTEM.norm>
0

>  <SCORE.heavy>
31

>  <SCORE.norm>
0.974624

>  <RMSD>
10.676

$$$$
ligand
 OpenBabel11021811493D
libRbt.so/2013.1/901 2013/11/27
 31 33  0  0  0  0  0  0  0  0999 V2000
  -15.3300  -20.7288  -11.4029 C   0  0  2  0  0  0  0  0  0  0  0  0
  -16.1597  -21.0139  -12.5195 O   0  0  0  0  0  0  0  0  0  0  0  0
  -19.7578  -19.0535  -11.3424 C   0  0  2  0  0  0  0  0  0  0  0  0
  -21.0950  -18.5581  -11.4023 N   0  0  0  0  0  0  0  0  0  0  0  0
  -21.6177  -22.0958  -10.4503 C   0  0  2  0  0  0  0  0  0  0  0  0
  -14.1780  -21.8174  -11.3925 C   0  0  2  0  0  0  0  0  0  0  0  0
  -13.4286  -21.7421  -12.6553 N   0  0  0  0  0  0  0  0  0  0  0  0
  -18.9399  -18.4402  -12.5610 C   0  0  0  0  0  0  0  0  0  0  0  0
  -21.4813  -23.0506   -9.2182 C   0  0  2  0  0  0  0  0  0  0  0  0
  -21.4557  -22.2592   -8.0539 O   0  0  0  0  0  0  0  0  0  0  0  0
  -14.8026  -23.2548  -11.1918 C   0  0  0  0  0  0  0  0  0  0  0  0
  -17.4433  -18.9876  -12.4916 C   0  0  2  0  0  0  0  0  0  0  0  0
  -16.6628  -18.4244  -13.6145 N   0  0  0  0  0  0  0  0  0  0  0  0
  -20.1554  -23.9074   -9.3630 C   0  0  1  0  0  0  0  0  0  0  0  0
  -20.0047  -24.8317   -8.1825 N   0  0  0  0  0  0  0  0  0  0  0  0
  -15.9905  -23.2574  -10.1423 C   0  0  0  0  0  0  0  0  0  0  0  0
  -17.4681  -20.5680  -12.5956 C   0  0  2  0  0  0  0  0  0  0  0  0
  -20.2421  -24.7969  -10.7227 C   0  0  1  0  0  0  0  0  0  0  0  0
  -21.3241  -25.7061  -10.7245 O   0  0  0  0  0  0  0  0  0  0  0  0
  -16.5351  -22.1006   -9.7019 C   0  0  2  0  0  0  0  0  0  0  0  0
  -16.0798  -20.8183  -10.1461 O   0  0  0  0  0  0  0  0  0  0  0  0
  -18.3021  -21.1606  -11.3868 C   0  0  2  0  0  0  0  0  0  0  0  0
  -18.3291  -22.5937  -11.4930 O   0  0  0  0  0  0  0  0  0  0  0  0
  -20.4063  -23.8295  -11.9418 C   0  0  0  0  0  0  0  0  0  0  0  0
  -21.6090  -22.9119  -11.7299 O   0  0  0  0  0  0  0  0  0  0  0  0
  -17.6791  -22.0641   -8.6895 C   0  0  0  0  0  0  0  0  0  0  0  0
  -17.1386  -21.6556   -7.4233 O   0  0  0  0  0  0  0  0  0  0  0  0
  -19.7859  -20.6206  -11.4509 C   0  0  1  0  0  0  0  0  0  0  0  0
  -20.4943  -21.1613  -10.3489 O   0  0  0  0  0  0  0  0  0  0  0  0
  -19.0014  -25.6728  -10.9994 C   0  0  0  0  0  0  0  0  0  0  0  0
  -21.2325  -25.5083   -7.7172 C   0  0  0  0  0  0  0  0  0  0  0  0
  1  2  1  6  0  0  0
  1  6  1  0  0  0  0
  1 21  1  0  0  0  0
  3  4  1  6  0  0  0
  3  8  1  0  0  0  0
  3 28  1  0  0  0  0
  5  9  1  0  0  0  0
  5 25  1  0  0  0  0
  5 29  1  6  0  0  0
  6  7  1  6  0  0  0
  6 11  1  0  0  0  0
  8 12  1  0  0  0  0
  9 10  1  1  0  0  0
  9 14  1  0  0  0  0
 11 16  1  0  0  0  0
 12 13  1  6  0  0  0
 12 17  1  0  0  0  0
 14 15  1  1  0  0  0
 14 18  1  0  0  0  0
 15 31  1  0  0  0  0
 16 20  1  0  0  0  0
 17  2  1  1  0  0  0
 17 22  1  0  0  0  0
 18 19  1  1  0  0  0
 18 24  1  0  0  0  0
 18 30  1  0  0  0  0
 20 21  1  0  0  0  0
 20 26  1  1  0  0  0
 22 23  1  6  0  0  0
 22 28  1  0  0  0  0
 24 25  1  0  0  0  0
 26 27  1  0  0  0  0
 28 29  1  1  0  0  0
M  END
>  <CHROM.1>
158.37698122,145.14358753,41.58045385,58.50732155,105.37871949,126.80112675
-18.54359840,-22.05036942,-10.71557284,-0.70967762,-0.10153099,2.66304586

>  <Name>
ligand

>  <RI>
0

>  <Rbt.Current_Directory>
/home/itssahil/PROJECTS/Mol_Feturizer/New_Systems/rnas/4GPW

>  <Rbt.Executable>
rbdock ($Id: //depot/dev/client3/rdock/2013.1/src/exe/rbdock.cxx#4 $)

>  <Rbt.Library>
libRbt.so (2013.1, Build901 2013/11/27)

>  <Rbt.Parameter_File>
/export/apps/rDock/src/rDock_2013.1_src/data/scripts/dock_solv.prm

>  <Rbt.Receptor>
prm/blind_docking_60.prm

>  <SCORE>
62.3497

>  <SCORE.INTER>
35.7073

>  <SCORE.INTER.CONST>
1

>  <SCORE.INTER.POLAR>
0

>  <SCORE.INTER.ROT>
6

>  <SCORE.INTER.SOLV>
29.1316

>  <SCORE.INTER.VDW>
6.49434

>  <SCORE.INTER.norm>
1.15185

>  <SCORE.INTRA>
10.7136

>  <SCORE.INTRA.DIHEDRAL>
-3.49006

>  <SCORE.INTRA.DIHEDRAL.0>
19.2558

>  <SCORE.INTRA.POLAR>
0

>  <SCORE.INTRA.POLAR.0>
0

>  <SCORE.INTRA.REPUL>
0

>  <SCORE.INTRA.REPUL.0>
0

>  <SCORE.INTRA.SOLV>
-0.960254

>  <SCORE.INTRA.SOLV.lig_0>
-64.5929

>  <SCORE.INTRA.VDW>
12.9387

>  <SCORE.INTRA.VDW.0>
-4.40538

>  <SCORE.INTRA.norm>
0.3456

>  <SCORE.RESTR>
15.9288

>  <SCORE.RESTR.CAVITY>
15.9288

>  <SCORE.RESTR.norm>
0.513834

>  <SCORE.SYSTEM>
0

>  <SCORE.SYSTEM.CONST>
0

>  <SCORE.SYSTEM.DIHEDRAL>
0

>  <SCORE.SYSTEM.SOLV>
0

>  <SCORE.SYSTEM.norm>
0

>  <SCORE.heavy>
31

>  <SCORE.norm>
2.01128

>  <RMSD>
10.709

$$$$
ligand
 OpenBabel11021811493D
libRbt.so/2013.1/901 2013/11/27
 31 33  0  0  0  0  0  0  0  0999 V2000
  -17.3938  -18.7307  -13.1354 C   0  0  2  0  0  0  0  0  0  0  0  0
  -17.2661  -19.0842  -11.7660 O   0  0  0  0  0  0  0  0  0  0  0  0
  -16.5549  -23.2752  -12.0894 C   0  0  2  0  0  0  0  0  0  0  0  0
  -16.3340  -24.6307  -11.7006 N   0  0  0  0  0  0  0  0  0  0  0  0
  -19.9136  -24.4630  -11.4427 C   0  0  2  0  0  0  0  0  0  0  0  0
  -17.6223  -17.1631  -13.1892 C   0  0  2  0  0  0  0  0  0  0  0  0
  -16.4790  -16.4849  -12.5608 N   0  0  0  0  0  0  0  0  0  0  0  0
  -15.4159  -22.3745  -11.4402 C   0  0  0  0  0  0  0  0  0  0  0  0
  -20.7181  -23.5036  -10.5043 C   0  0  2  0  0  0  0  0  0  0  0  0
  -21.3061  -22.5041  -11.3031 O   0  0  0  0  0  0  0  0  0  0  0  0
  -18.9713  -16.7940  -12.4540 C   0  0  0  0  0  0  0  0  0  0  0  0
  -15.6575  -20.8602  -11.8793 C   0  0  2  0  0  0  0  0  0  0  0  0
  -14.6046  -20.0050  -11.2899 N   0  0  0  0  0  0  0  0  0  0  0  0
  -19.7368  -22.8788   -9.4274 C   0  0  1  0  0  0  0  0  0  0  0  0
  -20.4936  -21.9480   -8.5155 N   0  0  0  0  0  0  0  0  0  0  0  0
  -20.1274  -17.8369  -12.7508 C   0  0  0  0  0  0  0  0  0  0  0  0
  -17.0795  -20.3944  -11.3597 C   0  0  2  0  0  0  0  0  0  0  0  0
  -19.0887  -24.0777   -8.5386 C   0  0  1  0  0  0  0  0  0  0  0  0
  -20.0537  -24.8299   -7.8314 O   0  0  0  0  0  0  0  0  0  0  0  0
  -19.8631  -19.0197  -13.3508 C   0  0  2  0  0  0  0  0  0  0  0  0
  -18.5430  -19.4000  -13.7528 O   0  0  0  0  0  0  0  0  0  0  0  0
  -18.1992  -21.3133  -11.9998 C   0  0  2  0  0  0  0  0  0  0  0  0
  -19.4855  -20.8919  -11.5165 O   0  0  0  0  0  0  0  0  0  0  0  0
  -18.3118  -25.0430   -9.4945 C   0  0  0  0  0  0  0  0  0  0  0  0
  -19.2312  -25.5338  -10.6112 O   0  0  0  0  0  0  0  0  0  0  0  0
  -20.9516  -20.0481  -13.6547 C   0  0  0  0  0  0  0  0  0  0  0  0
  -21.0689  -20.1621  -15.0814 O   0  0  0  0  0  0  0  0  0  0  0  0
  -17.9638  -22.8151  -11.5682 C   0  0  1  0  0  0  0  0  0  0  0  0
  -18.9750  -23.6051  -12.1697 O   0  0  0  0  0  0  0  0  0  0  0  0
  -18.0935  -23.6104   -7.4550 C   0  0  0  0  0  0  0  0  0  0  0  0
  -20.4024  -20.5068   -8.8257 C   0  0  0  0  0  0  0  0  0  0  0  0
  1  2  1  1  0  0  0
  1  6  1  0  0  0  0
  1 21  1  0  0  0  0
  3  4  1  1  0  0  0
  3  8  1  0  0  0  0
  3 28  1  0  0  0  0
  5  9  1  0  0  0  0
  5 25  1  0  0  0  0
  5 29  1  1  0  0  0
  6  7  1  1  0  0  0
  6 11  1  0  0  0  0
  8 12  1  0  0  0  0
  9 10  1  6  0  0  0
  9 14  1  0  0  0  0
 11 16  1  0  0  0  0
 12 13  1  1  0  0  0
 12 17  1  0  0  0  0
 14 15  1  1  0  0  0
 14 18  1  0  0  0  0
 15 31  1  0  0  0  0
 16 20  1  0  0  0  0
 17  2  1  6  0  0  0
 17 22  1  0  0  0  0
 18 19  1  1  0  0  0
 18 24  1  0  0  0  0
 18 30  1  0  0  0  0
 20 21  1  0  0  0  0
 20 26  1  6  0  0  0
 22 23  1  1  0  0  0
 22 28  1  0  0  0  0
 24 25  1  0  0  0  0
 26 27  1  0  0  0  0
 28 29  1  6  0  0  0
M  END
>  <CHROM.1>
178.80709084,60.97840902,-98.70656091,66.41332065,114.14648934,119.09431636
-18.61982465,-21.42709516,-11.37685753,-1.44336322,0.04045381,2.60908469

>  <Name>
ligand

>  <RI>
0

>  <Rbt.Current_Directory>
/home/itssahil/PROJECTS/Mol_Feturizer/New_Systems/rnas/4GPW

>  <Rbt.Executable>
rbdock ($Id: //depot/dev/client3/rdock/2013.1/src/exe/rbdock.cxx#4 $)

>  <Rbt.Library>
libRbt.so (2013.1, Build901 2013/11/27)

>  <Rbt.Parameter_File>
/export/apps/rDock/src/rDock_2013.1_src/data/scripts/dock_solv.prm

>  <Rbt.Receptor>
prm/blind_docking_100.prm

>  <SCORE>
67.4387

>  <SCORE.INTER>
50.5885

>  <SCORE.INTER.CONST>
1

>  <SCORE.INTER.POLAR>
0

>  <SCORE.INTER.ROT>
6

>  <SCORE.INTER.SOLV>
32.6375

>  <SCORE.INTER.VDW>
15.2465

>  <SCORE.INTER.norm>
1.63189

>  <SCORE.INTRA>
0.918745

>  <SCORE.INTRA.DIHEDRAL>
-9.25907

>  <SCORE.INTRA.DIHEDRAL.0>
19.2558

>  <SCORE.INTRA.POLAR>
0

>  <SCORE.INTRA.POLAR.0>
0

>  <SCORE.INTRA.REPUL>
0

>  <SCORE.INTRA.REPUL.0>
0

>  <SCORE.INTRA.SOLV>
1.57843

>  <SCORE.INTRA.SOLV.lig_0>
-64.5929

>  <SCORE.INTRA.VDW>
4.75907

>  <SCORE.INTRA.VDW.0>
-4.40538

>  <SCORE.INTRA.norm>
0.0296369

>  <SCORE.RESTR>
15.9315

>  <SCORE.RESTR.CAVITY>
15.9315

>  <SCORE.RESTR.norm>
0.513919

>  <SCORE.SYSTEM>
0

>  <SCORE.SYSTEM.CONST>
0

>  <SCORE.SYSTEM.DIHEDRAL>
0

>  <SCORE.SYSTEM.SOLV>
0

>  <SCORE.SYSTEM.norm>
0

>  <SCORE.heavy>
31

>  <SCORE.norm>
2.17544

>  <RMSD>
10.715

$$$$
ligand
 OpenBabel11021811493D
libRbt.so/2013.1/901 2013/11/27
 31 33  0  0  0  0  0  0  0  0999 V2000
  -15.4287  -21.4125  -10.2360 C   0  0  2  0  0  0  0  0  0  0  0  0
  -15.7743  -20.2203  -10.9258 O   0  0  0  0  0  0  0  0  0  0  0  0
  -19.7926  -18.8732  -11.3884 C   0  0  2  0  0  0  0  0  0  0  0  0
  -21.0725  -18.6542  -11.9809 N   0  0  0  0  0  0  0  0  0  0  0  0
  -21.4049  -22.0961  -10.6775 C   0  0  2  0  0  0  0  0  0  0  0  0
  -13.8996  -21.2895   -9.8371 C   0  0  2  0  0  0  0  0  0  0  0  0
  -13.7138  -20.1023   -8.9898 N   0  0  0  0  0  0  0  0  0  0  0  0
  -18.6837  -18.2504  -12.3436 C   0  0  0  0  0  0  0  0  0  0  0  0
  -21.2989  -23.0631   -9.4521 C   0  0  2  0  0  0  0  0  0  0  0  0
  -21.6451  -22.3399   -8.2946 O   0  0  0  0  0  0  0  0  0  0  0  0
  -13.0127  -21.1965  -11.1414 C   0  0  0  0  0  0  0  0  0  0  0  0
  -17.2531  -18.4884  -11.6795 C   0  0  2  0  0  0  0  0  0  0  0  0
  -16.2063  -17.9111  -12.5503 N   0  0  0  0  0  0  0  0  0  0  0  0
  -19.8216  -23.6304   -9.3579 C   0  0  1  0  0  0  0  0  0  0  0  0
  -19.6988  -24.5622   -8.1801 N   0  0  0  0  0  0  0  0  0  0  0  0
  -13.5214  -22.1638  -12.2895 C   0  0  0  0  0  0  0  0  0  0  0  0
  -17.0148  -20.0457  -11.5150 C   0  0  2  0  0  0  0  0  0  0  0  0
  -19.4790  -24.4523  -10.7197 C   0  0  1  0  0  0  0  0  0  0  0  0
  -20.3336  -25.5577  -10.9320 O   0  0  0  0  0  0  0  0  0  0  0  0
  -14.7251  -22.7743  -12.2053 C   0  0  2  0  0  0  0  0  0  0  0  0
  -15.6037  -22.5913  -11.0902 O   0  0  0  0  0  0  0  0  0  0  0  0
  -18.1379  -20.6525  -10.5780 C   0  0  2  0  0  0  0  0  0  0  0  0
  -17.9217  -22.0669  -10.4413 O   0  0  0  0  0  0  0  0  0  0  0  0
  -19.6167  -23.4791  -11.9375 C   0  0  0  0  0  0  0  0  0  0  0  0
  -21.0000  -22.8310  -11.9422 O   0  0  0  0  0  0  0  0  0  0  0  0
  -15.2473  -23.7144  -13.2908 C   0  0  0  0  0  0  0  0  0  0  0  0
  -16.6073  -23.3518  -13.5756 O   0  0  0  0  0  0  0  0  0  0  0  0
  -19.5576  -20.4187  -11.2314 C   0  0  1  0  0  0  0  0  0  0  0  0
  -20.5336  -20.9624  -10.3595 O   0  0  0  0  0  0  0  0  0  0  0  0
  -18.0561  -25.0488  -10.7712 C   0  0  0  0  0  0  0  0  0  0  0  0
  -19.4897  -23.9301   -6.8616 C   0  0  0  0  0  0  0  0  0  0  0  0
  1  2  1  6  0  0  0
  1  6  1  0  0  0  0
  1 21  1  0  0  0  0
  3  4  1  6  0  0  0
  3  8  1  0  0  0  0
  3 28  1  0  0  0  0
  5  9  1  0  0  0  0
  5 25  1  0  0  0  0
  5 29  1  1  0  0  0
  6  7  1  1  0  0  0
  6 11  1  0  0  0  0
  8 12  1  0  0  0  0
  9 10  1  1  0  0  0
  9 14  1  0  0  0  0
 11 16  1  0  0  0  0
 12 13  1  6  0  0  0
 12 17  1  0  0  0  0
 14 15  1  1  0  0  0
 14 18  1  0  0  0  0
 15 31  1  0  0  0  0
 16 20  1  0  0  0  0
 17  2  1  1  0  0  0
 17 22  1  0  0  0  0
 18 19  1  6  0  0  0
 18 24  1  0  0  0  0
 18 30  1  0  0  0  0
 20 21  1  0  0  0  0
 20 26  1  1  0  0  0
 22 23  1  6  0  0  0
 22 28  1  0  0  0  0
 24 25  1  0  0  0  0
 26 27  1  0  0  0  0
 28 29  1  1  0  0  0
M  END
>  <CHROM.1>
174.45701592,131.07242403,-81.73206835,158.52399028,-133.35166306,126.41325489
-17.94224434,-21.85198722,-10.86107913,-0.40334857,-0.16205834,2.88330272

>  <Name>
ligand

>  <RI>
0

>  <Rbt.Current_Directory>
/home/itssahil/PROJECTS/Mol_Feturizer/New_Systems/rnas/4GPW

>  <Rbt.Executable>
rbdock ($Id: //depot/dev/client3/rdock/2013.1/src/exe/rbdock.cxx#4 $)

>  <Rbt.Library>
libRbt.so (2013.1, Build901 2013/11/27)

>  <Rbt.Parameter_File>
/export/apps/rDock/src/rDock_2013.1_src/data/scripts/dock_solv.prm

>  <Rbt.Receptor>
prm/blind_docking_60.prm

>  <SCORE>
37.5979

>  <SCORE.INTER>
17.2001

>  <SCORE.INTER.CONST>
1

>  <SCORE.INTER.POLAR>
0

>  <SCORE.INTER.ROT>
6

>  <SCORE.INTER.SOLV>
31.9338

>  <SCORE.INTER.VDW>
-6.77785

>  <SCORE.INTER.norm>
0.554843

>  <SCORE.INTRA>
2.66762

>  <SCORE.INTRA.DIHEDRAL>
-1.19735

>  <SCORE.INTRA.DIHEDRAL.0>
19.2558

>  <SCORE.INTRA.POLAR>
0

>  <SCORE.INTRA.POLAR.0>
0

>  <SCORE.INTRA.REPUL>
0

>  <SCORE.INTRA.REPUL.0>
0

>  <SCORE.INTRA.SOLV>
-1.86066

>  <SCORE.INTRA.SOLV.lig_0>
-64.5929

>  <SCORE.INTRA.VDW>
4.19663

>  <SCORE.INTRA.VDW.0>
-4.40538

>  <SCORE.INTRA.norm>
0.0860522

>  <SCORE.RESTR>
17.7302

>  <SCORE.RESTR.CAVITY>
17.7302

>  <SCORE.RESTR.norm>
0.571941

>  <SCORE.SYSTEM>
0

>  <SCORE.SYSTEM.CONST>
0

>  <SCORE.SYSTEM.DIHEDRAL>
0

>  <SCORE.SYSTEM.SOLV>
0

>  <SCORE.SYSTEM.norm>
0

>  <SCORE.heavy>
31

>  <SCORE.norm>
1.21284

>  <RMSD>
10.737

$$$$
ligand
 OpenBabel11021811493D
libRbt.so/2013.1/901 2013/11/27
 31 33  0  0  0  0  0  0  0  0999 V2000
  -17.3165  -18.4947  -12.5529 C   0  0  2  0  0  0  0  0  0  0  0  0
  -17.1190  -19.0285  -11.2519 O   0  0  0  0  0  0  0  0  0  0  0  0
  -16.3953  -23.1248  -12.1852 C   0  0  2  0  0  0  0  0  0  0  0  0
  -16.1138  -24.5118  -11.9998 N   0  0  0  0  0  0  0  0  0  0  0  0
  -19.5560  -24.5698  -11.3624 C   0  0  2  0  0  0  0  0  0  0  0  0
  -17.7820  -16.9906  -12.3702 C   0  0  2  0  0  0  0  0  0  0  0  0
  -16.7476  -16.2493  -11.6337 N   0  0  0  0  0  0  0  0  0  0  0  0
  -15.2012  -22.2818  -11.5579 C   0  0  0  0  0  0  0  0  0  0  0  0
  -20.7810  -23.8590  -10.6971 C   0  0  2  0  0  0  0  0  0  0  0  0
  -21.4816  -23.1655  -11.7026 O   0  0  0  0  0  0  0  0  0  0  0  0
  -19.1620  -16.9477  -11.6018 C   0  0  0  0  0  0  0  0  0  0  0  0
  -15.5111  -20.7316  -11.7703 C   0  0  2  0  0  0  0  0  0  0  0  0
  -14.4088  -19.9285  -11.1981 N   0  0  0  0  0  0  0  0  0  0  0  0
  -20.2655  -22.8729   -9.5679 C   0  0  1  0  0  0  0  0  0  0  0  0
  -21.4321  -22.1756   -8.9173 N   0  0  0  0  0  0  0  0  0  0  0  0
  -20.1493  -18.0976  -12.0663 C   0  0  0  0  0  0  0  0  0  0  0  0
  -16.8702  -20.3737  -11.0396 C   0  0  2  0  0  0  0  0  0  0  0  0
  -19.4649  -23.7284   -8.4389 C   0  0  1  0  0  0  0  0  0  0  0  0
  -20.2700  -24.7004   -7.8031 O   0  0  0  0  0  0  0  0  0  0  0  0
  -19.7155  -19.1211  -12.8363 C   0  0  2  0  0  0  0  0  0  0  0  0
  -18.3580  -19.2298  -13.2773 O   0  0  0  0  0  0  0  0  0  0  0  0
  -18.0437  -21.2354  -11.6625 C   0  0  2  0  0  0  0  0  0  0  0  0
  -19.2716  -20.9132  -10.9884 O   0  0  0  0  0  0  0  0  0  0  0  0
  -18.2605  -24.4550   -9.1249 C   0  0  0  0  0  0  0  0  0  0  0  0
  -18.7517  -25.2974  -10.3006 O   0  0  0  0  0  0  0  0  0  0  0  0
  -20.6382  -20.2453  -13.3047 C   0  0  0  0  0  0  0  0  0  0  0  0
  -19.8226  -21.3794  -13.6377 O   0  0  0  0  0  0  0  0  0  0  0  0
  -17.7410  -22.7724  -11.4551 C   0  0  1  0  0  0  0  0  0  0  0  0
  -18.8042  -23.5082  -12.0356 O   0  0  0  0  0  0  0  0  0  0  0  0
  -18.8895  -22.8858   -7.2805 C   0  0  0  0  0  0  0  0  0  0  0  0
  -22.5027  -23.0434   -8.3858 C   0  0  0  0  0  0  0  0  0  0  0  0
  1  2  1  1  0  0  0
  1  6  1  0  0  0  0
  1 21  1  0  0  0  0
  3  4  1  1  0  0  0
  3  8  1  0  0  0  0
  3 28  1  0  0  0  0
  5  9  1  0  0  0  0
  5 25  1  0  0  0  0
  5 29  1  1  0  0  0
  6  7  1  1  0  0  0
  6 11  1  0  0  0  0
  8 12  1  0  0  0  0
  9 10  1  6  0  0  0
  9 14  1  0  0  0  0
 11 16  1  0  0  0  0
 12 13  1  1  0  0  0
 12 17  1  0  0  0  0
 14 15  1  1  0  0  0
 14 18  1  0  0  0  0
 15 31  1  0  0  0  0
 16 20  1  0  0  0  0
 17  2  1  6  0  0  0
 17 22  1  0  0  0  0
 18 19  1  1  0  0  0
 18 24  1  0  0  0  0
 18 30  1  0  0  0  0
 20 21  1  0  0  0  0
 20 26  1  6  0  0  0
 22 23  1  1  0  0  0
 22 28  1  0  0  0  0
 24 25  1  0  0  0  0
 26 27  1  0  0  0  0
 28 29  1  6  0  0  0
M  END
>  <CHROM.1>
171.74879874,91.72403868,53.73499557,62.00787410,-158.43883332,112.72913283
-18.64655935,-21.50692324,-11.09173882,-1.21114775,-0.21777945,2.77524404

>  <Name>
ligand

>  <RI>
0

>  <Rbt.Current_Directory>
/home/itssahil/PROJECTS/Mol_Feturizer/New_Systems/rnas/4GPW

>  <Rbt.Executable>
rbdock ($Id: //depot/dev/client3/rdock/2013.1/src/exe/rbdock.cxx#4 $)

>  <Rbt.Library>
libRbt.so (2013.1, Build901 2013/11/27)

>  <Rbt.Parameter_File>
/export/apps/rDock/src/rDock_2013.1_src/data/scripts/dock_solv.prm

>  <Rbt.Receptor>
prm/blind_docking_60.prm

>  <SCORE>
29.6655

>  <SCORE.INTER>
7.80912

>  <SCORE.INTER.CONST>
1

>  <SCORE.INTER.POLAR>
0

>  <SCORE.INTER.ROT>
6

>  <SCORE.INTER.SOLV>
24.4933

>  <SCORE.INTER.VDW>
-10.5584

>  <SCORE.INTER.norm>
0.251907

>  <SCORE.INTRA>
6.64237

>  <SCORE.INTRA.DIHEDRAL>
-4.95552

>  <SCORE.INTRA.DIHEDRAL.0>
19.2558

>  <SCORE.INTRA.POLAR>
0

>  <SCORE.INTRA.POLAR.0>
0

>  <SCORE.INTRA.REPUL>
0.287606

>  <SCORE.INTRA.REPUL.0>
0

>  <SCORE.INTRA.SOLV>
1.87896

>  <SCORE.INTRA.SOLV.lig_0>
-64.5929

>  <SCORE.INTRA.VDW>
6.74262

>  <SCORE.INTRA.VDW.0>
-4.40538

>  <SCORE.INTRA.norm>
0.21427

>  <SCORE.RESTR>
15.214

>  <SCORE.RESTR.CAVITY>
15.214

>  <SCORE.RESTR.norm>
0.490774

>  <SCORE.SYSTEM>
0

>  <SCORE.SYSTEM.CONST>
0

>  <SCORE.SYSTEM.DIHEDRAL>
0

>  <SCORE.SYSTEM.SOLV>
0

>  <SCORE.SYSTEM.norm>
0

>  <SCORE.heavy>
31

>  <SCORE.norm>
0.956951

>  <RMSD>
10.746

$$$$
ligand
 OpenBabel11021811493D
libRbt.so/2013.1/901 2013/11/27
 31 33  0  0  0  0  0  0  0  0999 V2000
  -17.0377  -18.5793  -12.8083 C   0  0  2  0  0  0  0  0  0  0  0  0
  -16.6425  -18.8916  -11.4806 O   0  0  0  0  0  0  0  0  0  0  0  0
  -17.0739  -23.1329  -11.4929 C   0  0  2  0  0  0  0  0  0  0  0  0
  -16.9734  -24.4912  -11.0659 N   0  0  0  0  0  0  0  0  0  0  0  0
  -20.1666  -22.8996  -11.4623 C   0  0  2  0  0  0  0  0  0  0  0  0
  -17.4167  -17.0403  -12.8284 C   0  0  2  0  0  0  0  0  0  0  0  0
  -16.2500  -16.2485  -12.4120 N   0  0  0  0  0  0  0  0  0  0  0  0
  -15.6053  -22.5334  -11.6105 C   0  0  0  0  0  0  0  0  0  0  0  0
  -21.5719  -23.0936  -10.8023 C   0  0  2  0  0  0  0  0  0  0  0  0
  -21.7721  -22.0435   -9.8858 O   0  0  0  0  0  0  0  0  0  0  0  0
  -18.6464  -16.7801  -11.8709 C   0  0  0  0  0  0  0  0  0  0  0  0
  -15.7156  -21.0174  -12.0941 C   0  0  2  0  0  0  0  0  0  0  0  0
  -14.3587  -20.4417  -12.2154 N   0  0  0  0  0  0  0  0  0  0  0  0
  -21.6230  -24.5053  -10.0827 C   0  0  1  0  0  0  0  0  0  0  0  0
  -22.9693  -24.7091   -9.4373 N   0  0  0  0  0  0  0  0  0  0  0  0
  -19.7344  -17.9296  -11.9570 C   0  0  0  0  0  0  0  0  0  0  0  0
  -16.5527  -20.1970  -11.0286 C   0  0  2  0  0  0  0  0  0  0  0  0
  -21.3845  -25.6752  -11.1880 C   0  0  1  0  0  0  0  0  0  0  0  0
  -22.3692  -25.6919  -12.2015 O   0  0  0  0  0  0  0  0  0  0  0  0
  -19.4693  -19.0955  -12.5887 C   0  0  2  0  0  0  0  0  0  0  0  0
  -18.2093  -19.3626  -13.2130 O   0  0  0  0  0  0  0  0  0  0  0  0
  -18.0043  -20.8188  -10.9098 C   0  0  2  0  0  0  0  0  0  0  0  0
  -18.7547  -20.0763   -9.9345 O   0  0  0  0  0  0  0  0  0  0  0  0
  -19.9882  -25.4509  -11.8582 C   0  0  0  0  0  0  0  0  0  0  0  0
  -19.8975  -24.0374  -12.4301 O   0  0  0  0  0  0  0  0  0  0  0  0
  -20.4937  -20.2245  -12.6936 C   0  0  0  0  0  0  0  0  0  0  0  0
  -20.0352  -21.1485  -13.6927 O   0  0  0  0  0  0  0  0  0  0  0  0
  -17.9003  -22.3213  -10.4315 C   0  0  1  0  0  0  0  0  0  0  0  0
  -19.2148  -22.8447  -10.3502 O   0  0  0  0  0  0  0  0  0  0  0  0
  -21.3919  -27.1101  -10.6188 C   0  0  0  0  0  0  0  0  0  0  0  0
  -23.2266  -23.9452   -8.1996 C   0  0  0  0  0  0  0  0  0  0  0  0
  1  2  1  1  0  0  0
  1  6  1  0  0  0  0
  1 21  1  0  0  0  0
  3  4  1  1  0  0  0
  3  8  1  0  0  0  0
  3 28  1  0  0  0  0
  5  9  1  0  0  0  0
  5 25  1  0  0  0  0
  5 29  1  1  0  0  0
  6  7  1  1  0  0  0
  6 11  1  0  0  0  0
  8 12  1  0  0  0  0
  9 10  1  1  0  0  0
  9 14  1  0  0  0  0
 11 16  1  0  0  0  0
 12 13  1  1  0  0  0
 12 17  1  0  0  0  0
 14 15  1  6  0  0  0
 14 18  1  0  0  0  0
 15 31  1  0  0  0  0
 16 20  1  0  0  0  0
 17  2  1  6  0  0  0
 17 22  1  0  0  0  0
 18 19  1  6  0  0  0
 18 24  1  0  0  0  0
 18 30  1  0  0  0  0
 20 21  1  0  0  0  0
 20 26  1  6  0  0  0
 22 23  1  1  0  0  0
 22 28  1  0  0  0  0
 24 25  1  0  0  0  0
 26 27  1  0  0  0  0
 28 29  1  6  0  0  0
M  END
>  <CHROM.1>
164.26143747,-161.66440455,-74.32120798,49.10944603,165.44739517,-60.26165444
-19.08757732,-21.70376291,-11.44432432,0.96659414,0.16698866,-0.13084861

>  <Name>
ligand

>  <RI>
0

>  <Rbt.Current_Directory>
/home/itssahil/PROJECTS/Mol_Feturizer/New_Systems/rnas/4GPW

>  <Rbt.Executable>
rbdock ($Id: //depot/dev/client3/rdock/2013.1/src/exe/rbdock.cxx#4 $)

>  <Rbt.Library>
libRbt.so (2013.1, Build901 2013/11/27)

>  <Rbt.Parameter_File>
/export/apps/rDock/src/rDock_2013.1_src/data/scripts/dock_solv.prm

>  <Rbt.Receptor>
prm/blind_docking_60.prm

>  <SCORE>
31.1171

>  <SCORE.INTER>
16.0732

>  <SCORE.INTER.CONST>
1

>  <SCORE.INTER.POLAR>
0

>  <SCORE.INTER.ROT>
6

>  <SCORE.INTER.SOLV>
24.3817

>  <SCORE.INTER.VDW>
-5.01176

>  <SCORE.INTER.norm>
0.518491

>  <SCORE.INTRA>
-2.61188

>  <SCORE.INTRA.DIHEDRAL>
-12.4846

>  <SCORE.INTRA.DIHEDRAL.0>
19.2558

>  <SCORE.INTRA.POLAR>
0

>  <SCORE.INTRA.POLAR.0>
0

>  <SCORE.INTRA.REPUL>
0

>  <SCORE.INTRA.REPUL.0>
0

>  <SCORE.INTRA.SOLV>
0.71034

>  <SCORE.INTRA.SOLV.lig_0>
-64.5929

>  <SCORE.INTRA.VDW>
3.27525

>  <SCORE.INTRA.VDW.0>
-4.40538

>  <SCORE.INTRA.norm>
-0.0842543

>  <SCORE.RESTR>
17.6558

>  <SCORE.RESTR.CAVITY>
17.6558

>  <SCORE.RESTR.norm>
0.569541

>  <SCORE.SYSTEM>
0

>  <SCORE.SYSTEM.CONST>
0

>  <SCORE.SYSTEM.DIHEDRAL>
0

>  <SCORE.SYSTEM.SOLV>
0

>  <SCORE.SYSTEM.norm>
0

>  <SCORE.heavy>
31

>  <SCORE.norm>
1.00378

>  <RMSD>
10.772

$$$$
ligand
 OpenBabel11021811493D
libRbt.so/2013.1/901 2013/11/27
 31 33  0  0  0  0  0  0  0  0999 V2000
  -17.3873  -18.5025  -12.4393 C   0  0  2  0  0  0  0  0  0  0  0  0
  -17.1114  -19.0512  -11.1589 O   0  0  0  0  0  0  0  0  0  0  0  0
  -16.3791  -23.1222  -12.1911 C   0  0  2  0  0  0  0  0  0  0  0  0
  -16.0613  -24.5058  -12.0428 N   0  0  0  0  0  0  0  0  0  0  0  0
  -19.4366  -24.6506  -11.1882 C   0  0  2  0  0  0  0  0  0  0  0  0
  -17.9349  -17.0337  -12.2050 C   0  0  2  0  0  0  0  0  0  0  0  0
  -16.9208  -16.2471  -11.4876 N   0  0  0  0  0  0  0  0  0  0  0  0
  -15.1610  -22.2646  -11.6337 C   0  0  0  0  0  0  0  0  0  0  0  0
  -20.7798  -24.0506  -10.6553 C   0  0  2  0  0  0  0  0  0  0  0  0
  -21.4816  -23.5116  -11.7506 O   0  0  0  0  0  0  0  0  0  0  0  0
  -19.2864  -17.0909  -11.3885 C   0  0  0  0  0  0  0  0  0  0  0  0
  -15.5117  -20.7180  -11.8049 C   0  0  2  0  0  0  0  0  0  0  0  0
  -14.3881  -19.9014  -11.2969 N   0  0  0  0  0  0  0  0  0  0  0  0
  -20.4636  -22.9398   -9.5693 C   0  0  1  0  0  0  0  0  0  0  0  0
  -21.7464  -22.3470   -9.0463 N   0  0  0  0  0  0  0  0  0  0  0  0
  -20.2193  -18.2882  -11.8453 C   0  0  0  0  0  0  0  0  0  0  0  0
  -16.8252  -20.3939  -10.9810 C   0  0  2  0  0  0  0  0  0  0  0  0
  -19.6531  -23.6193   -8.3330 C   0  0  1  0  0  0  0  0  0  0  0  0
  -20.3845  -24.6381   -7.6815 O   0  0  0  0  0  0  0  0  0  0  0  0
  -19.7532  -19.2668  -12.6539 C   0  0  2  0  0  0  0  0  0  0  0  0
  -18.4085  -19.2837  -13.1442 O   0  0  0  0  0  0  0  0  0  0  0  0
  -18.0223  -21.2699  -11.5356 C   0  0  2  0  0  0  0  0  0  0  0  0
  -19.2079  -20.9785  -10.7773 O   0  0  0  0  0  0  0  0  0  0  0  0
  -18.3269  -24.2389   -8.8867 C   0  0  0  0  0  0  0  0  0  0  0  0
  -18.6322  -25.2074  -10.0277 O   0  0  0  0  0  0  0  0  0  0  0  0
  -20.6234  -20.4346  -13.1164 C   0  0  0  0  0  0  0  0  0  0  0  0
  -20.5328  -20.5163  -14.5472 O   0  0  0  0  0  0  0  0  0  0  0  0
  -17.6792  -22.8034  -11.3687 C   0  0  1  0  0  0  0  0  0  0  0  0
  -18.7655  -23.5518  -11.8867 O   0  0  0  0  0  0  0  0  0  0  0  0
  -19.2631  -22.6417   -7.2037 C   0  0  0  0  0  0  0  0  0  0  0  0
  -22.7716  -23.3044   -8.5836 C   0  0  0  0  0  0  0  0  0  0  0  0
  1  2  1  1  0  0  0
  1  6  1  0  0  0  0
  1 21  1  0  0  0  0
  3  4  1  1  0  0  0
  3  8  1  0  0  0  0
  3 28  1  0  0  0  0
  5  9  1  0  0  0  0
  5 25  1  0  0  0  0
  5 29  1  1  0  0  0
  6  7  1  1  0  0  0
  6 11  1  0  0  0  0
  8 12  1  0  0  0  0
  9 10  1  6  0  0  0
  9 14  1  0  0  0  0
 11 16  1  0  0  0  0
 12 13  1  1  0  0  0
 12 17  1  0  0  0  0
 14 15  1  1  0  0  0
 14 18  1  0  0  0  0
 15 31  1  0  0  0  0
 16 20  1  0  0  0  0
 17  2  1  6  0  0  0
 17 22  1  0  0  0  0
 18 19  1  1  0  0  0
 18 24  1  0  0  0  0
 18 30  1  0  0  0  0
 20 21  1  0  0  0  0
 20 26  1  6  0  0  0
 22 23  1  1  0  0  0
 22 28  1  0  0  0  0
 24 25  1  0  0  0  0
 26 27  1  0  0  0  0
 28 29  1  6  0  0  0
M  END
>  <CHROM.1>
169.23074870,102.98437462,50.87180873,61.15536108,127.89261888,111.59433089
-18.72274854,-21.51842851,-11.04418191,1.18545426,0.18620676,-0.38717693

>  <Name>
ligand

>  <RI>
0

>  <Rbt.Current_Directory>
/home/itssahil/PROJECTS/Mol_Feturizer/New_Systems/rnas/4GPW

>  <Rbt.Executable>
rbdock ($Id: //depot/dev/client3/rdock/2013.1/src/exe/rbdock.cxx#4 $)

>  <Rbt.Library>
libRbt.so (2013.1, Build901 2013/11/27)

>  <Rbt.Parameter_File>
/export/apps/rDock/src/rDock_2013.1_src/data/scripts/dock_solv.prm

>  <Rbt.Receptor>
prm/blind_docking_60.prm

>  <SCORE>
27.2649

>  <SCORE.INTER>
7.6966

>  <SCORE.INTER.CONST>
1

>  <SCORE.INTER.POLAR>
0

>  <SCORE.INTER.ROT>
6

>  <SCORE.INTER.SOLV>
25.6513

>  <SCORE.INTER.VDW>
-11.0194

>  <SCORE.INTER.norm>
0.248277

>  <SCORE.INTRA>
4.59378

>  <SCORE.INTRA.DIHEDRAL>
-4.14484

>  <SCORE.INTRA.DIHEDRAL.0>
19.2558

>  <SCORE.INTRA.POLAR>
0

>  <SCORE.INTRA.POLAR.0>
0

>  <SCORE.INTRA.REPUL>
0

>  <SCORE.INTRA.REPUL.0>
0

>  <SCORE.INTRA.SOLV>
0.151863

>  <SCORE.INTRA.SOLV.lig_0>
-64.5929

>  <SCORE.INTRA.VDW>
6.59027

>  <SCORE.INTRA.VDW.0>
-4.40538

>  <SCORE.INTRA.norm>
0.148186

>  <SCORE.RESTR>
14.9745

>  <SCORE.RESTR.CAVITY>
14.9745

>  <SCORE.RESTR.norm>
0.483049

>  <SCORE.SYSTEM>
0

>  <SCORE.SYSTEM.CONST>
0

>  <SCORE.SYSTEM.DIHEDRAL>
0

>  <SCORE.SYSTEM.SOLV>
0

>  <SCORE.SYSTEM.norm>
0

>  <SCORE.heavy>
31

>  <SCORE.norm>
0.879513

>  <RMSD>
10.772

$$$$
ligand
 OpenBabel11021811493D
libRbt.so/2013.1/901 2013/11/27
 31 33  0  0  0  0  0  0  0  0999 V2000
  -18.9975  -17.9314  -11.0552 C   0  0  2  0  0  0  0  0  0  0  0  0
  -20.0139  -18.8391  -11.4549 O   0  0  0  0  0  0  0  0  0  0  0  0
  -20.7855  -23.0124  -11.8584 C   0  0  2  0  0  0  0  0  0  0  0  0
  -20.5563  -24.3999  -12.1022 N   0  0  0  0  0  0  0  0  0  0  0  0
  -19.4139  -24.1794   -8.7369 C   0  0  2  0  0  0  0  0  0  0  0  0
  -18.7607  -16.9387  -12.2680 C   0  0  2  0  0  0  0  0  0  0  0  0
  -20.0177  -16.2405  -12.5752 N   0  0  0  0  0  0  0  0  0  0  0  0
  -20.3832  -22.1997  -13.1652 C   0  0  0  0  0  0  0  0  0  0  0  0
  -18.2051  -23.3140   -8.2489 C   0  0  2  0  0  0  0  0  0  0  0  0
  -18.7153  -22.2303   -7.5086 O   0  0  0  0  0  0  0  0  0  0  0  0
  -18.2406  -17.7437  -13.5241 C   0  0  0  0  0  0  0  0  0  0  0  0
  -20.6452  -20.6493  -12.8967 C   0  0  2  0  0  0  0  0  0  0  0  0
  -20.2822  -19.8747  -14.1032 N   0  0  0  0  0  0  0  0  0  0  0  0
  -17.3760  -22.8157   -9.5048 C   0  0  1  0  0  0  0  0  0  0  0  0
  -16.2082  -21.9766   -9.0545 N   0  0  0  0  0  0  0  0  0  0  0  0
  -17.2026  -18.8751  -13.1305 C   0  0  0  0  0  0  0  0  0  0  0  0
  -19.7561  -20.1818  -11.6719 C   0  0  2  0  0  0  0  0  0  0  0  0
  -16.8151  -24.1077  -10.3193 C   0  0  1  0  0  0  0  0  0  0  0  0
  -15.9513  -24.9187   -9.5490 O   0  0  0  0  0  0  0  0  0  0  0  0
  -17.0218  -19.2382  -11.8405 C   0  0  2  0  0  0  0  0  0  0  0  0
  -17.7432  -18.6322  -10.7628 O   0  0  0  0  0  0  0  0  0  0  0  0
  -20.1557  -21.0139  -10.3852 C   0  0  2  0  0  0  0  0  0  0  0  0
  -19.3386  -20.5919   -9.2807 O   0  0  0  0  0  0  0  0  0  0  0  0
  -18.0338  -24.9769  -10.7759 C   0  0  0  0  0  0  0  0  0  0  0  0
  -18.9047  -25.3385   -9.5741 O   0  0  0  0  0  0  0  0  0  0  0  0
  -16.0291  -20.3224  -11.4234 C   0  0  0  0  0  0  0  0  0  0  0  0
  -15.7034  -21.0977  -12.5875 O   0  0  0  0  0  0  0  0  0  0  0  0
  -19.8985  -22.5510  -10.6465 C   0  0  1  0  0  0  0  0  0  0  0  0
  -20.2793  -23.2610   -9.4806 O   0  0  0  0  0  0  0  0  0  0  0  0
  -15.9986  -23.7669  -11.5843 C   0  0  0  0  0  0  0  0  0  0  0  0
  -15.4611  -22.4679   -7.8789 C   0  0  0  0  0  0  0  0  0  0  0  0
  1  2  1  6  0  0  0
  1  6  1  0  0  0  0
  1 21  1  0  0  0  0
  3  4  1  6  0  0  0
  3  8  1  0  0  0  0
  3 28  1  0  0  0  0
  5  9  1  0  0  0  0
  5 25  1  0  0  0  0
  5 29  1  6  0  0  0
  6  7  1  6  0  0  0
  6 11  1  0  0  0  0
  8 12  1  0  0  0  0
  9 10  1  6  0  0  0
  9 14  1  0  0  0  0
 11 16  1  0  0  0  0
 12 13  1  6  0  0  0
 12 17  1  0  0  0  0
 14 15  1  1  0  0  0
 14 18  1  0  0  0  0
 15 31  1  0  0  0  0
 16 20  1  0  0  0  0
 17  2  1  1  0  0  0
 17 22  1  0  0  0  0
 18 19  1  1  0  0  0
 18 24  1  0  0  0  0
 18 30  1  0  0  0  0
 20 21  1  0  0  0  0
 20 26  1  1  0  0  0
 22 23  1  1  0  0  0
 22 28  1  0  0  0  0
 24 25  1  0  0  0  0
 26 27  1  0  0  0  0
 28 29  1  1  0  0  0
M  END
>  <CHROM.1>
112.08362185,61.09713671,42.17433519,-143.25076713,-17.60122608,116.84996007
-18.45224503,-21.42962174,-10.90092984,-1.76041782,0.36733133,2.72945359

>  <Name>
ligand

>  <RI>
0

>  <Rbt.Current_Directory>
/home/itssahil/PROJECTS/Mol_Feturizer/New_Systems/rnas/4GPW

>  <Rbt.Executable>
rbdock ($Id: //depot/dev/client3/rdock/2013.1/src/exe/rbdock.cxx#4 $)

>  <Rbt.Library>
libRbt.so (2013.1, Build901 2013/11/27)

>  <Rbt.Parameter_File>
/export/apps/rDock/src/rDock_2013.1_src/data/scripts/dock_solv.prm

>  <Rbt.Receptor>
prm/blind_docking_60.prm

>  <SCORE>
52.311

>  <SCORE.INTER>
24.8576

>  <SCORE.INTER.CONST>
1

>  <SCORE.INTER.POLAR>
0

>  <SCORE.INTER.ROT>
6

>  <SCORE.INTER.SOLV>
21.7859

>  <SCORE.INTER.VDW>
1.70975

>  <SCORE.INTER.norm>
0.801858

>  <SCORE.INTRA>
8.76451

>  <SCORE.INTRA.DIHEDRAL>
1.93075

>  <SCORE.INTRA.DIHEDRAL.0>
19.2558

>  <SCORE.INTRA.POLAR>
0

>  <SCORE.INTRA.POLAR.0>
0

>  <SCORE.INTRA.REPUL>
0.0634761

>  <SCORE.INTRA.REPUL.0>
0

>  <SCORE.INTRA.SOLV>
5.46

>  <SCORE.INTRA.SOLV.lig_0>
-64.5929

>  <SCORE.INTRA.VDW>
4.75176

>  <SCORE.INTRA.VDW.0>
-4.40538

>  <SCORE.INTRA.norm>
0.282726

>  <SCORE.RESTR>
18.6889

>  <SCORE.RESTR.CAVITY>
18.6889

>  <SCORE.RESTR.norm>
0.602869

>  <SCORE.SYSTEM>
0

>  <SCORE.SYSTEM.CONST>
0

>  <SCORE.SYSTEM.DIHEDRAL>
0

>  <SCORE.SYSTEM.SOLV>
0

>  <SCORE.SYSTEM.norm>
0

>  <SCORE.heavy>
31

>  <SCORE.norm>
1.68745

>  <RMSD>
10.790

$$$$
ligand
 OpenBabel11021811493D
libRbt.so/2013.1/901 2013/11/27
 31 33  0  0  0  0  0  0  0  0999 V2000
  -17.2914  -18.6053  -12.5801 C   0  0  2  0  0  0  0  0  0  0  0  0
  -16.9524  -19.0020  -11.2594 O   0  0  0  0  0  0  0  0  0  0  0  0
  -16.8909  -23.2501  -11.6123 C   0  0  2  0  0  0  0  0  0  0  0  0
  -16.5881  -24.6145  -11.3223 N   0  0  0  0  0  0  0  0  0  0  0  0
  -19.9179  -23.5033  -11.2886 C   0  0  2  0  0  0  0  0  0  0  0  0
  -17.8674  -17.1316  -12.4871 C   0  0  2  0  0  0  0  0  0  0  0  0
  -16.8472  -16.2485  -11.9031 N   0  0  0  0  0  0  0  0  0  0  0  0
  -15.5231  -22.4656  -11.8214 C   0  0  0  0  0  0  0  0  0  0  0  0
  -21.2441  -22.9121  -10.7054 C   0  0  2  0  0  0  0  0  0  0  0  0
  -20.9984  -21.5776  -10.3294 O   0  0  0  0  0  0  0  0  0  0  0  0
  -19.1846  -17.1266  -11.6144 C   0  0  0  0  0  0  0  0  0  0  0  0
  -15.8599  -20.9420  -12.1523 C   0  0  2  0  0  0  0  0  0  0  0  0
  -14.6001  -20.1946  -12.3560 N   0  0  0  0  0  0  0  0  0  0  0  0
  -21.7069  -23.7853   -9.4658 C   0  0  1  0  0  0  0  0  0  0  0  0
  -22.9822  -23.2287   -8.8877 N   0  0  0  0  0  0  0  0  0  0  0  0
  -20.1031  -18.3869  -11.8976 C   0  0  0  0  0  0  0  0  0  0  0  0
  -16.6636  -20.3174  -10.9386 C   0  0  2  0  0  0  0  0  0  0  0  0
  -21.9733  -25.3124   -9.9600 C   0  0  1  0  0  0  0  0  0  0  0  0
  -22.9890  -25.4114  -10.9376 O   0  0  0  0  0  0  0  0  0  0  0  0
  -19.6433  -19.4392  -12.6117 C   0  0  2  0  0  0  0  0  0  0  0  0
  -18.3184  -19.4818  -13.1519 O   0  0  0  0  0  0  0  0  0  0  0  0
  -18.0118  -21.1219  -10.7321 C   0  0  2  0  0  0  0  0  0  0  0  0
  -18.7309  -20.5565   -9.6234 O   0  0  0  0  0  0  0  0  0  0  0  0
  -20.6462  -25.8792  -10.5657 C   0  0  0  0  0  0  0  0  0  0  0  0
  -20.1330  -24.9566  -11.6697 O   0  0  0  0  0  0  0  0  0  0  0  0
  -20.5001  -20.6696  -12.9064 C   0  0  0  0  0  0  0  0  0  0  0  0
  -19.6197  -21.7551  -13.2361 O   0  0  0  0  0  0  0  0  0  0  0  0
  -17.6834  -22.6325  -10.4045 C   0  0  1  0  0  0  0  0  0  0  0  0
  -18.9118  -23.3198  -10.2400 O   0  0  0  0  0  0  0  0  0  0  0  0
  -22.4160  -26.2825   -8.8438 C   0  0  0  0  0  0  0  0  0  0  0  0
  -22.9806  -22.9544   -7.4363 C   0  0  0  0  0  0  0  0  0  0  0  0
  1  2  1  1  0  0  0
  1  6  1  0  0  0  0
  1 21  1  0  0  0  0
  3  4  1  1  0  0  0
  3  8  1  0  0  0  0
  3 28  1  0  0  0  0
  5  9  1  0  0  0  0
  5 25  1  0  0  0  0
  5 29  1  1  0  0  0
  6  7  1  1  0  0  0
  6 11  1  0  0  0  0
  8 12  1  0  0  0  0
  9 10  1  1  0  0  0
  9 14  1  0  0  0  0
 11 16  1  0  0  0  0
 12 13  1  1  0  0  0
 12 17  1  0  0  0  0
 14 15  1  6  0  0  0
 14 18  1  0  0  0  0
 15 31  1  0  0  0  0
 16 20  1  0  0  0  0
 17  2  1  6  0  0  0
 17 22  1  0  0  0  0
 18 19  1  6  0  0  0
 18 24  1  0  0  0  0
 18 30  1  0  0  0  0
 20 21  1  0  0  0  0
 20 26  1  6  0  0  0
 22 23  1  1  0  0  0
 22 28  1  0  0  0  0
 24 25  1  0  0  0  0
 26 27  1  0  0  0  0
 28 29  1  6  0  0  0
M  END
>  <CHROM.1>
167.27944292,-123.96544256,-127.57701799,37.33862403,-159.63563737,-54.74789597
-19.19124141,-21.73123819,-11.11927874,0.91509391,0.28978660,-0.15109375

>  <Name>
ligand

>  <RI>
0

>  <Rbt.Current_Directory>
/home/itssahil/PROJECTS/Mol_Feturizer/New_Systems/rnas/4GPW

>  <Rbt.Executable>
rbdock ($Id: //depot/dev/client3/rdock/2013.1/src/exe/rbdock.cxx#4 $)

>  <Rbt.Library>
libRbt.so (2013.1, Build901 2013/11/27)

>  <Rbt.Parameter_File>
/export/apps/rDock/src/rDock_2013.1_src/data/scripts/dock_solv.prm

>  <Rbt.Receptor>
prm/blind_docking_60.prm

>  <SCORE>
37.556

>  <SCORE.INTER>
19.6556

>  <SCORE.INTER.CONST>
1

>  <SCORE.INTER.POLAR>
0

>  <SCORE.INTER.ROT>
6

>  <SCORE.INTER.SOLV>
24.6685

>  <SCORE.INTER.VDW>
-2.7191

>  <SCORE.INTER.norm>
0.634052

>  <SCORE.INTRA>
0.373135

>  <SCORE.INTRA.DIHEDRAL>
-4.70508

>  <SCORE.INTRA.DIHEDRAL.0>
19.2558

>  <SCORE.INTRA.POLAR>
0

>  <SCORE.INTRA.POLAR.0>
0

>  <SCORE.INTRA.REPUL>
0

>  <SCORE.INTRA.REPUL.0>
0

>  <SCORE.INTRA.SOLV>
1.14257

>  <SCORE.INTRA.SOLV.lig_0>
-64.5929

>  <SCORE.INTRA.VDW>
2.15439

>  <SCORE.INTRA.VDW.0>
-4.40538

>  <SCORE.INTRA.norm>
0.0120366

>  <SCORE.RESTR>
17.5273

>  <SCORE.RESTR.CAVITY>
17.5273

>  <SCORE.RESTR.norm>
0.565396

>  <SCORE.SYSTEM>
0

>  <SCORE.SYSTEM.CONST>
0

>  <SCORE.SYSTEM.DIHEDRAL>
0

>  <SCORE.SYSTEM.SOLV>
0

>  <SCORE.SYSTEM.norm>
0

>  <SCORE.heavy>
31

>  <SCORE.norm>
1.21148

>  <RMSD>
10.795

$$$$
ligand
 OpenBabel11021811493D
libRbt.so/2013.1/901 2013/11/27
 31 33  0  0  0  0  0  0  0  0999 V2000
  -15.3382  -20.7779  -10.8484 C   0  0  2  0  0  0  0  0  0  0  0  0
  -16.0557  -20.9502  -12.0617 O   0  0  0  0  0  0  0  0  0  0  0  0
  -19.7715  -19.1267  -11.0409 C   0  0  2  0  0  0  0  0  0  0  0  0
  -21.1077  -18.6427  -11.1736 N   0  0  0  0  0  0  0  0  0  0  0  0
  -21.6572  -22.2355  -10.5431 C   0  0  2  0  0  0  0  0  0  0  0  0
  -14.0837  -21.7446  -10.9113 C   0  0  2  0  0  0  0  0  0  0  0  0
  -13.2613  -21.3959  -12.0791 N   0  0  0  0  0  0  0  0  0  0  0  0
  -18.8671  -18.4114  -12.1365 C   0  0  0  0  0  0  0  0  0  0  0  0
  -21.6577  -23.2459   -9.3484 C   0  0  2  0  0  0  0  0  0  0  0  0
  -21.7589  -22.5083   -8.1533 O   0  0  0  0  0  0  0  0  0  0  0  0
  -14.5694  -23.2461  -10.9911 C   0  0  0  0  0  0  0  0  0  0  0  0
  -17.3720  -18.9463  -11.9851 C   0  0  2  0  0  0  0  0  0  0  0  0
  -16.5119  -18.2888  -12.9927 N   0  0  0  0  0  0  0  0  0  0  0  0
  -20.3249  -24.1035   -9.3863 C   0  0  1  0  0  0  0  0  0  0  0  0
  -20.3055  -25.0812   -8.2399 N   0  0  0  0  0  0  0  0  0  0  0  0
  -15.8199  -23.5281  -10.0587 C   0  0  0  0  0  0  0  0  0  0  0  0
  -17.3609  -20.5140  -12.2118 C   0  0  2  0  0  0  0  0  0  0  0  0
  -20.2630  -24.9299  -10.7865 C   0  0  1  0  0  0  0  0  0  0  0  0
  -21.3394  -25.8313  -10.9482 O   0  0  0  0  0  0  0  0  0  0  0  0
  -16.5095  -22.5132   -9.4903 C   0  0  2  0  0  0  0  0  0  0  0  0
  -16.1593  -21.1395   -9.6886 O   0  0  0  0  0  0  0  0  0  0  0  0
  -18.2810  -21.2080  -11.1257 C   0  0  2  0  0  0  0  0  0  0  0  0
  -18.2744  -22.6287  -11.3434 O   0  0  0  0  0  0  0  0  0  0  0  0
  -20.2916  -23.9073  -11.9707 C   0  0  0  0  0  0  0  0  0  0  0  0
  -21.5092  -22.9928  -11.8500 O   0  0  0  0  0  0  0  0  0  0  0  0
  -17.7179  -22.7468   -8.5847 C   0  0  0  0  0  0  0  0  0  0  0  0
  -18.4756  -21.5280   -8.5323 O   0  0  0  0  0  0  0  0  0  0  0  0
  -19.7635  -20.6808  -11.2713 C   0  0  1  0  0  0  0  0  0  0  0  0
  -20.5506  -21.3134  -10.2769 O   0  0  0  0  0  0  0  0  0  0  0  0
  -19.0005  -25.8000  -10.9655 C   0  0  0  0  0  0  0  0  0  0  0  0
  -21.5452  -25.8513   -8.0125 C   0  0  0  0  0  0  0  0  0  0  0  0
  1  2  1  6  0  0  0
  1  6  1  0  0  0  0
  1 21  1  0  0  0  0
  3  4  1  6  0  0  0
  3  8  1  0  0  0  0
  3 28  1  0  0  0  0
  5  9  1  0  0  0  0
  5 25  1  0  0  0  0
  5 29  1  1  0  0  0
  6  7  1  6  0  0  0
  6 11  1  0  0  0  0
  8 12  1  0  0  0  0
  9 10  1  1  0  0  0
  9 14  1  0  0  0  0
 11 16  1  0  0  0  0
 12 13  1  6  0  0  0
 12 17  1  0  0  0  0
 14 15  1  1  0  0  0
 14 18  1  0  0  0  0
 15 31  1  0  0  0  0
 16 20  1  0  0  0  0
 17  2  1  1  0  0  0
 17 22  1  0  0  0  0
 18 19  1  6  0  0  0
 18 24  1  0  0  0  0
 18 30  1  0  0  0  0
 20 21  1  0  0  0  0
 20 26  1  1  0  0  0
 22 23  1  6  0  0  0
 22 28  1  0  0  0  0
 24 25  1  0  0  0  0
 26 27  1  0  0  0  0
 28 29  1  1  0  0  0
M  END
>  <CHROM.1>
163.99437722,148.14074206,46.39926968,60.33978005,-160.34833578,125.93686123
-18.59481008,-22.15500274,-10.59467114,-0.66740654,-0.08771759,2.79227785

>  <Name>
ligand

>  <RI>
0

>  <Rbt.Current_Directory>
/home/itssahil/PROJECTS/Mol_Feturizer/New_Systems/rnas/4GPW

>  <Rbt.Executable>
rbdock ($Id: //depot/dev/client3/rdock/2013.1/src/exe/rbdock.cxx#4 $)

>  <Rbt.Library>
libRbt.so (2013.1, Build901 2013/11/27)

>  <Rbt.Parameter_File>
/export/apps/rDock/src/rDock_2013.1_src/data/scripts/dock_solv.prm

>  <Rbt.Receptor>
prm/blind_docking_60.prm

>  <SCORE>
50.1249

>  <SCORE.INTER>
22.8922

>  <SCORE.INTER.CONST>
1

>  <SCORE.INTER.POLAR>
0

>  <SCORE.INTER.ROT>
6

>  <SCORE.INTER.SOLV>
28.2856

>  <SCORE.INTER.VDW>
-1.76709

>  <SCORE.INTER.norm>
0.738457

>  <SCORE.INTRA>
9.58705

>  <SCORE.INTRA.DIHEDRAL>
-3.80604

>  <SCORE.INTRA.DIHEDRAL.0>
19.2558

>  <SCORE.INTRA.POLAR>
0

>  <SCORE.INTRA.POLAR.0>
0

>  <SCORE.INTRA.REPUL>
0

>  <SCORE.INTRA.REPUL.0>
0

>  <SCORE.INTRA.SOLV>
0.585986

>  <SCORE.INTRA.SOLV.lig_0>
-64.5929

>  <SCORE.INTRA.VDW>
11.1971

>  <SCORE.INTRA.VDW.0>
-4.40538

>  <SCORE.INTRA.norm>
0.30926

>  <SCORE.RESTR>
17.6457

>  <SCORE.RESTR.CAVITY>
17.6457

>  <SCORE.RESTR.norm>
0.569216

>  <SCORE.SYSTEM>
0

>  <SCORE.SYSTEM.CONST>
0

>  <SCORE.SYSTEM.DIHEDRAL>
0

>  <SCORE.SYSTEM.SOLV>
0

>  <SCORE.SYSTEM.norm>
0

>  <SCORE.heavy>
31

>  <SCORE.norm>
1.61693

>  <RMSD>
10.800

$$$$
ligand
 OpenBabel11021811493D
libRbt.so/2013.1/901 2013/11/27
 31 33  0  0  0  0  0  0  0  0999 V2000
  -15.3104  -20.7719  -10.8532 C   0  0  2  0  0  0  0  0  0  0  0  0
  -16.0280  -20.9311  -12.0682 O   0  0  0  0  0  0  0  0  0  0  0  0
  -19.7516  -19.1392  -11.0200 C   0  0  2  0  0  0  0  0  0  0  0  0
  -21.0907  -18.6611  -11.1447 N   0  0  0  0  0  0  0  0  0  0  0  0
  -21.6353  -22.2439  -10.5522 C   0  0  2  0  0  0  0  0  0  0  0  0
  -14.0599  -21.7433  -10.9237 C   0  0  2  0  0  0  0  0  0  0  0  0
  -13.2355  -21.3883  -12.0882 N   0  0  0  0  0  0  0  0  0  0  0  0
  -18.8534  -18.4071  -12.1096 C   0  0  0  0  0  0  0  0  0  0  0  0
  -21.6675  -23.2459   -9.3509 C   0  0  2  0  0  0  0  0  0  0  0  0
  -21.7714  -22.4984   -8.1622 O   0  0  0  0  0  0  0  0  0  0  0  0
  -14.5518  -23.2420  -11.0162 C   0  0  0  0  0  0  0  0  0  0  0  0
  -17.3551  -18.9353  -11.9671 C   0  0  2  0  0  0  0  0  0  0  0  0
  -16.5006  -18.2622  -12.9692 N   0  0  0  0  0  0  0  0  0  0  0  0
  -20.3486  -24.1255   -9.3663 C   0  0  1  0  0  0  0  0  0  0  0  0
  -20.3596  -25.0954   -8.2132 N   0  0  0  0  0  0  0  0  0  0  0  0
  -15.8038  -23.5265  -10.0867 C   0  0  0  0  0  0  0  0  0  0  0  0
  -17.3359  -20.5004  -12.2109 C   0  0  2  0  0  0  0  0  0  0  0  0
  -20.2830  -24.9624  -10.7600 C   0  0  1  0  0  0  0  0  0  0  0  0
  -21.3719  -25.8472  -10.9292 O   0  0  0  0  0  0  0  0  0  0  0  0
  -16.4895  -22.5135   -9.5102 C   0  0  2  0  0  0  0  0  0  0  0  0
  -16.1334  -21.1398   -9.6969 O   0  0  0  0  0  0  0  0  0  0  0  0
  -18.2499  -21.2112  -11.1306 C   0  0  2  0  0  0  0  0  0  0  0  0
  -18.2360  -22.6294  -11.3638 O   0  0  0  0  0  0  0  0  0  0  0  0
  -20.2799  -23.9477  -11.9514 C   0  0  0  0  0  0  0  0  0  0  0  0
  -21.4836  -23.0126  -11.8521 O   0  0  0  0  0  0  0  0  0  0  0  0
  -17.6993  -22.7496   -8.6070 C   0  0  0  0  0  0  0  0  0  0  0  0
  -18.4645  -21.5352   -8.5635 O   0  0  0  0  0  0  0  0  0  0  0  0
  -19.7356  -20.6906  -11.2673 C   0  0  1  0  0  0  0  0  0  0  0  0
  -20.5171  -21.3383  -10.2783 O   0  0  0  0  0  0  0  0  0  0  0  0
  -19.0328  -25.8544  -10.9173 C   0  0  0  0  0  0  0  0  0  0  0  0
  -19.8614  -24.5841   -6.9201 C   0  0  0  0  0  0  0  0  0  0  0  0
  1  2  1  6  0  0  0
  1  6  1  0  0  0  0
  1 21  1  0  0  0  0
  3  4  1  6  0  0  0
  3  8  1  0  0  0  0
  3 28  1  0  0  0  0
  5  9  1  0  0  0  0
  5 25  1  0  0  0  0
  5 29  1  1  0  0  0
  6  7  1  6  0  0  0
  6 11  1  0  0  0  0
  8 12  1  0  0  0  0
  9 10  1  1  0  0  0
  9 14  1  0  0  0  0
 11 16  1  0  0  0  0
 12 13  1  6  0  0  0
 12 17  1  0  0  0  0
 14 15  1  1  0  0  0
 14 18  1  0  0  0  0
 15 31  1  0  0  0  0
 16 20  1  0  0  0  0
 17  2  1  1  0  0  0
 17 22  1  0  0  0  0
 18 19  1  6  0  0  0
 18 24  1  0  0  0  0
 18 30  1  0  0  0  0
 20 21  1  0  0  0  0
 20 26  1  1  0  0  0
 22 23  1  6  0  0  0
 22 28  1  0  0  0  0
 24 25  1  0  0  0  0
 26 27  1  0  0  0  0
 28 29  1  1  0  0  0
M  END
>  <CHROM.1>
163.32229089,150.35800922,-85.04455436,60.54409202,-159.35538341,124.72603228
-18.52674503,-22.11758700,-10.55549712,-0.65865360,-0.08046618,2.74657815

>  <Name>
ligand

>  <RI>
0

>  <Rbt.Current_Directory>
/home/itssahil/PROJECTS/Mol_Feturizer/New_Systems/rnas/4GPW

>  <Rbt.Executable>
rbdock ($Id: //depot/dev/client3/rdock/2013.1/src/exe/rbdock.cxx#4 $)

>  <Rbt.Library>
libRbt.so (2013.1, Build901 2013/11/27)

>  <Rbt.Parameter_File>
/export/apps/rDock/src/rDock_2013.1_src/data/scripts/dock_solv.prm

>  <Rbt.Receptor>
prm/blind_docking_60.prm

>  <SCORE>
47.501

>  <SCORE.INTER>
22.2935

>  <SCORE.INTER.CONST>
1

>  <SCORE.INTER.POLAR>
0

>  <SCORE.INTER.ROT>
6

>  <SCORE.INTER.SOLV>
28.326

>  <SCORE.INTER.VDW>
-2.17969

>  <SCORE.INTER.norm>
0.719144

>  <SCORE.INTRA>
7.80094

>  <SCORE.INTRA.DIHEDRAL>
-3.80748

>  <SCORE.INTRA.DIHEDRAL.0>
19.2558

>  <SCORE.INTRA.POLAR>
0

>  <SCORE.INTRA.POLAR.0>
0

>  <SCORE.INTRA.REPUL>
0

>  <SCORE.INTRA.REPUL.0>
0

>  <SCORE.INTRA.SOLV>
0.490379

>  <SCORE.INTRA.SOLV.lig_0>
-64.5929

>  <SCORE.INTRA.VDW>
9.45948

>  <SCORE.INTRA.VDW.0>
-4.40538

>  <SCORE.INTRA.norm>
0.251643

>  <SCORE.RESTR>
17.4066

>  <SCORE.RESTR.CAVITY>
17.4066

>  <SCORE.RESTR.norm>
0.561504

>  <SCORE.SYSTEM>
0

>  <SCORE.SYSTEM.CONST>
0

>  <SCORE.SYSTEM.DIHEDRAL>
0

>  <SCORE.SYSTEM.SOLV>
0

>  <SCORE.SYSTEM.norm>
0

>  <SCORE.heavy>
31

>  <SCORE.norm>
1.53229

>  <RMSD>
10.808

$$$$
ligand
 OpenBabel11021811493D
libRbt.so/2013.1/901 2013/11/27
 31 33  0  0  0  0  0  0  0  0999 V2000
  -20.5497  -19.1720  -12.7152 C   0  0  2  0  0  0  0  0  0  0  0  0
  -19.2681  -19.6644  -13.0779 O   0  0  0  0  0  0  0  0  0  0  0  0
  -15.8798  -21.6978  -11.4781 C   0  0  2  0  0  0  0  0  0  0  0  0
  -14.9067  -22.1420  -10.5331 N   0  0  0  0  0  0  0  0  0  0  0  0
  -17.7871  -24.4041   -9.8545 C   0  0  2  0  0  0  0  0  0  0  0  0
  -21.1058  -18.3666  -13.9620 C   0  0  2  0  0  0  0  0  0  0  0  0
  -21.1812  -19.2640  -15.1242 N   0  0  0  0  0  0  0  0  0  0  0  0
  -15.8367  -20.1088  -11.5342 C   0  0  0  0  0  0  0  0  0  0  0  0
  -18.9679  -25.2754  -10.3976 C   0  0  2  0  0  0  0  0  0  0  0  0
  -18.4988  -26.0012  -11.5094 O   0  0  0  0  0  0  0  0  0  0  0  0
  -20.1670  -17.1317  -14.2625 C   0  0  0  0  0  0  0  0  0  0  0  0
  -16.9190  -19.6111  -12.5950 C   0  0  2  0  0  0  0  0  0  0  0  0
  -16.8917  -18.1341  -12.6669 N   0  0  0  0  0  0  0  0  0  0  0  0
  -20.1777  -24.3307  -10.7937 C   0  0  1  0  0  0  0  0  0  0  0  0
  -21.3245  -25.1524  -11.3230 N   0  0  0  0  0  0  0  0  0  0  0  0
  -19.6633  -16.4183  -12.9396 C   0  0  0  0  0  0  0  0  0  0  0  0
  -18.3537  -20.0988  -12.1336 C   0  0  2  0  0  0  0  0  0  0  0  0
  -20.6742  -23.5195   -9.4736 C   0  0  1  0  0  0  0  0  0  0  0  0
  -21.1327  -24.3669   -8.4398 O   0  0  0  0  0  0  0  0  0  0  0  0
  -19.8309  -16.9956  -11.7283 C   0  0  2  0  0  0  0  0  0  0  0  0
  -20.4662  -18.2677  -11.5641 O   0  0  0  0  0  0  0  0  0  0  0  0
  -18.3731  -21.6808  -12.0642 C   0  0  2  0  0  0  0  0  0  0  0  0
  -19.6741  -22.1160  -11.6354 O   0  0  0  0  0  0  0  0  0  0  0  0
  -19.4751  -22.6755   -8.9267 C   0  0  0  0  0  0  0  0  0  0  0  0
  -18.2662  -23.5753   -8.6767 O   0  0  0  0  0  0  0  0  0  0  0  0
  -19.3605  -16.3371  -10.4321 C   0  0  0  0  0  0  0  0  0  0  0  0
  -19.2984  -14.9193  -10.6517 O   0  0  0  0  0  0  0  0  0  0  0  0
  -17.3018  -22.1790  -11.0148 C   0  0  1  0  0  0  0  0  0  0  0  0
  -17.3407  -23.5955  -10.9913 O   0  0  0  0  0  0  0  0  0  0  0  0
  -21.8442  -22.5431   -9.7199 C   0  0  0  0  0  0  0  0  0  0  0  0
  -21.2572  -25.5324  -12.7488 C   0  0  0  0  0  0  0  0  0  0  0  0
  1  2  1  6  0  0  0
  1  6  1  0  0  0  0
  1 21  1  0  0  0  0
  3  4  1  1  0  0  0
  3  8  1  0  0  0  0
  3 28  1  0  0  0  0
  5  9  1  0  0  0  0
  5 25  1  0  0  0  0
  5 29  1  6  0  0  0
  6  7  1  6  0  0  0
  6 11  1  0  0  0  0
  8 12  1  0  0  0  0
  9 10  1  6  0  0  0
  9 14  1  0  0  0  0
 11 16  1  0  0  0  0
 12 13  1  1  0  0  0
 12 17  1  0  0  0  0
 14 15  1  1  0  0  0
 14 18  1  0  0  0  0
 15 31  1  0  0  0  0
 16 20  1  0  0  0  0
 17  2  1  6  0  0  0
 17 22  1  0  0  0  0
 18 19  1  1  0  0  0
 18 24  1  0  0  0  0
 18 30  1  0  0  0  0
 20 21  1  0  0  0  0
 20 26  1  1  0  0  0
 22 23  1  1  0  0  0
 22 28  1  0  0  0  0
 24 25  1  0  0  0  0
 26 27  1  0  0  0  0
 28 29  1  6  0  0  0
M  END
>  <CHROM.1>
162.41932744,121.95963028,-83.19522087,-140.61239479,24.43381932,128.57751509
-19.10998848,-21.15265224,-11.42938623,1.58090512,-0.19427535,-0.28124178

>  <Name>
ligand

>  <RI>
0

>  <Rbt.Current_Directory>
/home/itssahil/PROJECTS/Mol_Feturizer/New_Systems/rnas/4GPW

>  <Rbt.Executable>
rbdock ($Id: //depot/dev/client3/rdock/2013.1/src/exe/rbdock.cxx#4 $)

>  <Rbt.Library>
libRbt.so (2013.1, Build901 2013/11/27)

>  <Rbt.Parameter_File>
/export/apps/rDock/src/rDock_2013.1_src/data/scripts/dock_solv.prm

>  <Rbt.Receptor>
prm/blind_docking_100.prm

>  <SCORE>
33.0524

>  <SCORE.INTER>
7.11419

>  <SCORE.INTER.CONST>
1

>  <SCORE.INTER.POLAR>
0

>  <SCORE.INTER.ROT>
6

>  <SCORE.INTER.SOLV>
21.3431

>  <SCORE.INTER.VDW>
-9.97156

>  <SCORE.INTER.norm>
0.22949

>  <SCORE.INTRA>
7.68149

>  <SCORE.INTRA.DIHEDRAL>
4.23332

>  <SCORE.INTRA.DIHEDRAL.0>
19.2558

>  <SCORE.INTRA.POLAR>
0

>  <SCORE.INTRA.POLAR.0>
0

>  <SCORE.INTRA.REPUL>
0

>  <SCORE.INTRA.REPUL.0>
0

>  <SCORE.INTRA.SOLV>
0.838059

>  <SCORE.INTRA.SOLV.lig_0>
-64.5929

>  <SCORE.INTRA.VDW>
5.1458

>  <SCORE.INTRA.VDW.0>
-4.40538

>  <SCORE.INTRA.norm>
0.24779

>  <SCORE.RESTR>
18.2567

>  <SCORE.RESTR.CAVITY>
18.2567

>  <SCORE.RESTR.norm>
0.588925

>  <SCORE.SYSTEM>
0

>  <SCORE.SYSTEM.CONST>
0

>  <SCORE.SYSTEM.DIHEDRAL>
0

>  <SCORE.SYSTEM.SOLV>
0

>  <SCORE.SYSTEM.norm>
0

>  <SCORE.heavy>
31

>  <SCORE.norm>
1.0662

>  <RMSD>
10.815

$$$$
ligand
 OpenBabel11021811493D
libRbt.so/2013.1/901 2013/11/27
 31 33  0  0  0  0  0  0  0  0999 V2000
  -15.1660  -20.7579  -10.9172 C   0  0  2  0  0  0  0  0  0  0  0  0
  -15.8170  -20.7529  -12.1793 O   0  0  0  0  0  0  0  0  0  0  0  0
  -19.6564  -19.2645  -11.0756 C   0  0  2  0  0  0  0  0  0  0  0  0
  -20.9949  -18.7851  -11.2025 N   0  0  0  0  0  0  0  0  0  0  0  0
  -21.3000  -22.6062  -11.4330 C   0  0  2  0  0  0  0  0  0  0  0  0
  -14.0312  -21.8624  -10.9863 C   0  0  2  0  0  0  0  0  0  0  0  0
  -13.0985  -21.5315  -12.0737 N   0  0  0  0  0  0  0  0  0  0  0  0
  -18.6990  -18.3080  -11.9113 C   0  0  0  0  0  0  0  0  0  0  0  0
  -21.9243  -23.3345  -10.1968 C   0  0  2  0  0  0  0  0  0  0  0  0
  -22.5529  -22.3655   -9.3914 O   0  0  0  0  0  0  0  0  0  0  0  0
  -14.6821  -23.2841  -11.2140 C   0  0  0  0  0  0  0  0  0  0  0  0
  -17.2018  -18.8385  -11.7649 C   0  0  2  0  0  0  0  0  0  0  0  0
  -16.2929  -17.9587  -12.5312 N   0  0  0  0  0  0  0  0  0  0  0  0
  -20.7810  -24.0922   -9.4020 C   0  0  1  0  0  0  0  0  0  0  0  0
  -21.3630  -24.7977   -8.2045 N   0  0  0  0  0  0  0  0  0  0  0  0
  -16.0156  -23.4798  -10.3799 C   0  0  0  0  0  0  0  0  0  0  0  0
  -17.1217  -20.3156  -12.3313 C   0  0  2  0  0  0  0  0  0  0  0  0
  -20.0924  -25.1943  -10.3812 C   0  0  1  0  0  0  0  0  0  0  0  0
  -20.9998  -26.1770  -10.8374 O   0  0  0  0  0  0  0  0  0  0  0  0
  -16.6184  -22.4331   -9.7719 C   0  0  2  0  0  0  0  0  0  0  0  0
  -16.0983  -21.1012   -9.8389 O   0  0  0  0  0  0  0  0  0  0  0  0
  -18.0948  -21.2495  -11.5014 C   0  0  2  0  0  0  0  0  0  0  0  0
  -18.0247  -22.5855  -12.0269 O   0  0  0  0  0  0  0  0  0  0  0  0
  -19.4980  -24.4538  -11.6251 C   0  0  0  0  0  0  0  0  0  0  0  0
  -20.5777  -23.6153  -12.3068 O   0  0  0  0  0  0  0  0  0  0  0  0
  -17.9029  -22.5840   -8.9581 C   0  0  0  0  0  0  0  0  0  0  0  0
  -18.5334  -21.2961   -8.8807 O   0  0  0  0  0  0  0  0  0  0  0  0
  -19.5796  -20.7276  -11.6428 C   0  0  1  0  0  0  0  0  0  0  0  0
  -20.4155  -21.5790  -10.8780 O   0  0  0  0  0  0  0  0  0  0  0  0
  -18.9432  -25.9991   -9.7373 C   0  0  0  0  0  0  0  0  0  0  0  0
  -22.5876  -25.5894   -8.4397 C   0  0  0  0  0  0  0  0  0  0  0  0
  1  2  1  6  0  0  0
  1  6  1  0  0  0  0
  1 21  1  0  0  0  0
  3  4  1  6  0  0  0
  3  8  1  0  0  0  0
  3 28  1  0  0  0  0
  5  9  1  0  0  0  0
  5 25  1  0  0  0  0
  5 29  1  1  0  0  0
  6  7  1  6  0  0  0
  6 11  1  0  0  0  0
  8 12  1  0  0  0  0
  9 10  1  1  0  0  0
  9 14  1  0  0  0  0
 11 16  1  0  0  0  0
 12 13  1  6  0  0  0
 12 17  1  0  0  0  0
 14 15  1  1  0  0  0
 14 18  1  0  0  0  0
 15 31  1  0  0  0  0
 16 20  1  0  0  0  0
 17  2  1  1  0  0  0
 17 22  1  0  0  0  0
 18 19  1  6  0  0  0
 18 24  1  0  0  0  0
 18 30  1  0  0  0  0
 20 21  1  0  0  0  0
 20 26  1  1  0  0  0
 22 23  1  6  0  0  0
 22 28  1  0  0  0  0
 24 25  1  0  0  0  0
 26 27  1  0  0  0  0
 28 29  1  1  0  0  0
M  END
>  <CHROM.1>
155.07276456,176.07590615,46.93484800,55.96183312,-158.86350663,137.36312883
-18.56754765,-22.19056509,-10.76379664,-0.65894127,-0.10408041,2.86692839

>  <Name>
ligand

>  <RI>
0

>  <Rbt.Current_Directory>
/home/itssahil/PROJECTS/Mol_Feturizer/New_Systems/rnas/4GPW

>  <Rbt.Executable>
rbdock ($Id: //depot/dev/client3/rdock/2013.1/src/exe/rbdock.cxx#4 $)

>  <Rbt.Library>
libRbt.so (2013.1, Build901 2013/11/27)

>  <Rbt.Parameter_File>
/export/apps/rDock/src/rDock_2013.1_src/data/scripts/dock_solv.prm

>  <Rbt.Receptor>
prm/blind_docking_60.prm

>  <SCORE>
47.4161

>  <SCORE.INTER>
18.6745

>  <SCORE.INTER.CONST>
1

>  <SCORE.INTER.POLAR>
0

>  <SCORE.INTER.ROT>
6

>  <SCORE.INTER.SOLV>
29.8661

>  <SCORE.INTER.VDW>
-5.10573

>  <SCORE.INTER.norm>
0.602402

>  <SCORE.INTRA>
11.358

>  <SCORE.INTRA.DIHEDRAL>
-7.42771

>  <SCORE.INTRA.DIHEDRAL.0>
19.2558

>  <SCORE.INTRA.POLAR>
0

>  <SCORE.INTRA.POLAR.0>
0

>  <SCORE.INTRA.REPUL>
0

>  <SCORE.INTRA.REPUL.0>
0

>  <SCORE.INTRA.SOLV>
0.175755

>  <SCORE.INTRA.SOLV.lig_0>
-64.5929

>  <SCORE.INTRA.VDW>
14.984

>  <SCORE.INTRA.VDW.0>
-4.40538

>  <SCORE.INTRA.norm>
0.366387

>  <SCORE.RESTR>
17.3836

>  <SCORE.RESTR.CAVITY>
17.3836

>  <SCORE.RESTR.norm>
0.560763

>  <SCORE.SYSTEM>
0

>  <SCORE.SYSTEM.CONST>
0

>  <SCORE.SYSTEM.DIHEDRAL>
0

>  <SCORE.SYSTEM.SOLV>
0

>  <SCORE.SYSTEM.norm>
0

>  <SCORE.heavy>
31

>  <SCORE.norm>
1.52955

>  <RMSD>
10.821

$$$$
ligand
 OpenBabel11021811493D
libRbt.so/2013.1/901 2013/11/27
 31 33  0  0  0  0  0  0  0  0999 V2000
  -14.9413  -20.6417  -11.0128 C   0  0  2  0  0  0  0  0  0  0  0  0
  -15.5698  -20.5307  -12.2814 O   0  0  0  0  0  0  0  0  0  0  0  0
  -19.4543  -19.2123  -11.1207 C   0  0  2  0  0  0  0  0  0  0  0  0
  -20.8123  -18.7860  -11.2281 N   0  0  0  0  0  0  0  0  0  0  0  0
  -21.0668  -22.5231  -11.5024 C   0  0  2  0  0  0  0  0  0  0  0  0
  -13.4930  -21.2345  -11.2643 C   0  0  2  0  0  0  0  0  0  0  0  0
  -12.7495  -20.3347  -12.1583 N   0  0  0  0  0  0  0  0  0  0  0  0
  -18.5451  -18.2079  -11.9541 C   0  0  0  0  0  0  0  0  0  0  0  0
  -21.7344  -23.2164  -10.2688 C   0  0  2  0  0  0  0  0  0  0  0  0
  -22.2980  -22.2134   -9.4570 O   0  0  0  0  0  0  0  0  0  0  0  0
  -13.6087  -22.6815  -11.8885 C   0  0  0  0  0  0  0  0  0  0  0  0
  -17.0263  -18.6790  -11.8295 C   0  0  2  0  0  0  0  0  0  0  0  0
  -16.1619  -17.7541  -12.5940 N   0  0  0  0  0  0  0  0  0  0  0  0
  -20.6406  -24.0503   -9.4804 C   0  0  1  0  0  0  0  0  0  0  0  0
  -21.2647  -24.7233   -8.2853 N   0  0  0  0  0  0  0  0  0  0  0  0
  -14.7783  -23.5299  -11.2370 C   0  0  0  0  0  0  0  0  0  0  0  0
  -16.8926  -20.1448  -12.4148 C   0  0  2  0  0  0  0  0  0  0  0  0
  -20.0260  -25.1890  -10.4667 C   0  0  1  0  0  0  0  0  0  0  0  0
  -20.9955  -26.1090  -10.9261 O   0  0  0  0  0  0  0  0  0  0  0  0
  -15.7009  -22.9481  -10.4376 C   0  0  2  0  0  0  0  0  0  0  0  0
  -15.6802  -21.5502  -10.1305 O   0  0  0  0  0  0  0  0  0  0  0  0
  -17.8184  -21.1272  -11.5867 C   0  0  2  0  0  0  0  0  0  0  0  0
  -17.7000  -22.4529  -12.1293 O   0  0  0  0  0  0  0  0  0  0  0  0
  -19.3875  -24.4816  -11.7081 C   0  0  0  0  0  0  0  0  0  0  0  0
  -20.4123  -23.5719  -12.3830 O   0  0  0  0  0  0  0  0  0  0  0  0
  -16.8405  -23.7341   -9.7907 C   0  0  0  0  0  0  0  0  0  0  0  0
  -17.9688  -22.8553   -9.6619 O   0  0  0  0  0  0  0  0  0  0  0  0
  -19.3245  -20.6642  -11.7066 C   0  0  1  0  0  0  0  0  0  0  0  0
  -20.1171  -21.5578  -10.9440 O   0  0  0  0  0  0  0  0  0  0  0  0
  -18.9297  -26.0694   -9.8295 C   0  0  0  0  0  0  0  0  0  0  0  0
  -21.1886  -23.9907   -7.0050 C   0  0  0  0  0  0  0  0  0  0  0  0
  1  2  1  6  0  0  0
  1  6  1  0  0  0  0
  1 21  1  0  0  0  0
  3  4  1  6  0  0  0
  3  8  1  0  0  0  0
  3 28  1  0  0  0  0
  5  9  1  0  0  0  0
  5 25  1  0  0  0  0
  5 29  1  1  0  0  0
  6  7  1  6  0  0  0
  6 11  1  0  0  0  0
  8 12  1  0  0  0  0
  9 10  1  1  0  0  0
  9 14  1  0  0  0  0
 11 16  1  0  0  0  0
 12 13  1  6  0  0  0
 12 17  1  0  0  0  0
 14 15  1  1  0  0  0
 14 18  1  0  0  0  0
 15 31  1  0  0  0  0
 16 20  1  0  0  0  0
 17  2  1  1  0  0  0
 17 22  1  0  0  0  0
 18 19  1  6  0  0  0
 18 24  1  0  0  0  0
 18 30  1  0  0  0  0
 20 21  1  0  0  0  0
 20 26  1  1  0  0  0
 22 23  1  6  0  0  0
 22 28  1  0  0  0  0
 24 25  1  0  0  0  0
 26 27  1  0  0  0  0
 28 29  1  1  0  0  0
M  END
>  <CHROM.1>
174.69478178,-177.34900622,-93.61136371,61.83252243,-148.84567354,130.87920161
-18.19391984,-22.12688564,-10.91252072,-0.61303147,-0.13660375,2.84698303

>  <Name>
ligand

>  <RI>
0

>  <Rbt.Current_Directory>
/home/itssahil/PROJECTS/Mol_Feturizer/New_Systems/rnas/4GPW

>  <Rbt.Executable>
rbdock ($Id: //depot/dev/client3/rdock/2013.1/src/exe/rbdock.cxx#4 $)

>  <Rbt.Library>
libRbt.so (2013.1, Build901 2013/11/27)

>  <Rbt.Parameter_File>
/export/apps/rDock/src/rDock_2013.1_src/data/scripts/dock_solv.prm

>  <Rbt.Receptor>
prm/blind_docking_60.prm

>  <SCORE>
31.4964

>  <SCORE.INTER>
12.4714

>  <SCORE.INTER.CONST>
1

>  <SCORE.INTER.POLAR>
0

>  <SCORE.INTER.ROT>
6

>  <SCORE.INTER.SOLV>
24.2363

>  <SCORE.INTER.VDW>
-7.36446

>  <SCORE.INTER.norm>
0.402304

>  <SCORE.INTRA>
0.80007

>  <SCORE.INTRA.DIHEDRAL>
-9.13879

>  <SCORE.INTRA.DIHEDRAL.0>
19.2558

>  <SCORE.INTRA.POLAR>
0

>  <SCORE.INTRA.POLAR.0>
0

>  <SCORE.INTRA.REPUL>
0.0324207

>  <SCORE.INTRA.REPUL.0>
0

>  <SCORE.INTRA.SOLV>
0.0502315

>  <SCORE.INTRA.SOLV.lig_0>
-64.5929

>  <SCORE.INTRA.VDW>
5.18225

>  <SCORE.INTRA.VDW.0>
-4.40538

>  <SCORE.INTRA.norm>
0.0258087

>  <SCORE.RESTR>
18.2249

>  <SCORE.RESTR.CAVITY>
18.2249

>  <SCORE.RESTR.norm>
0.587899

>  <SCORE.SYSTEM>
0

>  <SCORE.SYSTEM.CONST>
0

>  <SCORE.SYSTEM.DIHEDRAL>
0

>  <SCORE.SYSTEM.SOLV>
0

>  <SCORE.SYSTEM.norm>
0

>  <SCORE.heavy>
31

>  <SCORE.norm>
1.01601

>  <RMSD>
10.821

$$$$
ligand
 OpenBabel11021811493D
libRbt.so/2013.1/901 2013/11/27
 31 33  0  0  0  0  0  0  0  0999 V2000
  -17.4900  -18.6081  -13.1182 C   0  0  2  0  0  0  0  0  0  0  0  0
  -17.4017  -18.9926  -11.7540 O   0  0  0  0  0  0  0  0  0  0  0  0
  -16.6770  -23.1744  -12.1564 C   0  0  2  0  0  0  0  0  0  0  0  0
  -16.4534  -24.5366  -11.7934 N   0  0  0  0  0  0  0  0  0  0  0  0
  -19.8145  -24.6143  -11.6122 C   0  0  2  0  0  0  0  0  0  0  0  0
  -17.7831  -17.0506  -13.1419 C   0  0  2  0  0  0  0  0  0  0  0  0
  -16.6958  -16.3423  -12.4507 N   0  0  0  0  0  0  0  0  0  0  0  0
  -15.5429  -22.2833  -11.4858 C   0  0  0  0  0  0  0  0  0  0  0  0
  -20.8216  -23.9416  -10.6214 C   0  0  2  0  0  0  0  0  0  0  0  0
  -21.6208  -23.0438  -11.3547 O   0  0  0  0  0  0  0  0  0  0  0  0
  -19.1748  -16.7580  -12.4532 C   0  0  0  0  0  0  0  0  0  0  0  0
  -15.7875  -20.7614  -11.8962 C   0  0  2  0  0  0  0  0  0  0  0  0
  -14.7391  -19.9148  -11.2866 N   0  0  0  0  0  0  0  0  0  0  0  0
  -20.0142  -23.1953   -9.4793 C   0  0  1  0  0  0  0  0  0  0  0  0
  -20.9682  -22.5375   -8.5161 N   0  0  0  0  0  0  0  0  0  0  0  0
  -20.2725  -17.8400  -12.8230 C   0  0  0  0  0  0  0  0  0  0  0  0
  -17.2127  -20.3099  -11.3727 C   0  0  2  0  0  0  0  0  0  0  0  0
  -19.1108  -24.2800   -8.6701 C   0  0  1  0  0  0  0  0  0  0  0  0
  -19.8794  -25.2865   -8.0430 O   0  0  0  0  0  0  0  0  0  0  0  0
  -19.9342  -18.9942  -13.4412 C   0  0  2  0  0  0  0  0  0  0  0  0
  -18.5842  -19.3081  -13.7985 O   0  0  0  0  0  0  0  0  0  0  0  0
  -18.3274  -21.2194  -12.0345 C   0  0  2  0  0  0  0  0  0  0  0  0
  -19.6166  -20.8112  -11.5476 O   0  0  0  0  0  0  0  0  0  0  0  0
  -18.1292  -24.9633   -9.6793 C   0  0  0  0  0  0  0  0  0  0  0  0
  -18.9070  -25.5622  -10.8497 O   0  0  0  0  0  0  0  0  0  0  0  0
  -20.9648  -20.0587  -13.8149 C   0  0  0  0  0  0  0  0  0  0  0  0
  -21.1137  -20.0505  -15.2432 O   0  0  0  0  0  0  0  0  0  0  0  0
  -18.0890  -22.7286  -11.6313 C   0  0  1  0  0  0  0  0  0  0  0  0
  -19.0959  -23.5097  -12.2517 O   0  0  0  0  0  0  0  0  0  0  0  0
  -18.2538  -23.6838   -7.5329 C   0  0  0  0  0  0  0  0  0  0  0  0
  -20.3676  -21.6478   -7.5015 C   0  0  0  0  0  0  0  0  0  0  0  0
  1  2  1  1  0  0  0
  1  6  1  0  0  0  0
  1 21  1  0  0  0  0
  3  4  1  1  0  0  0
  3  8  1  0  0  0  0
  3 28  1  0  0  0  0
  5  9  1  0  0  0  0
  5 25  1  0  0  0  0
  5 29  1  1  0  0  0
  6  7  1  1  0  0  0
  6 11  1  0  0  0  0
  8 12  1  0  0  0  0
  9 10  1  6  0  0  0
  9 14  1  0  0  0  0
 11 16  1  0  0  0  0
 12 13  1  1  0  0  0
 12 17  1  0  0  0  0
 14 15  1  1  0  0  0
 14 18  1  0  0  0  0
 15 31  1  0  0  0  0
 16 20  1  0  0  0  0
 17  2  1  6  0  0  0
 17 22  1  0  0  0  0
 18 19  1  1  0  0  0
 18 24  1  0  0  0  0
 18 30  1  0  0  0  0
 20 21  1  0  0  0  0
 20 26  1  6  0  0  0
 22 23  1  1  0  0  0
 22 28  1  0  0  0  0
 24 25  1  0  0  0  0
 26 27  1  0  0  0  0
 28 29  1  6  0  0  0
M  END
>  <CHROM.1>
176.96734228,74.54417276,-171.87369917,64.69973862,108.74219144,103.51894116
-18.71216611,-21.50189776,-11.39800594,-1.43627643,0.10615144,2.60003704

>  <Name>
ligand

>  <RI>
0

>  <Rbt.Current_Directory>
/home/itssahil/PROJECTS/Mol_Feturizer/New_Systems/rnas/4GPW

>  <Rbt.Executable>
rbdock ($Id: //depot/dev/client3/rdock/2013.1/src/exe/rbdock.cxx#4 $)

>  <Rbt.Library>
libRbt.so (2013.1, Build901 2013/11/27)

>  <Rbt.Parameter_File>
/export/apps/rDock/src/rDock_2013.1_src/data/scripts/dock_solv.prm

>  <Rbt.Receptor>
prm/blind_docking_100.prm

>  <SCORE>
44.466

>  <SCORE.INTER>
23.4378

>  <SCORE.INTER.CONST>
1

>  <SCORE.INTER.POLAR>
0

>  <SCORE.INTER.ROT>
6

>  <SCORE.INTER.SOLV>
31.7284

>  <SCORE.INTER.VDW>
-2.55093

>  <SCORE.INTER.norm>
0.756058

>  <SCORE.INTRA>
2.91657

>  <SCORE.INTRA.DIHEDRAL>
-10.2685

>  <SCORE.INTRA.DIHEDRAL.0>
19.2558

>  <SCORE.INTRA.POLAR>
0

>  <SCORE.INTRA.POLAR.0>
0

>  <SCORE.INTRA.REPUL>
0

>  <SCORE.INTRA.REPUL.0>
0

>  <SCORE.INTRA.SOLV>
1.28377

>  <SCORE.INTRA.SOLV.lig_0>
-64.5929

>  <SCORE.INTRA.VDW>
7.40891

>  <SCORE.INTRA.VDW.0>
-4.40538

>  <SCORE.INTRA.norm>
0.0940828

>  <SCORE.RESTR>
18.1116

>  <SCORE.RESTR.CAVITY>
18.1116

>  <SCORE.RESTR.norm>
0.584245

>  <SCORE.SYSTEM>
0

>  <SCORE.SYSTEM.CONST>
0

>  <SCORE.SYSTEM.DIHEDRAL>
0

>  <SCORE.SYSTEM.SOLV>
0

>  <SCORE.SYSTEM.norm>
0

>  <SCORE.heavy>
31

>  <SCORE.norm>
1.43439

>  <RMSD>
10.830

$$$$
ligand
 OpenBabel11021811493D
libRbt.so/2013.1/901 2013/11/27
 31 33  0  0  0  0  0  0  0  0999 V2000
  -20.6729  -19.2820  -12.9712 C   0  0  2  0  0  0  0  0  0  0  0  0
  -19.4715  -20.0037  -13.2004 O   0  0  0  0  0  0  0  0  0  0  0  0
  -16.4722  -22.3540  -11.2887 C   0  0  2  0  0  0  0  0  0  0  0  0
  -15.7125  -22.9687  -10.2483 N   0  0  0  0  0  0  0  0  0  0  0  0
  -18.5541  -25.2457  -10.4963 C   0  0  2  0  0  0  0  0  0  0  0  0
  -20.8303  -18.2536  -14.1671 C   0  0  2  0  0  0  0  0  0  0  0  0
  -20.8779  -18.9918  -15.4378 N   0  0  0  0  0  0  0  0  0  0  0  0
  -16.4309  -20.7781  -11.0767 C   0  0  0  0  0  0  0  0  0  0  0  0
  -20.1051  -25.0595  -10.5851 C   0  0  2  0  0  0  0  0  0  0  0  0
  -20.4864  -25.2132  -11.9318 O   0  0  0  0  0  0  0  0  0  0  0  0
  -19.6267  -17.2300  -14.1537 C   0  0  0  0  0  0  0  0  0  0  0  0
  -17.2739  -20.0892  -12.2425 C   0  0  2  0  0  0  0  0  0  0  0  0
  -17.2440  -18.6210  -12.0671 N   0  0  0  0  0  0  0  0  0  0  0  0
  -20.4933  -23.6241  -10.0355 C   0  0  1  0  0  0  0  0  0  0  0  0
  -21.9847  -23.4246  -10.1163 N   0  0  0  0  0  0  0  0  0  0  0  0
  -19.2310  -16.7803  -12.6862 C   0  0  0  0  0  0  0  0  0  0  0  0
  -18.7692  -20.6071  -12.1714 C   0  0  2  0  0  0  0  0  0  0  0  0
  -20.0280  -23.5054   -8.4809 C   0  0  1  0  0  0  0  0  0  0  0  0
  -20.6530  -24.4532   -7.6394 O   0  0  0  0  0  0  0  0  0  0  0  0
  -19.7197  -17.4255  -11.6029 C   0  0  2  0  0  0  0  0  0  0  0  0
  -20.6142  -18.5379  -11.7092 O   0  0  0  0  0  0  0  0  0  0  0  0
  -18.7901  -22.1788  -12.3645 C   0  0  2  0  0  0  0  0  0  0  0  0
  -20.1482  -22.6431  -12.2887 O   0  0  0  0  0  0  0  0  0  0  0  0
  -18.4798  -23.7216   -8.4059 C   0  0  0  0  0  0  0  0  0  0  0  0
  -18.0991  -25.0475   -9.0619 O   0  0  0  0  0  0  0  0  0  0  0  0
  -19.3623  -17.0190  -10.1739 C   0  0  0  0  0  0  0  0  0  0  0  0
  -19.0193  -18.2088   -9.4465 O   0  0  0  0  0  0  0  0  0  0  0  0
  -17.9555  -22.8660  -11.2120 C   0  0  1  0  0  0  0  0  0  0  0  0
  -17.9872  -24.2665  -11.4266 O   0  0  0  0  0  0  0  0  0  0  0  0
  -20.3308  -22.1435   -7.8202 C   0  0  0  0  0  0  0  0  0  0  0  0
  -22.8199  -24.4289   -9.4267 C   0  0  0  0  0  0  0  0  0  0  0  0
  1  2  1  6  0  0  0
  1  6  1  0  0  0  0
  1 21  1  0  0  0  0
  3  4  1  1  0  0  0
  3  8  1  0  0  0  0
  3 28  1  0  0  0  0
  5  9  1  0  0  0  0
  5 25  1  0  0  0  0
  5 29  1  6  0  0  0
  6  7  1  6  0  0  0
  6 11  1  0  0  0  0
  8 12  1  0  0  0  0
  9 10  1  6  0  0  0
  9 14  1  0  0  0  0
 11 16  1  0  0  0  0
 12 13  1  1  0  0  0
 12 17  1  0  0  0  0
 14 15  1  1  0  0  0
 14 18  1  0  0  0  0
 15 31  1  0  0  0  0
 16 20  1  0  0  0  0
 17  2  1  6  0  0  0
 17 22  1  0  0  0  0
 18 19  1  1  0  0  0
 18 24  1  0  0  0  0
 18 30  1  0  0  0  0
 20 21  1  0  0  0  0
 20 26  1  1  0  0  0
 22 23  1  1  0  0  0
 22 28  1  0  0  0  0
 24 25  1  0  0  0  0
 26 27  1  0  0  0  0
 28 29  1  6  0  0  0
M  END
>  <CHROM.1>
155.75034363,72.27528348,56.18705098,-126.35993290,-133.16503951,123.12129022
-19.32079871,-21.47781225,-11.13353282,1.55233078,-0.10263871,-0.46516354

>  <Name>
ligand

>  <RI>
0

>  <Rbt.Current_Directory>
/home/itssahil/PROJECTS/Mol_Feturizer/New_Systems/rnas/4GPW

>  <Rbt.Executable>
rbdock ($Id: //depot/dev/client3/rdock/2013.1/src/exe/rbdock.cxx#4 $)

>  <Rbt.Library>
libRbt.so (2013.1, Build901 2013/11/27)

>  <Rbt.Parameter_File>
/export/apps/rDock/src/rDock_2013.1_src/data/scripts/dock_solv.prm

>  <Rbt.Receptor>
prm/blind_docking_60.prm

>  <SCORE>
31.6487

>  <SCORE.INTER>
5.70081

>  <SCORE.INTER.CONST>
1

>  <SCORE.INTER.POLAR>
0

>  <SCORE.INTER.ROT>
6

>  <SCORE.INTER.SOLV>
21.4315

>  <SCORE.INTER.VDW>
-10.9433

>  <SCORE.INTER.norm>
0.183897

>  <SCORE.INTRA>
7.81723

>  <SCORE.INTRA.DIHEDRAL>
0.048603

>  <SCORE.INTRA.DIHEDRAL.0>
19.2558

>  <SCORE.INTRA.POLAR>
0

>  <SCORE.INTRA.POLAR.0>
0

>  <SCORE.INTRA.REPUL>
0

>  <SCORE.INTRA.REPUL.0>
0

>  <SCORE.INTRA.SOLV>
5.16665

>  <SCORE.INTRA.SOLV.lig_0>
-64.5929

>  <SCORE.INTRA.VDW>
5.20961

>  <SCORE.INTRA.VDW.0>
-4.40538

>  <SCORE.INTRA.norm>
0.252169

>  <SCORE.RESTR>
18.1306

>  <SCORE.RESTR.CAVITY>
18.1306

>  <SCORE.RESTR.norm>
0.584859

>  <SCORE.SYSTEM>
0

>  <SCORE.SYSTEM.CONST>
0

>  <SCORE.SYSTEM.DIHEDRAL>
0

>  <SCORE.SYSTEM.SOLV>
0

>  <SCORE.SYSTEM.norm>
0

>  <SCORE.heavy>
31

>  <SCORE.norm>
1.02092

>  <RMSD>
10.831

$$$$
ligand
 OpenBabel11021811493D
libRbt.so/2013.1/901 2013/11/27
 31 33  0  0  0  0  0  0  0  0999 V2000
  -14.9237  -20.5551  -11.0414 C   0  0  2  0  0  0  0  0  0  0  0  0
  -15.5760  -20.5122  -12.3020 O   0  0  0  0  0  0  0  0  0  0  0  0
  -19.4541  -19.1828  -11.1325 C   0  0  2  0  0  0  0  0  0  0  0  0
  -20.8117  -18.7548  -11.2367 N   0  0  0  0  0  0  0  0  0  0  0  0
  -21.0420  -22.5217  -11.4964 C   0  0  2  0  0  0  0  0  0  0  0  0
  -13.5640  -21.3424  -11.2504 C   0  0  2  0  0  0  0  0  0  0  0  0
  -12.7497  -20.6445  -12.2562 N   0  0  0  0  0  0  0  0  0  0  0  0
  -18.5464  -18.1833  -11.9733 C   0  0  0  0  0  0  0  0  0  0  0  0
  -21.6923  -23.2238  -10.2586 C   0  0  2  0  0  0  0  0  0  0  0  0
  -22.2844  -22.2307   -9.4550 O   0  0  0  0  0  0  0  0  0  0  0  0
  -13.8691  -22.8257  -11.7016 C   0  0  0  0  0  0  0  0  0  0  0  0
  -17.0279  -18.6563  -11.8523 C   0  0  2  0  0  0  0  0  0  0  0  0
  -16.1647  -17.7359  -12.6237 N   0  0  0  0  0  0  0  0  0  0  0  0
  -20.5773  -24.0215   -9.4625 C   0  0  1  0  0  0  0  0  0  0  0  0
  -21.1845  -24.7025   -8.2633 N   0  0  0  0  0  0  0  0  0  0  0  0
  -15.1083  -23.4488  -10.9345 C   0  0  0  0  0  0  0  0  0  0  0  0
  -16.8986  -20.1247  -12.4322 C   0  0  2  0  0  0  0  0  0  0  0  0
  -19.9302  -25.1502  -10.4395 C   0  0  1  0  0  0  0  0  0  0  0  0
  -20.8733  -26.0998  -10.8933 O   0  0  0  0  0  0  0  0  0  0  0  0
  -15.9296  -22.6743  -10.1899 C   0  0  2  0  0  0  0  0  0  0  0  0
  -15.7349  -21.2635  -10.0463 O   0  0  0  0  0  0  0  0  0  0  0  0
  -17.8229  -21.1023  -11.5968 C   0  0  2  0  0  0  0  0  0  0  0  0
  -17.7087  -22.4303  -12.1344 O   0  0  0  0  0  0  0  0  0  0  0  0
  -19.3093  -24.4348  -11.6852 C   0  0  0  0  0  0  0  0  0  0  0  0
  -20.3577  -23.5586  -12.3683 O   0  0  0  0  0  0  0  0  0  0  0  0
  -17.1318  -23.2400   -9.4353 C   0  0  0  0  0  0  0  0  0  0  0  0
  -17.9762  -22.1414   -9.0581 O   0  0  0  0  0  0  0  0  0  0  0  0
  -19.3287  -20.6373  -11.7130 C   0  0  1  0  0  0  0  0  0  0  0  0
  -20.1200  -21.5266  -10.9439 O   0  0  0  0  0  0  0  0  0  0  0  0
  -18.8111  -25.9955   -9.7943 C   0  0  0  0  0  0  0  0  0  0  0  0
  -20.3740  -24.7038   -7.0284 C   0  0  0  0  0  0  0  0  0  0  0  0
  1  2  1  6  0  0  0
  1  6  1  0  0  0  0
  1 21  1  0  0  0  0
  3  4  1  6  0  0  0
  3  8  1  0  0  0  0
  3 28  1  0  0  0  0
  5  9  1  0  0  0  0
  5 25  1  0  0  0  0
  5 29  1  1  0  0  0
  6  7  1  6  0  0  0
  6 11  1  0  0  0  0
  8 12  1  0  0  0  0
  9 10  1  1  0  0  0
  9 14  1  0  0  0  0
 11 16  1  0  0  0  0
 12 13  1  6  0  0  0
 12 17  1  0  0  0  0
 14 15  1  1  0  0  0
 14 18  1  0  0  0  0
 15 31  1  0  0  0  0
 16 20  1  0  0  0  0
 17  2  1  1  0  0  0
 17 22  1  0  0  0  0
 18 19  1  6  0  0  0
 18 24  1  0  0  0  0
 18 30  1  0  0  0  0
 20 21  1  0  0  0  0
 20 26  1  1  0  0  0
 22 23  1  6  0  0  0
 22 28  1  0  0  0  0
 24 25  1  0  0  0  0
 26 27  1  0  0  0  0
 28 29  1  1  0  0  0
M  END
>  <CHROM.1>
167.46028719,-178.82831845,-140.96540010,58.64195566,-164.76092500,132.91729549
-18.18354074,-22.08821686,-10.85612724,-0.66974451,-0.10369974,2.80438167

>  <Name>
ligand

>  <RI>
0

>  <Rbt.Current_Directory>
/home/itssahil/PROJECTS/Mol_Feturizer/New_Systems/rnas/4GPW

>  <Rbt.Executable>
rbdock ($Id: //depot/dev/client3/rdock/2013.1/src/exe/rbdock.cxx#4 $)

>  <Rbt.Library>
libRbt.so (2013.1, Build901 2013/11/27)

>  <Rbt.Parameter_File>
/export/apps/rDock/src/rDock_2013.1_src/data/scripts/dock_solv.prm

>  <Rbt.Receptor>
prm/blind_docking_60.prm

>  <SCORE>
32.1312

>  <SCORE.INTER>
13.3543

>  <SCORE.INTER.CONST>
1

>  <SCORE.INTER.POLAR>
0

>  <SCORE.INTER.ROT>
6

>  <SCORE.INTER.SOLV>
24.4329

>  <SCORE.INTER.VDW>
-6.84145

>  <SCORE.INTER.norm>
0.430783

>  <SCORE.INTRA>
0.557259

>  <SCORE.INTRA.DIHEDRAL>
-7.89937

>  <SCORE.INTRA.DIHEDRAL.0>
19.2558

>  <SCORE.INTRA.POLAR>
0

>  <SCORE.INTRA.POLAR.0>
0

>  <SCORE.INTRA.REPUL>
0

>  <SCORE.INTRA.REPUL.0>
0

>  <SCORE.INTRA.SOLV>
-0.418278

>  <SCORE.INTRA.SOLV.lig_0>
-64.5929

>  <SCORE.INTRA.VDW>
4.71608

>  <SCORE.INTRA.VDW.0>
-4.40538

>  <SCORE.INTRA.norm>
0.0179761

>  <SCORE.RESTR>
18.2196

>  <SCORE.RESTR.CAVITY>
18.2196

>  <SCORE.RESTR.norm>
0.58773

>  <SCORE.SYSTEM>
0

>  <SCORE.SYSTEM.CONST>
0

>  <SCORE.SYSTEM.DIHEDRAL>
0

>  <SCORE.SYSTEM.SOLV>
0

>  <SCORE.SYSTEM.norm>
0

>  <SCORE.heavy>
31

>  <SCORE.norm>
1.03649

>  <RMSD>
10.839

$$$$
ligand
 OpenBabel11021811493D
libRbt.so/2013.1/901 2013/11/27
 31 33  0  0  0  0  0  0  0  0999 V2000
  -15.0148  -20.7132  -11.1555 C   0  0  2  0  0  0  0  0  0  0  0  0
  -15.7745  -20.7636  -12.3542 O   0  0  0  0  0  0  0  0  0  0  0  0
  -19.5433  -19.3217  -10.9787 C   0  0  2  0  0  0  0  0  0  0  0  0
  -20.8807  -18.8242  -11.0118 N   0  0  0  0  0  0  0  0  0  0  0  0
  -21.2303  -22.6260  -11.4819 C   0  0  2  0  0  0  0  0  0  0  0  0
  -14.0192  -21.9461  -11.1865 C   0  0  2  0  0  0  0  0  0  0  0  0
  -13.1596  -21.8451  -12.3750 N   0  0  0  0  0  0  0  0  0  0  0  0
  -18.6141  -18.3191  -11.7920 C   0  0  0  0  0  0  0  0  0  0  0  0
  -21.9005  -23.3450  -10.2645 C   0  0  2  0  0  0  0  0  0  0  0  0
  -22.5064  -22.3629   -9.4575 O   0  0  0  0  0  0  0  0  0  0  0  0
  -14.8403  -23.2961  -11.1967 C   0  0  0  0  0  0  0  0  0  0  0  0
  -17.1179  -18.8702  -11.7502 C   0  0  2  0  0  0  0  0  0  0  0  0
  -16.2349  -17.9483  -12.4972 N   0  0  0  0  0  0  0  0  0  0  0  0
  -20.7984  -24.1529   -9.4609 C   0  0  1  0  0  0  0  0  0  0  0  0
  -21.4249  -24.8502   -8.2811 N   0  0  0  0  0  0  0  0  0  0  0  0
  -16.1050  -23.2425  -10.2428 C   0  0  0  0  0  0  0  0  0  0  0  0
  -17.0798  -20.3066  -12.4167 C   0  0  2  0  0  0  0  0  0  0  0  0
  -20.1346  -25.2682  -10.4422 C   0  0  1  0  0  0  0  0  0  0  0  0
  -21.0697  -26.2119  -10.9243 O   0  0  0  0  0  0  0  0  0  0  0  0
  -16.5310  -22.0732   -9.7136 C   0  0  2  0  0  0  0  0  0  0  0  0
  -15.8762  -20.8274   -9.9744 O   0  0  0  0  0  0  0  0  0  0  0  0
  -18.0245  -21.2862  -11.6070 C   0  0  2  0  0  0  0  0  0  0  0  0
  -17.9931  -22.5845  -12.2228 O   0  0  0  0  0  0  0  0  0  0  0  0
  -19.4937  -24.5358  -11.6678 C   0  0  0  0  0  0  0  0  0  0  0  0
  -20.5311  -23.6508  -12.3562 O   0  0  0  0  0  0  0  0  0  0  0  0
  -17.7441  -21.9835   -8.7888 C   0  0  0  0  0  0  0  0  0  0  0  0
  -18.4588  -23.2262   -8.8722 O   0  0  0  0  0  0  0  0  0  0  0  0
  -19.5084  -20.7441  -11.6449 C   0  0  1  0  0  0  0  0  0  0  0  0
  -20.3181  -21.6381  -10.9009 O   0  0  0  0  0  0  0  0  0  0  0  0
  -19.0259  -26.1217   -9.7901 C   0  0  0  0  0  0  0  0  0  0  0  0
  -21.5785  -24.0485   -7.0501 C   0  0  0  0  0  0  0  0  0  0  0  0
  1  2  1  6  0  0  0
  1  6  1  0  0  0  0
  1 21  1  0  0  0  0
  3  4  1  6  0  0  0
  3  8  1  0  0  0  0
  3 28  1  0  0  0  0
  5  9  1  0  0  0  0
  5 25  1  0  0  0  0
  5 29  1  1  0  0  0
  6  7  1  6  0  0  0
  6 11  1  0  0  0  0
  8 12  1  0  0  0  0
  9 10  1  1  0  0  0
  9 14  1  0  0  0  0
 11 16  1  0  0  0  0
 12 13  1  6  0  0  0
 12 17  1  0  0  0  0
 14 15  1  1  0  0  0
 14 18  1  0  0  0  0
 15 31  1  0  0  0  0
 16 20  1  0  0  0  0
 17  2  1  1  0  0  0
 17 22  1  0  0  0  0
 18 19  1  6  0  0  0
 18 24  1  0  0  0  0
 18 30  1  0  0  0  0
 20 21  1  0  0  0  0
 20 26  1  1  0  0  0
 22 23  1  6  0  0  0
 22 28  1  0  0  0  0
 24 25  1  0  0  0  0
 26 27  1  0  0  0  0
 28 29  1  1  0  0  0
M  END
>  <CHROM.1>
148.77315192,-179.25087870,-84.59718457,48.48874295,-13.25551700,137.87288132
-18.49658027,-22.19566529,-10.75704021,-0.65777974,-0.14637199,2.85578747

>  <Name>
ligand

>  <RI>
0

>  <Rbt.Current_Directory>
/home/itssahil/PROJECTS/Mol_Feturizer/New_Systems/rnas/4GPW

>  <Rbt.Executable>
rbdock ($Id: //depot/dev/client3/rdock/2013.1/src/exe/rbdock.cxx#4 $)

>  <Rbt.Library>
libRbt.so (2013.1, Build901 2013/11/27)

>  <Rbt.Parameter_File>
/export/apps/rDock/src/rDock_2013.1_src/data/scripts/dock_solv.prm

>  <Rbt.Receptor>
prm/blind_docking_60.prm

>  <SCORE>
49.64

>  <SCORE.INTER>
24.5937

>  <SCORE.INTER.CONST>
1

>  <SCORE.INTER.POLAR>
0

>  <SCORE.INTER.ROT>
6

>  <SCORE.INTER.SOLV>
29.7888

>  <SCORE.INTER.VDW>
-1.13381

>  <SCORE.INTER.norm>
0.793344

>  <SCORE.INTRA>
8.10096

>  <SCORE.INTRA.DIHEDRAL>
-6.71921

>  <SCORE.INTRA.DIHEDRAL.0>
19.2558

>  <SCORE.INTRA.POLAR>
0

>  <SCORE.INTRA.POLAR.0>
0

>  <SCORE.INTRA.REPUL>
0

>  <SCORE.INTRA.REPUL.0>
0

>  <SCORE.INTRA.SOLV>
0.39809

>  <SCORE.INTRA.SOLV.lig_0>
-64.5929

>  <SCORE.INTRA.VDW>
11.2615

>  <SCORE.INTRA.VDW.0>
-4.40538

>  <SCORE.INTRA.norm>
0.261321

>  <SCORE.RESTR>
16.9454

>  <SCORE.RESTR.CAVITY>
16.9454

>  <SCORE.RESTR.norm>
0.546626

>  <SCORE.SYSTEM>
0

>  <SCORE.SYSTEM.CONST>
0

>  <SCORE.SYSTEM.DIHEDRAL>
0

>  <SCORE.SYSTEM.SOLV>
0

>  <SCORE.SYSTEM.norm>
0

>  <SCORE.heavy>
31

>  <SCORE.norm>
1.60129

>  <RMSD>
10.840

$$$$
ligand
 OpenBabel11021811493D
libRbt.so/2013.1/901 2013/11/27
 31 33  0  0  0  0  0  0  0  0999 V2000
  -20.5886  -19.2926  -12.9469 C   0  0  2  0  0  0  0  0  0  0  0  0
  -19.3867  -20.0118  -13.1807 O   0  0  0  0  0  0  0  0  0  0  0  0
  -16.4286  -22.4344  -11.2951 C   0  0  2  0  0  0  0  0  0  0  0  0
  -15.6784  -23.0719  -10.2616 N   0  0  0  0  0  0  0  0  0  0  0  0
  -18.5667  -25.2917  -10.5226 C   0  0  2  0  0  0  0  0  0  0  0  0
  -20.7214  -18.2231  -14.1092 C   0  0  2  0  0  0  0  0  0  0  0  0
  -20.7508  -18.9170  -15.4051 N   0  0  0  0  0  0  0  0  0  0  0  0
  -16.3567  -20.8613  -11.0706 C   0  0  0  0  0  0  0  0  0  0  0  0
  -20.1141  -25.0802  -10.6170 C   0  0  2  0  0  0  0  0  0  0  0  0
  -20.4919  -25.2201  -11.9663 O   0  0  0  0  0  0  0  0  0  0  0  0
  -19.5139  -17.2064  -14.0406 C   0  0  0  0  0  0  0  0  0  0  0  0
  -17.1890  -20.1471  -12.2288 C   0  0  2  0  0  0  0  0  0  0  0  0
  -17.1306  -18.6811  -12.0417 N   0  0  0  0  0  0  0  0  0  0  0  0
  -20.4818  -23.6419  -10.0609 C   0  0  1  0  0  0  0  0  0  0  0  0
  -21.9694  -23.4181  -10.1470 N   0  0  0  0  0  0  0  0  0  0  0  0
  -19.1409  -16.8091  -12.5522 C   0  0  0  0  0  0  0  0  0  0  0  0
  -18.6937  -20.6369  -12.1582 C   0  0  2  0  0  0  0  0  0  0  0  0
  -20.0215  -23.5395   -8.5036 C   0  0  1  0  0  0  0  0  0  0  0  0
  -20.6654  -24.4820   -7.6703 O   0  0  0  0  0  0  0  0  0  0  0  0
  -19.6506  -17.4887  -11.4999 C   0  0  2  0  0  0  0  0  0  0  0  0
  -20.5479  -18.5925  -11.6592 O   0  0  0  0  0  0  0  0  0  0  0  0
  -18.7451  -22.2062  -12.3639 C   0  0  2  0  0  0  0  0  0  0  0  0
  -20.1117  -22.6451  -12.2886 O   0  0  0  0  0  0  0  0  0  0  0  0
  -18.4774  -23.7809   -8.4231 C   0  0  0  0  0  0  0  0  0  0  0  0
  -18.1150  -25.1090   -9.0851 O   0  0  0  0  0  0  0  0  0  0  0  0
  -19.3155  -17.1332  -10.0521 C   0  0  0  0  0  0  0  0  0  0  0  0
  -18.9650  -18.3456   -9.3670 O   0  0  0  0  0  0  0  0  0  0  0  0
  -17.9212  -22.9186  -11.2190 C   0  0  1  0  0  0  0  0  0  0  0  0
  -17.9802  -24.3165  -11.4448 O   0  0  0  0  0  0  0  0  0  0  0  0
  -20.3055  -22.1767   -7.8364 C   0  0  0  0  0  0  0  0  0  0  0  0
  -22.8236  -24.4120   -9.4656 C   0  0  0  0  0  0  0  0  0  0  0  0
  1  2  1  6  0  0  0
  1  6  1  0  0  0  0
  1 21  1  0  0  0  0
  3  4  1  1  0  0  0
  3  8  1  0  0  0  0
  3 28  1  0  0  0  0
  5  9  1  0  0  0  0
  5 25  1  0  0  0  0
  5 29  1  6  0  0  0
  6  7  1  6  0  0  0
  6 11  1  0  0  0  0
  8 12  1  0  0  0  0
  9 10  1  6  0  0  0
  9 14  1  0  0  0  0
 11 16  1  0  0  0  0
 12 13  1  1  0  0  0
 12 17  1  0  0  0  0
 14 15  1  1  0  0  0
 14 18  1  0  0  0  0
 15 31  1  0  0  0  0
 16 20  1  0  0  0  0
 17  2  1  6  0  0  0
 17 22  1  0  0  0  0
 18 19  1  1  0  0  0
 18 24  1  0  0  0  0
 18 30  1  0  0  0  0
 20 21  1  0  0  0  0
 20 26  1  1  0  0  0
 22 23  1  1  0  0  0
 22 28  1  0  0  0  0
 24 25  1  0  0  0  0
 26 27  1  0  0  0  0
 28 29  1  6  0  0  0
M  END
>  <CHROM.1>
154.76975855,72.59999511,56.25389526,-127.69916605,-132.07366370,123.29124223
-19.27653780,-21.51412858,-11.11920109,1.53992746,-0.04422133,-0.45356808

>  <Name>
ligand

>  <RI>
0

>  <Rbt.Current_Directory>
/home/itssahil/PROJECTS/Mol_Feturizer/New_Systems/rnas/4GPW

>  <Rbt.Executable>
rbdock ($Id: //depot/dev/client3/rdock/2013.1/src/exe/rbdock.cxx#4 $)

>  <Rbt.Library>
libRbt.so (2013.1, Build901 2013/11/27)

>  <Rbt.Parameter_File>
/export/apps/rDock/src/rDock_2013.1_src/data/scripts/dock_solv.prm

>  <Rbt.Receptor>
prm/blind_docking_60.prm

>  <SCORE>
33.1689

>  <SCORE.INTER>
7.59942

>  <SCORE.INTER.CONST>
1

>  <SCORE.INTER.POLAR>
0

>  <SCORE.INTER.ROT>
6

>  <SCORE.INTER.SOLV>
21.4772

>  <SCORE.INTER.VDW>
-9.69279

>  <SCORE.INTER.norm>
0.245142

>  <SCORE.INTRA>
7.78785

>  <SCORE.INTRA.DIHEDRAL>
0.133176

>  <SCORE.INTRA.DIHEDRAL.0>
19.2558

>  <SCORE.INTRA.POLAR>
0

>  <SCORE.INTRA.POLAR.0>
0

>  <SCORE.INTRA.REPUL>
0

>  <SCORE.INTRA.REPUL.0>
0

>  <SCORE.INTRA.SOLV>
5.04974

>  <SCORE.INTRA.SOLV.lig_0>
-64.5929

>  <SCORE.INTRA.VDW>
5.1964

>  <SCORE.INTRA.VDW.0>
-4.40538

>  <SCORE.INTRA.norm>
0.251221

>  <SCORE.RESTR>
17.7816

>  <SCORE.RESTR.CAVITY>
17.7816

>  <SCORE.RESTR.norm>
0.5736

>  <SCORE.SYSTEM>
0

>  <SCORE.SYSTEM.CONST>
0

>  <SCORE.SYSTEM.DIHEDRAL>
0

>  <SCORE.SYSTEM.SOLV>
0

>  <SCORE.SYSTEM.norm>
0

>  <SCORE.heavy>
31

>  <SCORE.norm>
1.06996

>  <RMSD>
10.847

$$$$
ligand
 OpenBabel11021811493D
libRbt.so/2013.1/901 2013/11/27
 31 33  0  0  0  0  0  0  0  0999 V2000
  -17.4488  -18.3177  -12.8153 C   0  0  2  0  0  0  0  0  0  0  0  0
  -17.3264  -18.7377  -11.4643 O   0  0  0  0  0  0  0  0  0  0  0  0
  -16.8898  -22.9459  -11.9881 C   0  0  2  0  0  0  0  0  0  0  0  0
  -16.6816  -24.3215  -11.6688 N   0  0  0  0  0  0  0  0  0  0  0  0
  -19.7196  -24.4725  -11.2008 C   0  0  2  0  0  0  0  0  0  0  0  0
  -18.1110  -16.8778  -12.7941 C   0  0  2  0  0  0  0  0  0  0  0  0
  -17.2586  -15.9638  -12.0196 N   0  0  0  0  0  0  0  0  0  0  0  0
  -15.6197  -22.1201  -11.5034 C   0  0  0  0  0  0  0  0  0  0  0  0
  -20.9257  -24.1979  -10.2426 C   0  0  2  0  0  0  0  0  0  0  0  0
  -21.9050  -23.4904  -10.9658 O   0  0  0  0  0  0  0  0  0  0  0  0
  -19.5595  -16.9648  -12.1689 C   0  0  0  0  0  0  0  0  0  0  0  0
  -15.8478  -20.5835  -11.8656 C   0  0  2  0  0  0  0  0  0  0  0  0
  -14.6743  -19.7972  -11.4277 N   0  0  0  0  0  0  0  0  0  0  0  0
  -20.4215  -23.3679   -8.9896 C   0  0  1  0  0  0  0  0  0  0  0  0
  -21.5711  -23.0903   -8.0558 N   0  0  0  0  0  0  0  0  0  0  0  0
  -20.3443  -18.2597  -12.6376 C   0  0  0  0  0  0  0  0  0  0  0  0
  -17.1472  -20.0668  -11.1214 C   0  0  2  0  0  0  0  0  0  0  0  0
  -19.2940  -24.2325   -8.1968 C   0  0  1  0  0  0  0  0  0  0  0  0
  -19.7812  -25.4654   -7.7071 O   0  0  0  0  0  0  0  0  0  0  0  0
  -19.7097  -19.2655  -13.2814 C   0  0  2  0  0  0  0  0  0  0  0  0
  -18.3102  -19.2258  -13.5789 O   0  0  0  0  0  0  0  0  0  0  0  0
  -18.3977  -20.9121  -11.6005 C   0  0  2  0  0  0  0  0  0  0  0  0
  -19.5709  -20.4450  -10.9141 O   0  0  0  0  0  0  0  0  0  0  0  0
  -18.1083  -24.5226   -9.1762 C   0  0  0  0  0  0  0  0  0  0  0  0
  -18.6240  -25.2009  -10.4440 O   0  0  0  0  0  0  0  0  0  0  0  0
  -20.4336  -20.5270  -13.7498 C   0  0  0  0  0  0  0  0  0  0  0  0
  -20.8415  -21.2628  -12.5859 O   0  0  0  0  0  0  0  0  0  0  0  0
  -18.1761  -22.4356  -11.2444 C   0  0  1  0  0  0  0  0  0  0  0  0
  -19.3071  -23.1584  -11.6993 O   0  0  0  0  0  0  0  0  0  0  0  0
  -18.6998  -23.5320   -6.9562 C   0  0  0  0  0  0  0  0  0  0  0  0
  -21.3983  -21.9616   -7.1188 C   0  0  0  0  0  0  0  0  0  0  0  0
  1  2  1  1  0  0  0
  1  6  1  0  0  0  0
  1 21  1  0  0  0  0
  3  4  1  1  0  0  0
  3  8  1  0  0  0  0
  3 28  1  0  0  0  0
  5  9  1  0  0  0  0
  5 25  1  0  0  0  0
  5 29  1  1  0  0  0
  6  7  1  1  0  0  0
  6 11  1  0  0  0  0
  8 12  1  0  0  0  0
  9 10  1  6  0  0  0
  9 14  1  0  0  0  0
 11 16  1  0  0  0  0
 12 13  1  1  0  0  0
 12 17  1  0  0  0  0
 14 15  1  1  0  0  0
 14 18  1  0  0  0  0
 15 31  1  0  0  0  0
 16 20  1  0  0  0  0
 17  2  1  6  0  0  0
 17 22  1  0  0  0  0
 18 19  1  1  0  0  0
 18 24  1  0  0  0  0
 18 30  1  0  0  0  0
 20 21  1  0  0  0  0
 20 26  1  6  0  0  0
 22 23  1  1  0  0  0
 22 28  1  0  0  0  0
 24 25  1  0  0  0  0
 26 27  1  0  0  0  0
 28 29  1  6  0  0  0
M  END
>  <CHROM.1>
161.35805438,102.83981259,-159.11785991,56.93075869,-67.69843037,83.14292179
-18.81431749,-21.49790784,-10.99256625,-1.31202002,-0.18856071,2.65600422

>  <Name>
ligand

>  <RI>
0

>  <Rbt.Current_Directory>
/home/itssahil/PROJECTS/Mol_Feturizer/New_Systems/rnas/4GPW

>  <Rbt.Executable>
rbdock ($Id: //depot/dev/client3/rdock/2013.1/src/exe/rbdock.cxx#4 $)

>  <Rbt.Library>
libRbt.so (2013.1, Build901 2013/11/27)

>  <Rbt.Parameter_File>
/export/apps/rDock/src/rDock_2013.1_src/data/scripts/dock_solv.prm

>  <Rbt.Receptor>
prm/blind_docking_100.prm

>  <SCORE>
53.7073

>  <SCORE.INTER>
24.1582

>  <SCORE.INTER.CONST>
1

>  <SCORE.INTER.POLAR>
0

>  <SCORE.INTER.ROT>
6

>  <SCORE.INTER.SOLV>
29.1236

>  <SCORE.INTER.VDW>
-1.20242

>  <SCORE.INTER.norm>
0.779296

>  <SCORE.INTRA>
9.75951

>  <SCORE.INTRA.DIHEDRAL>
-5.59225

>  <SCORE.INTRA.DIHEDRAL.0>
19.2558

>  <SCORE.INTRA.POLAR>
0

>  <SCORE.INTRA.POLAR.0>
0

>  <SCORE.INTRA.REPUL>
0

>  <SCORE.INTRA.REPUL.0>
0

>  <SCORE.INTRA.SOLV>
2.23713

>  <SCORE.INTRA.SOLV.lig_0>
-64.5929

>  <SCORE.INTRA.VDW>
11.4371

>  <SCORE.INTRA.VDW.0>
-4.40538

>  <SCORE.INTRA.norm>
0.314823

>  <SCORE.RESTR>
19.7896

>  <SCORE.RESTR.CAVITY>
19.7896

>  <SCORE.RESTR.norm>
0.638373

>  <SCORE.SYSTEM>
0

>  <SCORE.SYSTEM.CONST>
0

>  <SCORE.SYSTEM.DIHEDRAL>
0

>  <SCORE.SYSTEM.SOLV>
0

>  <SCORE.SYSTEM.norm>
0

>  <SCORE.heavy>
31

>  <SCORE.norm>
1.73249

>  <RMSD>
10.859

$$$$
ligand
 OpenBabel11021811493D
libRbt.so/2013.1/901 2013/11/27
 31 33  0  0  0  0  0  0  0  0999 V2000
  -17.0903  -19.0458  -12.9637 C   0  0  2  0  0  0  0  0  0  0  0  0
  -16.4453  -19.1977  -11.7078 O   0  0  0  0  0  0  0  0  0  0  0  0
  -17.2507  -23.3063  -10.9047 C   0  0  2  0  0  0  0  0  0  0  0  0
  -17.2276  -24.5724  -10.2462 N   0  0  0  0  0  0  0  0  0  0  0  0
  -20.3564  -22.4363  -10.5737 C   0  0  2  0  0  0  0  0  0  0  0  0
  -17.2687  -17.4897  -13.2071 C   0  0  2  0  0  0  0  0  0  0  0  0
  -15.9483  -16.8431  -13.1966 N   0  0  0  0  0  0  0  0  0  0  0  0
  -15.7548  -22.8956  -11.2562 C   0  0  0  0  0  0  0  0  0  0  0  0
  -21.5764  -23.1103   -9.8627 C   0  0  2  0  0  0  0  0  0  0  0  0
  -21.7329  -22.5072   -8.5999 O   0  0  0  0  0  0  0  0  0  0  0  0
  -18.2056  -16.8782  -12.0914 C   0  0  0  0  0  0  0  0  0  0  0  0
  -15.7795  -21.4839  -11.9983 C   0  0  2  0  0  0  0  0  0  0  0  0
  -14.3967  -21.0852  -12.3394 N   0  0  0  0  0  0  0  0  0  0  0  0
  -21.3111  -24.6675   -9.7296 C   0  0  1  0  0  0  0  0  0  0  0  0
  -22.4751  -25.3343   -9.0432 N   0  0  0  0  0  0  0  0  0  0  0  0
  -19.4195  -17.8316  -11.7310 C   0  0  0  0  0  0  0  0  0  0  0  0
  -16.4254  -20.4065  -11.0334 C   0  0  2  0  0  0  0  0  0  0  0  0
  -21.1374  -25.3069  -11.2157 C   0  0  1  0  0  0  0  0  0  0  0  0
  -22.2848  -25.1507  -12.0259 O   0  0  0  0  0  0  0  0  0  0  0  0
  -19.4529  -19.1126  -12.1631 C   0  0  2  0  0  0  0  0  0  0  0  0
  -18.4116  -19.6814  -12.9637 O   0  0  0  0  0  0  0  0  0  0  0  0
  -17.9064  -20.8407  -10.6782 C   0  0  2  0  0  0  0  0  0  0  0  0
  -18.4827  -19.8644   -9.7947 O   0  0  0  0  0  0  0  0  0  0  0  0
  -19.9320  -24.6033  -11.9235 C   0  0  0  0  0  0  0  0  0  0  0  0
  -20.1312  -23.0888  -11.9255 O   0  0  0  0  0  0  0  0  0  0  0  0
  -20.6070  -20.0597  -11.8375 C   0  0  0  0  0  0  0  0  0  0  0  0
  -20.8680  -20.8584  -13.0020 O   0  0  0  0  0  0  0  0  0  0  0  0
  -17.8873  -22.2394   -9.9431 C   0  0  1  0  0  0  0  0  0  0  0  0
  -19.2276  -22.5983   -9.6545 O   0  0  0  0  0  0  0  0  0  0  0  0
  -20.8550  -26.8245  -11.2349 C   0  0  0  0  0  0  0  0  0  0  0  0
  -22.6381  -25.0509   -7.6027 C   0  0  0  0  0  0  0  0  0  0  0  0
  1  2  1  1  0  0  0
  1  6  1  0  0  0  0
  1 21  1  0  0  0  0
  3  4  1  1  0  0  0
  3  8  1  0  0  0  0
  3 28  1  0  0  0  0
  5  9  1  0  0  0  0
  5 25  1  0  0  0  0
  5 29  1  1  0  0  0
  6  7  1  1  0  0  0
  6 11  1  0  0  0  0
  8 12  1  0  0  0  0
  9 10  1  1  0  0  0
  9 14  1  0  0  0  0
 11 16  1  0  0  0  0
 12 13  1  1  0  0  0
 12 17  1  0  0  0  0
 14 15  1  6  0  0  0
 14 18  1  0  0  0  0
 15 31  1  0  0  0  0
 16 20  1  0  0  0  0
 17  2  1  6  0  0  0
 17 22  1  0  0  0  0
 18 19  1  6  0  0  0
 18 24  1  0  0  0  0
 18 30  1  0  0  0  0
 20 21  1  0  0  0  0
 20 26  1  6  0  0  0
 22 23  1  1  0  0  0
 22 28  1  0  0  0  0
 24 25  1  0  0  0  0
 26 27  1  0  0  0  0
 28 29  1  6  0  0  0
M  END
>  <CHROM.1>
163.86950159,174.13775255,-70.70889329,56.85393126,141.12366595,-75.81506548
-19.02709767,-21.76373292,-11.16847083,0.97181743,0.16105178,-0.24610843

>  <Name>
ligand

>  <RI>
0

>  <Rbt.Current_Directory>
/home/itssahil/PROJECTS/Mol_Feturizer/New_Systems/rnas/4GPW

>  <Rbt.Executable>
rbdock ($Id: //depot/dev/client3/rdock/2013.1/src/exe/rbdock.cxx#4 $)

>  <Rbt.Library>
libRbt.so (2013.1, Build901 2013/11/27)

>  <Rbt.Parameter_File>
/export/apps/rDock/src/rDock_2013.1_src/data/scripts/dock_solv.prm

>  <Rbt.Receptor>
prm/blind_docking_60.prm

>  <SCORE>
27.2956

>  <SCORE.INTER>
7.96857

>  <SCORE.INTER.CONST>
1

>  <SCORE.INTER.POLAR>
0

>  <SCORE.INTER.ROT>
6

>  <SCORE.INTER.SOLV>
26.6484

>  <SCORE.INTER.VDW>
-11.1704

>  <SCORE.INTER.norm>
0.257051

>  <SCORE.INTRA>
2.16781

>  <SCORE.INTRA.DIHEDRAL>
-14.3495

>  <SCORE.INTRA.DIHEDRAL.0>
19.2558

>  <SCORE.INTRA.POLAR>
0

>  <SCORE.INTRA.POLAR.0>
0

>  <SCORE.INTRA.REPUL>
0.0806329

>  <SCORE.INTRA.REPUL.0>
0

>  <SCORE.INTRA.SOLV>
0.981742

>  <SCORE.INTRA.SOLV.lig_0>
-64.5929

>  <SCORE.INTRA.VDW>
8.44855

>  <SCORE.INTRA.VDW.0>
-4.40538

>  <SCORE.INTRA.norm>
0.0699294

>  <SCORE.RESTR>
17.1592

>  <SCORE.RESTR.CAVITY>
17.1592

>  <SCORE.RESTR.norm>
0.553522

>  <SCORE.SYSTEM>
0

>  <SCORE.SYSTEM.CONST>
0

>  <SCORE.SYSTEM.DIHEDRAL>
0

>  <SCORE.SYSTEM.SOLV>
0

>  <SCORE.SYSTEM.norm>
0

>  <SCORE.heavy>
31

>  <SCORE.norm>
0.880502

>  <RMSD>
10.876

$$$$
ligand
 OpenBabel11021811493D
libRbt.so/2013.1/901 2013/11/27
 31 33  0  0  0  0  0  0  0  0999 V2000
  -20.2747  -19.1849  -12.1736 C   0  0  2  0  0  0  0  0  0  0  0  0
  -18.9695  -19.5420  -12.6044 O   0  0  0  0  0  0  0  0  0  0  0  0
  -15.8767  -22.2534  -11.4831 C   0  0  2  0  0  0  0  0  0  0  0  0
  -14.9343  -22.9472  -10.6658 N   0  0  0  0  0  0  0  0  0  0  0  0
  -18.1090  -24.7765   -9.9803 C   0  0  2  0  0  0  0  0  0  0  0  0
  -20.9764  -18.4453  -13.3872 C   0  0  2  0  0  0  0  0  0  0  0  0
  -21.0188  -19.3490  -14.5463 N   0  0  0  0  0  0  0  0  0  0  0  0
  -15.5710  -20.6952  -11.3898 C   0  0  0  0  0  0  0  0  0  0  0  0
  -19.3848  -25.4768  -10.5550 C   0  0  2  0  0  0  0  0  0  0  0  0
  -19.0157  -26.1594  -11.7300 O   0  0  0  0  0  0  0  0  0  0  0  0
  -20.1886  -17.1201  -13.7333 C   0  0  0  0  0  0  0  0  0  0  0  0
  -16.6191  -19.9188  -12.3080 C   0  0  2  0  0  0  0  0  0  0  0  0
  -16.3488  -18.4664  -12.2399 N   0  0  0  0  0  0  0  0  0  0  0  0
  -20.4961  -24.3846  -10.8469 C   0  0  1  0  0  0  0  0  0  0  0  0
  -21.7326  -25.0404  -11.4049 N   0  0  0  0  0  0  0  0  0  0  0  0
  -19.6933  -16.3544  -12.4368 C   0  0  0  0  0  0  0  0  0  0  0  0
  -18.0833  -20.2168  -11.7823 C   0  0  2  0  0  0  0  0  0  0  0  0
  -20.8795  -23.6305   -9.4570 C   0  0  1  0  0  0  0  0  0  0  0  0
  -21.4047  -24.5032   -8.4773 O   0  0  0  0  0  0  0  0  0  0  0  0
  -19.7358  -16.9426  -11.2199 C   0  0  2  0  0  0  0  0  0  0  0  0
  -20.2255  -18.2736  -11.0260 O   0  0  0  0  0  0  0  0  0  0  0  0
  -18.3637  -21.7732  -11.8636 C   0  0  2  0  0  0  0  0  0  0  0  0
  -19.6896  -22.0375  -11.3758 O   0  0  0  0  0  0  0  0  0  0  0  0
  -19.5883  -22.9595   -8.8811 C   0  0  0  0  0  0  0  0  0  0  0  0
  -18.4760  -23.9958   -8.7316 O   0  0  0  0  0  0  0  0  0  0  0  0
  -19.2693  -16.2350   -9.9485 C   0  0  0  0  0  0  0  0  0  0  0  0
  -17.8334  -16.2479   -9.9347 O   0  0  0  0  0  0  0  0  0  0  0  0
  -17.3272  -22.5471  -10.9558 C   0  0  1  0  0  0  0  0  0  0  0  0
  -17.6018  -23.9331  -11.0652 O   0  0  0  0  0  0  0  0  0  0  0  0
  -21.9451  -22.5225   -9.5982 C   0  0  0  0  0  0  0  0  0  0  0  0
  -21.6036  -25.6552  -12.7417 C   0  0  0  0  0  0  0  0  0  0  0  0
  1  2  1  6  0  0  0
  1  6  1  0  0  0  0
  1 21  1  0  0  0  0
  3  4  1  1  0  0  0
  3  8  1  0  0  0  0
  3 28  1  0  0  0  0
  5  9  1  0  0  0  0
  5 25  1  0  0  0  0
  5 29  1  6  0  0  0
  6  7  1  6  0  0  0
  6 11  1  0  0  0  0
  8 12  1  0  0  0  0
  9 10  1  6  0  0  0
  9 14  1  0  0  0  0
 11 16  1  0  0  0  0
 12 13  1  1  0  0  0
 12 17  1  0  0  0  0
 14 15  1  1  0  0  0
 14 18  1  0  0  0  0
 15 31  1  0  0  0  0
 16 20  1  0  0  0  0
 17  2  1  6  0  0  0
 17 22  1  0  0  0  0
 18 19  1  1  0  0  0
 18 24  1  0  0  0  0
 18 30  1  0  0  0  0
 20 21  1  0  0  0  0
 20 26  1  1  0  0  0
 22 23  1  1  0  0  0
 22 28  1  0  0  0  0
 24 25  1  0  0  0  0
 26 27  1  0  0  0  0
 28 29  1  6  0  0  0
M  END
>  <CHROM.1>
-179.57081402,126.57801531,-66.59516193,-156.76313912,-76.65329984,128.77738150
-19.08964356,-21.35874603,-11.22198476,1.48692176,-0.10312990,-0.20802801

>  <Name>
ligand

>  <RI>
0

>  <Rbt.Current_Directory>
/home/itssahil/PROJECTS/Mol_Feturizer/New_Systems/rnas/4GPW

>  <Rbt.Executable>
rbdock ($Id: //depot/dev/client3/rdock/2013.1/src/exe/rbdock.cxx#4 $)

>  <Rbt.Library>
libRbt.so (2013.1, Build901 2013/11/27)

>  <Rbt.Parameter_File>
/export/apps/rDock/src/rDock_2013.1_src/data/scripts/dock_solv.prm

>  <Rbt.Receptor>
prm/blind_docking_60.prm

>  <SCORE>
25.0553

>  <SCORE.INTER>
1.26193

>  <SCORE.INTER.CONST>
1

>  <SCORE.INTER.POLAR>
0

>  <SCORE.INTER.ROT>
6

>  <SCORE.INTER.SOLV>
21.6689

>  <SCORE.INTER.VDW>
-13.9817

>  <SCORE.INTER.norm>
0.0407074

>  <SCORE.INTRA>
4.43109

>  <SCORE.INTRA.DIHEDRAL>
0.200899

>  <SCORE.INTRA.DIHEDRAL.0>
19.2558

>  <SCORE.INTRA.POLAR>
0

>  <SCORE.INTRA.POLAR.0>
0

>  <SCORE.INTRA.REPUL>
0

>  <SCORE.INTRA.REPUL.0>
0

>  <SCORE.INTRA.SOLV>
-0.416792

>  <SCORE.INTRA.SOLV.lig_0>
-64.5929

>  <SCORE.INTRA.VDW>
4.53904

>  <SCORE.INTRA.VDW.0>
-4.40538

>  <SCORE.INTRA.norm>
0.142938

>  <SCORE.RESTR>
19.3623

>  <SCORE.RESTR.CAVITY>
19.3623

>  <SCORE.RESTR.norm>
0.62459

>  <SCORE.SYSTEM>
0

>  <SCORE.SYSTEM.CONST>
0

>  <SCORE.SYSTEM.DIHEDRAL>
0

>  <SCORE.SYSTEM.SOLV>
0

>  <SCORE.SYSTEM.norm>
0

>  <SCORE.heavy>
31

>  <SCORE.norm>
0.808235

>  <RMSD>
10.893

$$$$
ligand
 OpenBabel11021811493D
libRbt.so/2013.1/901 2013/11/27
 31 33  0  0  0  0  0  0  0  0999 V2000
  -20.2955  -18.8635  -12.8171 C   0  0  2  0  0  0  0  0  0  0  0  0
  -19.0396  -19.3798  -13.2326 O   0  0  0  0  0  0  0  0  0  0  0  0
  -15.7497  -21.7636  -11.9406 C   0  0  2  0  0  0  0  0  0  0  0  0
  -14.8446  -22.4367  -11.0660 N   0  0  0  0  0  0  0  0  0  0  0  0
  -17.2251  -24.8214  -11.1051 C   0  0  2  0  0  0  0  0  0  0  0  0
  -20.1382  -17.2895  -12.7159 C   0  0  2  0  0  0  0  0  0  0  0  0
  -19.7428  -16.7567  -14.0280 N   0  0  0  0  0  0  0  0  0  0  0  0
  -15.7297  -20.2128  -11.5875 C   0  0  0  0  0  0  0  0  0  0  0  0
  -18.7065  -24.9297  -10.6135 C   0  0  2  0  0  0  0  0  0  0  0  0
  -19.5293  -25.1023  -11.7431 O   0  0  0  0  0  0  0  0  0  0  0  0
  -19.0650  -16.9294  -11.6136 C   0  0  0  0  0  0  0  0  0  0  0  0
  -16.7358  -19.4581  -12.5686 C   0  0  2  0  0  0  0  0  0  0  0  0
  -16.7285  -18.0117  -12.2604 N   0  0  0  0  0  0  0  0  0  0  0  0
  -19.0914  -23.6156   -9.8146 C   0  0  1  0  0  0  0  0  0  0  0  0
  -20.5175  -23.6998   -9.3356 N   0  0  0  0  0  0  0  0  0  0  0  0
  -19.1732  -17.8614  -10.3361 C   0  0  0  0  0  0  0  0  0  0  0  0
  -18.1931  -20.0431  -12.3609 C   0  0  2  0  0  0  0  0  0  0  0  0
  -18.1090  -23.4691   -8.5258 C   0  0  1  0  0  0  0  0  0  0  0  0
  -18.2145  -24.5492   -7.6205 O   0  0  0  0  0  0  0  0  0  0  0  0
  -19.9325  -18.9804  -10.3510 C   0  0  2  0  0  0  0  0  0  0  0  0
  -20.6781  -19.3884  -11.5026 O   0  0  0  0  0  0  0  0  0  0  0  0
  -18.1905  -21.5905  -12.6975 C   0  0  2  0  0  0  0  0  0  0  0  0
  -19.5130  -22.1167  -12.4972 O   0  0  0  0  0  0  0  0  0  0  0  0
  -16.6304  -23.3904   -9.0323 C   0  0  0  0  0  0  0  0  0  0  0  0
  -16.3097  -24.5944   -9.9159 O   0  0  0  0  0  0  0  0  0  0  0  0
  -20.0624  -19.9012   -9.1385 C   0  0  0  0  0  0  0  0  0  0  0  0
  -20.0727  -21.2575   -9.6102 O   0  0  0  0  0  0  0  0  0  0  0  0
  -17.1946  -22.3427  -11.7283 C   0  0  1  0  0  0  0  0  0  0  0  0
  -17.2108  -23.7183  -12.0688 O   0  0  0  0  0  0  0  0  0  0  0  0
  -18.3626  -22.2151   -7.6620 C   0  0  0  0  0  0  0  0  0  0  0  0
  -21.5659  -23.4722  -10.3509 C   0  0  0  0  0  0  0  0  0  0  0  0
  1  2  1  1  0  0  0
  1  6  1  0  0  0  0
  1 21  1  0  0  0  0
  3  4  1  1  0  0  0
  3  8  1  0  0  0  0
  3 28  1  0  0  0  0
  5  9  1  0  0  0  0
  5 25  1  0  0  0  0
  5 29  1  6  0  0  0
  6  7  1  6  0  0  0
  6 11  1  0  0  0  0
  8 12  1  0  0  0  0
  9 10  1  6  0  0  0
  9 14  1  0  0  0  0
 11 16  1  0  0  0  0
 12 13  1  1  0  0  0
 12 17  1  0  0  0  0
 14 15  1  1  0  0  0
 14 18  1  0  0  0  0
 15 31  1  0  0  0  0
 16 20  1  0  0  0  0
 17  2  1  6  0  0  0
 17 22  1  0  0  0  0
 18 19  1  1  0  0  0
 18 24  1  0  0  0  0
 18 30  1  0  0  0  0
 20 21  1  0  0  0  0
 20 26  1  1  0  0  0
 22 23  1  1  0  0  0
 22 28  1  0  0  0  0
 24 25  1  0  0  0  0
 26 27  1  0  0  0  0
 28 29  1  6  0  0  0
M  END
>  <CHROM.1>
105.74496207,78.96893336,-76.29946156,-133.59982881,-140.97036346,103.71531018
-18.49457405,-21.40169851,-11.01208801,1.75551565,0.37510508,-0.46276228

>  <Name>
ligand

>  <RI>
0

>  <Rbt.Current_Directory>
/home/itssahil/PROJECTS/Mol_Feturizer/New_Systems/rnas/4GPW

>  <Rbt.Executable>
rbdock ($Id: //depot/dev/client3/rdock/2013.1/src/exe/rbdock.cxx#4 $)

>  <Rbt.Library>
libRbt.so (2013.1, Build901 2013/11/27)

>  <Rbt.Parameter_File>
/export/apps/rDock/src/rDock_2013.1_src/data/scripts/dock_solv.prm

>  <Rbt.Receptor>
prm/blind_docking_100.prm

>  <SCORE>
95.4575

>  <SCORE.INTER>
67.9139

>  <SCORE.INTER.CONST>
1

>  <SCORE.INTER.POLAR>
0

>  <SCORE.INTER.ROT>
6

>  <SCORE.INTER.SOLV>
19.0724

>  <SCORE.INTER.VDW>
31.3185

>  <SCORE.INTER.norm>
2.19077

>  <SCORE.INTRA>
11.1754

>  <SCORE.INTRA.DIHEDRAL>
3.31202

>  <SCORE.INTRA.DIHEDRAL.0>
19.2558

>  <SCORE.INTRA.POLAR>
0

>  <SCORE.INTRA.POLAR.0>
0

>  <SCORE.INTRA.REPUL>
0

>  <SCORE.INTRA.REPUL.0>
0

>  <SCORE.INTRA.SOLV>
7.07277

>  <SCORE.INTRA.SOLV.lig_0>
-64.5929

>  <SCORE.INTRA.VDW>
5.98301

>  <SCORE.INTRA.VDW.0>
-4.40538

>  <SCORE.INTRA.norm>
0.360497

>  <SCORE.RESTR>
16.3682

>  <SCORE.RESTR.CAVITY>
16.3682

>  <SCORE.RESTR.norm>
0.528006

>  <SCORE.SYSTEM>
0

>  <SCORE.SYSTEM.CONST>
0

>  <SCORE.SYSTEM.DIHEDRAL>
0

>  <SCORE.SYSTEM.SOLV>
0

>  <SCORE.SYSTEM.norm>
0

>  <SCORE.heavy>
31

>  <SCORE.norm>
3.07927

>  <RMSD>
10.927

$$$$
ligand
 OpenBabel11021811493D
libRbt.so/2013.1/901 2013/11/27
 31 33  0  0  0  0  0  0  0  0999 V2000
  -15.1334  -21.4260  -12.5802 C   0  0  2  0  0  0  0  0  0  0  0  0
  -15.9536  -20.6995  -11.6768 O   0  0  0  0  0  0  0  0  0  0  0  0
  -19.8348  -19.0090  -11.1741 C   0  0  2  0  0  0  0  0  0  0  0  0
  -21.1857  -18.6466  -11.4591 N   0  0  0  0  0  0  0  0  0  0  0  0
  -21.5755  -22.1124  -10.3113 C   0  0  2  0  0  0  0  0  0  0  0  0
  -15.5226  -22.9552  -12.4313 C   0  0  2  0  0  0  0  0  0  0  0  0
  -16.9497  -23.1245  -12.7421 N   0  0  0  0  0  0  0  0  0  0  0  0
  -18.9022  -18.4070  -12.3133 C   0  0  0  0  0  0  0  0  0  0  0  0
  -21.3797  -23.1398   -9.1475 C   0  0  2  0  0  0  0  0  0  0  0  0
  -21.4309  -22.4344   -7.9299 O   0  0  0  0  0  0  0  0  0  0  0  0
  -15.2021  -23.4480  -10.9647 C   0  0  0  0  0  0  0  0  0  0  0  0
  -17.3914  -18.8054  -11.9925 C   0  0  2  0  0  0  0  0  0  0  0  0
  -16.5054  -18.2501  -13.0384 N   0  0  0  0  0  0  0  0  0  0  0  0
  -19.9888  -23.8785   -9.3286 C   0  0  1  0  0  0  0  0  0  0  0  0
  -19.7805  -24.8707   -8.2138 N   0  0  0  0  0  0  0  0  0  0  0  0
  -13.8406  -22.8548  -10.4108 C   0  0  0  0  0  0  0  0  0  0  0  0
  -17.2694  -20.3846  -11.9698 C   0  0  2  0  0  0  0  0  0  0  0  0
  -19.9884  -24.6721  -10.7490 C   0  0  1  0  0  0  0  0  0  0  0  0
  -20.9954  -25.6600  -10.8344 O   0  0  0  0  0  0  0  0  0  0  0  0
  -13.2055  -21.8482  -11.0529 C   0  0  2  0  0  0  0  0  0  0  0  0
  -13.7124  -21.2636  -12.2571 O   0  0  0  0  0  0  0  0  0  0  0  0
  -18.2183  -20.9683  -10.8443 C   0  0  2  0  0  0  0  0  0  0  0  0
  -18.1104  -22.4015  -10.8360 O   0  0  0  0  0  0  0  0  0  0  0  0
  -20.2131  -23.6353  -11.8995 C   0  0  0  0  0  0  0  0  0  0  0  0
  -21.4867  -22.8314  -11.6450 O   0  0  0  0  0  0  0  0  0  0  0  0
  -11.8911  -21.2530  -10.5501 C   0  0  0  0  0  0  0  0  0  0  0  0
  -12.1910  -20.0218   -9.8745 O   0  0  0  0  0  0  0  0  0  0  0  0
  -19.7166  -20.5755  -11.1573 C   0  0  1  0  0  0  0  0  0  0  0  0
  -20.5304  -21.1032  -10.1240 O   0  0  0  0  0  0  0  0  0  0  0  0
  -18.6793  -25.4270  -11.0645 C   0  0  0  0  0  0  0  0  0  0  0  0
  -19.2852  -24.3256   -6.9334 C   0  0  0  0  0  0  0  0  0  0  0  0
  1  2  1  1  0  0  0
  1  6  1  0  0  0  0
  1 21  1  0  0  0  0
  3  4  1  6  0  0  0
  3  8  1  0  0  0  0
  3 28  1  0  0  0  0
  5  9  1  0  0  0  0
  5 25  1  0  0  0  0
  5 29  1  6  0  0  0
  6  7  1  1  0  0  0
  6 11  1  0  0  0  0
  8 12  1  0  0  0  0
  9 10  1  1  0  0  0
  9 14  1  0  0  0  0
 11 16  1  0  0  0  0
 12 13  1  6  0  0  0
 12 17  1  0  0  0  0
 14 15  1  1  0  0  0
 14 18  1  0  0  0  0
 15 31  1  0  0  0  0
 16 20  1  0  0  0  0
 17  2  1  1  0  0  0
 17 22  1  0  0  0  0
 18 19  1  6  0  0  0
 18 24  1  0  0  0  0
 18 30  1  0  0  0  0
 20 21  1  0  0  0  0
 20 26  1  6  0  0  0
 22 23  1  6  0  0  0
 22 28  1  0  0  0  0
 24 25  1  0  0  0  0
 26 27  1  0  0  0  0
 28 29  1  1  0  0  0
M  END
>  <CHROM.1>
-79.40694180,135.31539062,-81.14028342,-118.43011642,-100.81344553,124.70014545
-17.93269111,-21.96875384,-10.86544041,0.37284443,0.08740008,-0.38162440

>  <Name>
ligand

>  <RI>
0

>  <Rbt.Current_Directory>
/home/itssahil/PROJECTS/Mol_Feturizer/New_Systems/rnas/4GPW

>  <Rbt.Executable>
rbdock ($Id: //depot/dev/client3/rdock/2013.1/src/exe/rbdock.cxx#4 $)

>  <Rbt.Library>
libRbt.so (2013.1, Build901 2013/11/27)

>  <Rbt.Parameter_File>
/export/apps/rDock/src/rDock_2013.1_src/data/scripts/dock_solv.prm

>  <Rbt.Receptor>
prm/blind_docking_60.prm

>  <SCORE>
37.9077

>  <SCORE.INTER>
12.2173

>  <SCORE.INTER.CONST>
1

>  <SCORE.INTER.POLAR>
0

>  <SCORE.INTER.ROT>
6

>  <SCORE.INTER.SOLV>
26.0338

>  <SCORE.INTER.VDW>
-8.13305

>  <SCORE.INTER.norm>
0.394108

>  <SCORE.INTRA>
6.92875

>  <SCORE.INTRA.DIHEDRAL>
5.27478

>  <SCORE.INTRA.DIHEDRAL.0>
19.2558

>  <SCORE.INTRA.POLAR>
0

>  <SCORE.INTRA.POLAR.0>
0

>  <SCORE.INTRA.REPUL>
0

>  <SCORE.INTRA.REPUL.0>
0

>  <SCORE.INTRA.SOLV>
2.59497

>  <SCORE.INTRA.SOLV.lig_0>
-64.5929

>  <SCORE.INTRA.VDW>
2.99388

>  <SCORE.INTRA.VDW.0>
-4.40538

>  <SCORE.INTRA.norm>
0.223508

>  <SCORE.RESTR>
18.7617

>  <SCORE.RESTR.CAVITY>
18.7617

>  <SCORE.RESTR.norm>
0.605215

>  <SCORE.SYSTEM>
0

>  <SCORE.SYSTEM.CONST>
0

>  <SCORE.SYSTEM.DIHEDRAL>
0

>  <SCORE.SYSTEM.SOLV>
0

>  <SCORE.SYSTEM.norm>
0

>  <SCORE.heavy>
31

>  <SCORE.norm>
1.22283

>  <RMSD>
10.938

$$$$
ligand
 OpenBabel11021811493D
libRbt.so/2013.1/901 2013/11/27
 31 33  0  0  0  0  0  0  0  0999 V2000
  -14.5657  -20.7557  -10.8418 C   0  0  2  0  0  0  0  0  0  0  0  0
  -15.0989  -20.9996  -12.1351 O   0  0  0  0  0  0  0  0  0  0  0  0
  -19.2922  -20.6821  -11.4353 C   0  0  2  0  0  0  0  0  0  0  0  0
  -20.6826  -20.4877  -11.6925 N   0  0  0  0  0  0  0  0  0  0  0  0
  -19.4044  -23.6544  -10.4942 C   0  0  2  0  0  0  0  0  0  0  0  0
  -13.3589  -21.7636  -10.6412 C   0  0  2  0  0  0  0  0  0  0  0  0
  -12.3556  -21.5333  -11.6910 N   0  0  0  0  0  0  0  0  0  0  0  0
  -18.5105  -19.3711  -11.8826 C   0  0  0  0  0  0  0  0  0  0  0  0
  -20.1640  -25.0197  -10.5791 C   0  0  2  0  0  0  0  0  0  0  0  0
  -19.5611  -25.7919  -11.5905 O   0  0  0  0  0  0  0  0  0  0  0  0
  -13.8913  -23.2506  -10.6856 C   0  0  0  0  0  0  0  0  0  0  0  0
  -16.9572  -19.5842  -11.5894 C   0  0  2  0  0  0  0  0  0  0  0  0
  -16.2113  -18.3727  -11.9937 N   0  0  0  0  0  0  0  0  0  0  0  0
  -21.6941  -24.7498  -10.8936 C   0  0  1  0  0  0  0  0  0  0  0  0
  -22.4424  -26.0547  -10.9828 N   0  0  0  0  0  0  0  0  0  0  0  0
  -15.2790  -23.4192   -9.9384 C   0  0  0  0  0  0  0  0  0  0  0  0
  -16.4433  -20.8318  -12.4192 C   0  0  2  0  0  0  0  0  0  0  0  0
  -22.3343  -23.8547   -9.6951 C   0  0  1  0  0  0  0  0  0  0  0  0
  -22.2772  -24.4910   -8.4344 O   0  0  0  0  0  0  0  0  0  0  0  0
  -16.0020  -22.3417   -9.5576 C   0  0  2  0  0  0  0  0  0  0  0  0
  -15.5669  -20.9995   -9.7987 O   0  0  0  0  0  0  0  0  0  0  0  0
  -17.2450  -22.1234  -11.9757 C   0  0  2  0  0  0  0  0  0  0  0  0
  -16.7810  -23.2492  -12.7393 O   0  0  0  0  0  0  0  0  0  0  0  0
  -21.5462  -22.5057   -9.6048 C   0  0  0  0  0  0  0  0  0  0  0  0
  -20.0521  -22.7766   -9.4389 O   0  0  0  0  0  0  0  0  0  0  0  0
  -17.3420  -22.4655   -8.8337 C   0  0  0  0  0  0  0  0  0  0  0  0
  -18.0315  -21.2120   -8.9587 O   0  0  0  0  0  0  0  0  0  0  0  0
  -18.7850  -21.9170  -12.2636 C   0  0  1  0  0  0  0  0  0  0  0  0
  -19.4675  -23.0854  -11.8424 O   0  0  0  0  0  0  0  0  0  0  0  0
  -23.8251  -23.5005   -9.8816 C   0  0  0  0  0  0  0  0  0  0  0  0
  -22.4112  -26.7416  -12.2901 C   0  0  0  0  0  0  0  0  0  0  0  0
  1  2  1  6  0  0  0
  1  6  1  0  0  0  0
  1 21  1  0  0  0  0
  3  4  1  6  0  0  0
  3  8  1  0  0  0  0
  3 28  1  0  0  0  0
  5  9  1  0  0  0  0
  5 25  1  0  0  0  0
  5 29  1  6  0  0  0
  6  7  1  6  0  0  0
  6 11  1  0  0  0  0
  8 12  1  0  0  0  0
  9 10  1  6  0  0  0
  9 14  1  0  0  0  0
 11 16  1  0  0  0  0
 12 13  1  6  0  0  0
 12 17  1  0  0  0  0
 14 15  1  1  0  0  0
 14 18  1  0  0  0  0
 15 31  1  0  0  0  0
 16 20  1  0  0  0  0
 17  2  1  1  0  0  0
 17 22  1  0  0  0  0
 18 19  1  1  0  0  0
 18 24  1  0  0  0  0
 18 30  1  0  0  0  0
 20 21  1  0  0  0  0
 20 26  1  1  0  0  0
 22 23  1  6  0  0  0
 22 28  1  0  0  0  0
 24 25  1  0  0  0  0
 26 27  1  0  0  0  0
 28 29  1  1  0  0  0
M  END
>  <CHROM.1>
148.00911889,-172.89092847,-84.76556829,36.24404188,-161.74053913,-62.32187884
-18.33149895,-22.52975718,-10.85460416,-0.45555435,-0.06438124,3.06660907

>  <Name>
ligand

>  <RI>
0

>  <Rbt.Current_Directory>
/home/itssahil/PROJECTS/Mol_Feturizer/New_Systems/rnas/4GPW

>  <Rbt.Executable>
rbdock ($Id: //depot/dev/client3/rdock/2013.1/src/exe/rbdock.cxx#4 $)

>  <Rbt.Library>
libRbt.so (2013.1, Build901 2013/11/27)

>  <Rbt.Parameter_File>
/export/apps/rDock/src/rDock_2013.1_src/data/scripts/dock_solv.prm

>  <Rbt.Receptor>
prm/blind_docking_60.prm

>  <SCORE>
40.5001

>  <SCORE.INTER>
17.3307

>  <SCORE.INTER.CONST>
1

>  <SCORE.INTER.POLAR>
0

>  <SCORE.INTER.ROT>
6

>  <SCORE.INTER.SOLV>
21.6089

>  <SCORE.INTER.VDW>
-3.2492

>  <SCORE.INTER.norm>
0.559053

>  <SCORE.INTRA>
1.78412

>  <SCORE.INTRA.DIHEDRAL>
-8.92129

>  <SCORE.INTRA.DIHEDRAL.0>
19.2558

>  <SCORE.INTRA.POLAR>
0

>  <SCORE.INTRA.POLAR.0>
0

>  <SCORE.INTRA.REPUL>
0

>  <SCORE.INTRA.REPUL.0>
0

>  <SCORE.INTRA.SOLV>
2.38844

>  <SCORE.INTRA.SOLV.lig_0>
-64.5929

>  <SCORE.INTRA.VDW>
5.05054

>  <SCORE.INTRA.VDW.0>
-4.40538

>  <SCORE.INTRA.norm>
0.0575523

>  <SCORE.RESTR>
21.3853

>  <SCORE.RESTR.CAVITY>
21.3853

>  <SCORE.RESTR.norm>
0.689849

>  <SCORE.SYSTEM>
0

>  <SCORE.SYSTEM.CONST>
0

>  <SCORE.SYSTEM.DIHEDRAL>
0

>  <SCORE.SYSTEM.SOLV>
0

>  <SCORE.SYSTEM.norm>
0

>  <SCORE.heavy>
31

>  <SCORE.norm>
1.30646

>  <RMSD>
10.942

$$$$
ligand
 OpenBabel11021811493D
libRbt.so/2013.1/901 2013/11/27
 31 33  0  0  0  0  0  0  0  0999 V2000
  -14.9784  -21.5993  -12.7279 C   0  0  2  0  0  0  0  0  0  0  0  0
  -15.7228  -20.7667  -11.8508 O   0  0  0  0  0  0  0  0  0  0  0  0
  -19.6630  -19.4064  -10.9572 C   0  0  2  0  0  0  0  0  0  0  0  0
  -21.0862  -19.3043  -10.9956 N   0  0  0  0  0  0  0  0  0  0  0  0
  -20.8114  -21.9975   -8.7961 C   0  0  2  0  0  0  0  0  0  0  0  0
  -15.4405  -23.0905  -12.4538 C   0  0  2  0  0  0  0  0  0  0  0  0
  -16.8858  -23.2029  -12.6994 N   0  0  0  0  0  0  0  0  0  0  0  0
  -19.1014  -19.1505  -12.4232 C   0  0  0  0  0  0  0  0  0  0  0  0
  -20.1046  -23.3799   -8.6029 C   0  0  2  0  0  0  0  0  0  0  0  0
  -19.0867  -23.2190   -7.6434 O   0  0  0  0  0  0  0  0  0  0  0  0
  -15.0875  -23.4948  -10.9677 C   0  0  0  0  0  0  0  0  0  0  0  0
  -17.5105  -19.2575  -12.3807 C   0  0  2  0  0  0  0  0  0  0  0  0
  -16.9667  -19.0171  -13.7348 N   0  0  0  0  0  0  0  0  0  0  0  0
  -19.5164  -23.8669   -9.9922 C   0  0  1  0  0  0  0  0  0  0  0  0
  -18.8279  -25.1968   -9.8254 N   0  0  0  0  0  0  0  0  0  0  0  0
  -13.6758  -22.9393  -10.5084 C   0  0  0  0  0  0  0  0  0  0  0  0
  -17.1053  -20.7081  -11.8901 C   0  0  2  0  0  0  0  0  0  0  0  0
  -20.7350  -24.0329  -11.0575 C   0  0  1  0  0  0  0  0  0  0  0  0
  -21.6967  -24.9883  -10.6580 O   0  0  0  0  0  0  0  0  0  0  0  0
  -13.0154  -22.0172  -11.2448 C   0  0  2  0  0  0  0  0  0  0  0  0
  -13.5391  -21.4926  -12.4693 O   0  0  0  0  0  0  0  0  0  0  0  0
  -17.6886  -20.9533  -10.4384 C   0  0  2  0  0  0  0  0  0  0  0  0
  -17.3260  -22.2745  -10.0037 O   0  0  0  0  0  0  0  0  0  0  0  0
  -21.4487  -22.6494  -11.2182 C   0  0  0  0  0  0  0  0  0  0  0  0
  -21.8918  -22.1219   -9.8549 O   0  0  0  0  0  0  0  0  0  0  0  0
  -11.6526  -21.4608  -10.8349 C   0  0  0  0  0  0  0  0  0  0  0  0
  -11.8279  -20.0840  -10.4663 O   0  0  0  0  0  0  0  0  0  0  0  0
  -19.2649  -20.8477  -10.4752 C   0  0  1  0  0  0  0  0  0  0  0  0
  -19.7466  -21.0595   -9.1593 O   0  0  0  0  0  0  0  0  0  0  0  0
  -20.3006  -24.4884  -12.4670 C   0  0  0  0  0  0  0  0  0  0  0  0
  -17.6122  -25.4131  -10.6359 C   0  0  0  0  0  0  0  0  0  0  0  0
  1  2  1  1  0  0  0
  1  6  1  0  0  0  0
  1 21  1  0  0  0  0
  3  4  1  6  0  0  0
  3  8  1  0  0  0  0
  3 28  1  0  0  0  0
  5  9  1  0  0  0  0
  5 25  1  0  0  0  0
  5 29  1  6  0  0  0
  6  7  1  1  0  0  0
  6 11  1  0  0  0  0
  8 12  1  0  0  0  0
  9 10  1  1  0  0  0
  9 14  1  0  0  0  0
 11 16  1  0  0  0  0
 12 13  1  6  0  0  0
 12 17  1  0  0  0  0
 14 15  1  1  0  0  0
 14 18  1  0  0  0  0
 15 31  1  0  0  0  0
 16 20  1  0  0  0  0
 17  2  1  1  0  0  0
 17 22  1  0  0  0  0
 18 19  1  1  0  0  0
 18 24  1  0  0  0  0
 18 30  1  0  0  0  0
 20 21  1  0  0  0  0
 20 26  1  6  0  0  0
 22 23  1  6  0  0  0
 22 28  1  0  0  0  0
 24 25  1  0  0  0  0
 26 27  1  0  0  0  0
 28 29  1  1  0  0  0
M  END
>  <CHROM.1>
-60.31868177,85.60765175,-143.76212417,-113.25620762,-111.06356056,111.81657762
-17.70706385,-22.06276033,-10.92802366,0.25476680,0.12070513,-0.31885226

>  <Name>
ligand

>  <RI>
0

>  <Rbt.Current_Directory>
/home/itssahil/PROJECTS/Mol_Feturizer/New_Systems/rnas/4GPW

>  <Rbt.Executable>
rbdock ($Id: //depot/dev/client3/rdock/2013.1/src/exe/rbdock.cxx#4 $)

>  <Rbt.Library>
libRbt.so (2013.1, Build901 2013/11/27)

>  <Rbt.Parameter_File>
/export/apps/rDock/src/rDock_2013.1_src/data/scripts/dock_solv.prm

>  <Rbt.Receptor>
prm/blind_docking_60.prm

>  <SCORE>
41.7303

>  <SCORE.INTER>
19.7431

>  <SCORE.INTER.CONST>
1

>  <SCORE.INTER.POLAR>
0

>  <SCORE.INTER.ROT>
6

>  <SCORE.INTER.SOLV>
25.4246

>  <SCORE.INTER.VDW>
-2.91279

>  <SCORE.INTER.norm>
0.636875

>  <SCORE.INTRA>
5.18669

>  <SCORE.INTRA.DIHEDRAL>
-0.0571318

>  <SCORE.INTRA.DIHEDRAL.0>
19.2558

>  <SCORE.INTRA.POLAR>
0

>  <SCORE.INTRA.POLAR.0>
0

>  <SCORE.INTRA.REPUL>
0

>  <SCORE.INTRA.REPUL.0>
0

>  <SCORE.INTRA.SOLV>
5.42632

>  <SCORE.INTRA.SOLV.lig_0>
-64.5929

>  <SCORE.INTRA.VDW>
2.50209

>  <SCORE.INTRA.VDW.0>
-4.40538

>  <SCORE.INTRA.norm>
0.167313

>  <SCORE.RESTR>
16.8005

>  <SCORE.RESTR.CAVITY>
16.8005

>  <SCORE.RESTR.norm>
0.54195

>  <SCORE.SYSTEM>
0

>  <SCORE.SYSTEM.CONST>
0

>  <SCORE.SYSTEM.DIHEDRAL>
0

>  <SCORE.SYSTEM.SOLV>
0

>  <SCORE.SYSTEM.norm>
0

>  <SCORE.heavy>
31

>  <SCORE.norm>
1.34614

>  <RMSD>
10.944

$$$$
ligand
 OpenBabel11021811493D
libRbt.so/2013.1/901 2013/11/27
 31 33  0  0  0  0  0  0  0  0999 V2000
  -17.2518  -18.5831  -12.4449 C   0  0  2  0  0  0  0  0  0  0  0  0
  -16.8620  -19.0318  -11.1552 O   0  0  0  0  0  0  0  0  0  0  0  0
  -16.5949  -23.2433  -11.7607 C   0  0  2  0  0  0  0  0  0  0  0  0
  -16.2313  -24.6071  -11.5483 N   0  0  0  0  0  0  0  0  0  0  0  0
  -18.9568  -24.3917   -9.3190 C   0  0  2  0  0  0  0  0  0  0  0  0
  -17.8599  -17.1304  -12.2652 C   0  0  2  0  0  0  0  0  0  0  0  0
  -16.8432  -16.2496  -11.6716 N   0  0  0  0  0  0  0  0  0  0  0  0
  -15.2635  -22.3847  -11.9021 C   0  0  0  0  0  0  0  0  0  0  0  0
  -20.1986  -25.2115   -9.8027 C   0  0  2  0  0  0  0  0  0  0  0  0
  -19.8601  -25.8408  -11.0160 O   0  0  0  0  0  0  0  0  0  0  0  0
  -19.1487  -17.1994  -11.3537 C   0  0  0  0  0  0  0  0  0  0  0  0
  -15.6682  -20.8613  -12.1463 C   0  0  2  0  0  0  0  0  0  0  0  0
  -14.4428  -20.0450  -12.2862 N   0  0  0  0  0  0  0  0  0  0  0  0
  -21.4337  -24.2344   -9.9842 C   0  0  1  0  0  0  0  0  0  0  0  0
  -22.6398  -25.0061  -10.4536 N   0  0  0  0  0  0  0  0  0  0  0  0
  -20.0451  -18.4683  -11.6680 C   0  0  0  0  0  0  0  0  0  0  0  0
  -16.5150  -20.3492  -10.9094 C   0  0  2  0  0  0  0  0  0  0  0  0
  -21.7761  -23.5377   -8.5543 C   0  0  1  0  0  0  0  0  0  0  0  0
  -22.1297  -24.4694   -7.5522 O   0  0  0  0  0  0  0  0  0  0  0  0
  -19.5828  -19.4743  -12.4445 C   0  0  2  0  0  0  0  0  0  0  0  0
  -18.2750  -19.4580  -13.0260 O   0  0  0  0  0  0  0  0  0  0  0  0
  -17.8260  -21.2267  -10.7715 C   0  0  2  0  0  0  0  0  0  0  0  0
  -18.5843  -20.7635   -9.6418 O   0  0  0  0  0  0  0  0  0  0  0  0
  -20.5159  -22.7455   -8.0711 C   0  0  0  0  0  0  0  0  0  0  0  0
  -19.2970  -23.6654   -8.0305 O   0  0  0  0  0  0  0  0  0  0  0  0
  -20.4187  -20.7111  -12.7706 C   0  0  0  0  0  0  0  0  0  0  0  0
  -20.8333  -20.6177  -14.1423 O   0  0  0  0  0  0  0  0  0  0  0  0
  -17.4303  -22.7374  -10.5300 C   0  0  1  0  0  0  0  0  0  0  0  0
  -18.6266  -23.4899  -10.4251 O   0  0  0  0  0  0  0  0  0  0  0  0
  -22.9552  -22.5419   -8.5890 C   0  0  0  0  0  0  0  0  0  0  0  0
  -22.4544  -25.8492  -11.6523 C   0  0  0  0  0  0  0  0  0  0  0  0
  1  2  1  1  0  0  0
  1  6  1  0  0  0  0
  1 21  1  0  0  0  0
  3  4  1  1  0  0  0
  3  8  1  0  0  0  0
  3 28  1  0  0  0  0
  5  9  1  0  0  0  0
  5 25  1  0  0  0  0
  5 29  1  6  0  0  0
  6  7  1  1  0  0  0
  6 11  1  0  0  0  0
  8 12  1  0  0  0  0
  9 10  1  6  0  0  0
  9 14  1  0  0  0  0
 11 16  1  0  0  0  0
 12 13  1  1  0  0  0
 12 17  1  0  0  0  0
 14 15  1  1  0  0  0
 14 18  1  0  0  0  0
 15 31  1  0  0  0  0
 16 20  1  0  0  0  0
 17  2  1  6  0  0  0
 17 22  1  0  0  0  0
 18 19  1  1  0  0  0
 18 24  1  0  0  0  0
 18 30  1  0  0  0  0
 20 21  1  0  0  0  0
 20 26  1  6  0  0  0
 22 23  1  1  0  0  0
 22 28  1  0  0  0  0
 24 25  1  0  0  0  0
 26 27  1  0  0  0  0
 28 29  1  6  0  0  0
M  END
>  <CHROM.1>
168.13327610,-167.79801692,-52.72588124,39.74103505,107.04987167,114.54396915
-18.95867835,-21.76822546,-10.89109771,0.99344811,0.21838701,-0.27513378

>  <Name>
ligand

>  <RI>
0

>  <Rbt.Current_Directory>
/home/itssahil/PROJECTS/Mol_Feturizer/New_Systems/rnas/4GPW

>  <Rbt.Executable>
rbdock ($Id: //depot/dev/client3/rdock/2013.1/src/exe/rbdock.cxx#4 $)

>  <Rbt.Library>
libRbt.so (2013.1, Build901 2013/11/27)

>  <Rbt.Parameter_File>
/export/apps/rDock/src/rDock_2013.1_src/data/scripts/dock_solv.prm

>  <Rbt.Receptor>
prm/blind_docking_60.prm

>  <SCORE>
48.738

>  <SCORE.INTER>
29.7556

>  <SCORE.INTER.CONST>
1

>  <SCORE.INTER.POLAR>
0

>  <SCORE.INTER.ROT>
6

>  <SCORE.INTER.SOLV>
25.3022

>  <SCORE.INTER.VDW>
3.80301

>  <SCORE.INTER.norm>
0.959858

>  <SCORE.INTRA>
-0.396521

>  <SCORE.INTRA.DIHEDRAL>
-7.04384

>  <SCORE.INTRA.DIHEDRAL.0>
19.2558

>  <SCORE.INTRA.POLAR>
0

>  <SCORE.INTRA.POLAR.0>
0

>  <SCORE.INTRA.REPUL>
0

>  <SCORE.INTRA.REPUL.0>
0

>  <SCORE.INTRA.SOLV>
-1.61238

>  <SCORE.INTRA.SOLV.lig_0>
-64.5929

>  <SCORE.INTRA.VDW>
3.93159

>  <SCORE.INTRA.VDW.0>
-4.40538

>  <SCORE.INTRA.norm>
-0.012791

>  <SCORE.RESTR>
19.379

>  <SCORE.RESTR.CAVITY>
19.379

>  <SCORE.RESTR.norm>
0.625128

>  <SCORE.SYSTEM>
0

>  <SCORE.SYSTEM.CONST>
0

>  <SCORE.SYSTEM.DIHEDRAL>
0

>  <SCORE.SYSTEM.SOLV>
0

>  <SCORE.SYSTEM.norm>
0

>  <SCORE.heavy>
31

>  <SCORE.norm>
1.57219

>  <RMSD>
10.947

$$$$
ligand
 OpenBabel11021811493D
libRbt.so/2013.1/901 2013/11/27
 31 33  0  0  0  0  0  0  0  0999 V2000
  -20.5441  -19.3832  -12.7189 C   0  0  2  0  0  0  0  0  0  0  0  0
  -19.2533  -19.8588  -13.0715 O   0  0  0  0  0  0  0  0  0  0  0  0
  -15.7937  -21.7536  -11.4543 C   0  0  2  0  0  0  0  0  0  0  0  0
  -14.8184  -22.1736  -10.5004 N   0  0  0  0  0  0  0  0  0  0  0  0
  -17.3523  -24.6044   -9.8914 C   0  0  2  0  0  0  0  0  0  0  0  0
  -21.1742  -18.7434  -14.0250 C   0  0  2  0  0  0  0  0  0  0  0  0
  -21.2448  -19.7654  -15.0797 N   0  0  0  0  0  0  0  0  0  0  0  0
  -15.8372  -20.1636  -11.4613 C   0  0  0  0  0  0  0  0  0  0  0  0
  -18.8522  -25.0469   -9.9418 C   0  0  2  0  0  0  0  0  0  0  0  0
  -19.0852  -25.6570  -11.1892 O   0  0  0  0  0  0  0  0  0  0  0  0
  -20.3019  -17.5110  -14.4907 C   0  0  0  0  0  0  0  0  0  0  0  0
  -16.9219  -19.6926  -12.5318 C   0  0  2  0  0  0  0  0  0  0  0  0
  -16.9747  -18.2148  -12.5584 N   0  0  0  0  0  0  0  0  0  0  0  0
  -19.7805  -23.7782   -9.7374 C   0  0  1  0  0  0  0  0  0  0  0  0
  -21.2307  -24.1843   -9.7864 N   0  0  0  0  0  0  0  0  0  0  0  0
  -19.7904  -16.6364  -13.2718 C   0  0  0  0  0  0  0  0  0  0  0  0
  -18.3372  -20.2722  -12.1195 C   0  0  2  0  0  0  0  0  0  0  0  0
  -19.4659  -23.1168   -8.2845 C   0  0  1  0  0  0  0  0  0  0  0  0
  -19.7220  -23.9943   -7.2068 O   0  0  0  0  0  0  0  0  0  0  0  0
  -19.8942  -17.0837  -11.9998 C   0  0  2  0  0  0  0  0  0  0  0  0
  -20.4660  -18.3553  -11.6762 O   0  0  0  0  0  0  0  0  0  0  0  0
  -18.2707  -21.8543  -12.0984 C   0  0  2  0  0  0  0  0  0  0  0  0
  -19.5547  -22.3731  -11.7138 O   0  0  0  0  0  0  0  0  0  0  0  0
  -17.9566  -22.7055   -8.2400 C   0  0  0  0  0  0  0  0  0  0  0  0
  -17.0720  -23.9053   -8.5737 O   0  0  0  0  0  0  0  0  0  0  0  0
  -19.4143  -16.2678  -10.8002 C   0  0  0  0  0  0  0  0  0  0  0  0
  -19.2076  -17.1710   -9.7031 O   0  0  0  0  0  0  0  0  0  0  0  0
  -17.1967  -22.3260  -11.0395 C   0  0  1  0  0  0  0  0  0  0  0  0
  -17.1578  -23.7426  -11.0598 O   0  0  0  0  0  0  0  0  0  0  0  0
  -20.2924  -21.8542   -7.9591 C   0  0  0  0  0  0  0  0  0  0  0  0
  -21.7386  -24.6499  -11.0929 C   0  0  0  0  0  0  0  0  0  0  0  0
  1  2  1  6  0  0  0
  1  6  1  0  0  0  0
  1 21  1  0  0  0  0
  3  4  1  1  0  0  0
  3  8  1  0  0  0  0
  3 28  1  0  0  0  0
  5  9  1  0  0  0  0
  5 25  1  0  0  0  0
  5 29  1  6  0  0  0
  6  7  1  6  0  0  0
  6 11  1  0  0  0  0
  8 12  1  0  0  0  0
  9 10  1  6  0  0  0
  9 14  1  0  0  0  0
 11 16  1  0  0  0  0
 12 13  1  1  0  0  0
 12 17  1  0  0  0  0
 14 15  1  1  0  0  0
 14 18  1  0  0  0  0
 15 31  1  0  0  0  0
 16 20  1  0  0  0  0
 17  2  1  6  0  0  0
 17 22  1  0  0  0  0
 18 19  1  1  0  0  0
 18 24  1  0  0  0  0
 18 30  1  0  0  0  0
 20 21  1  0  0  0  0
 20 26  1  1  0  0  0
 22 23  1  1  0  0  0
 22 28  1  0  0  0  0
 24 25  1  0  0  0  0
 26 27  1  0  0  0  0
 28 29  1  6  0  0  0
M  END
>  <CHROM.1>
168.86054709,97.51359188,-67.80506148,-137.28540288,-159.15740933,117.05163260
-18.87903873,-21.21055724,-11.10991825,1.70752986,-0.19684781,-0.46138327

>  <Name>
ligand

>  <RI>
0

>  <Rbt.Current_Directory>
/home/itssahil/PROJECTS/Mol_Feturizer/New_Systems/rnas/4GPW

>  <Rbt.Executable>
rbdock ($Id: //depot/dev/client3/rdock/2013.1/src/exe/rbdock.cxx#4 $)

>  <Rbt.Library>
libRbt.so (2013.1, Build901 2013/11/27)

>  <Rbt.Parameter_File>
/export/apps/rDock/src/rDock_2013.1_src/data/scripts/dock_solv.prm

>  <Rbt.Receptor>
prm/blind_docking_100.prm

>  <SCORE>
33.1055

>  <SCORE.INTER>
8.86926

>  <SCORE.INTER.CONST>
1

>  <SCORE.INTER.POLAR>
0

>  <SCORE.INTER.ROT>
6

>  <SCORE.INTER.SOLV>
23.4185

>  <SCORE.INTER.VDW>
-9.49332

>  <SCORE.INTER.norm>
0.286105

>  <SCORE.INTRA>
6.39699

>  <SCORE.INTRA.DIHEDRAL>
2.42461

>  <SCORE.INTRA.DIHEDRAL.0>
19.2558

>  <SCORE.INTRA.POLAR>
0

>  <SCORE.INTRA.POLAR.0>
0

>  <SCORE.INTRA.REPUL>
0

>  <SCORE.INTRA.REPUL.0>
0

>  <SCORE.INTRA.SOLV>
2.6513

>  <SCORE.INTRA.SOLV.lig_0>
-64.5929

>  <SCORE.INTRA.VDW>
3.85903

>  <SCORE.INTRA.VDW.0>
-4.40538

>  <SCORE.INTRA.norm>
0.206355

>  <SCORE.RESTR>
17.8393

>  <SCORE.RESTR.CAVITY>
17.8393

>  <SCORE.RESTR.norm>
0.57546

>  <SCORE.SYSTEM>
0

>  <SCORE.SYSTEM.CONST>
0

>  <SCORE.SYSTEM.DIHEDRAL>
0

>  <SCORE.SYSTEM.SOLV>
0

>  <SCORE.SYSTEM.norm>
0

>  <SCORE.heavy>
31

>  <SCORE.norm>
1.06792

>  <RMSD>
10.967

$$$$
ligand
 OpenBabel11021811493D
libRbt.so/2013.1/901 2013/11/27
 31 33  0  0  0  0  0  0  0  0999 V2000
  -14.7614  -21.3294  -10.4371 C   0  0  2  0  0  0  0  0  0  0  0  0
  -15.4888  -20.5506  -11.3757 O   0  0  0  0  0  0  0  0  0  0  0  0
  -19.6332  -19.6401  -10.9643 C   0  0  2  0  0  0  0  0  0  0  0  0
  -21.0480  -19.7318  -11.1293 N   0  0  0  0  0  0  0  0  0  0  0  0
  -20.7816  -22.0079   -8.6684 C   0  0  2  0  0  0  0  0  0  0  0  0
  -13.2520  -21.3462  -10.9206 C   0  0  2  0  0  0  0  0  0  0  0  0
  -12.7479  -19.9664  -10.9834 N   0  0  0  0  0  0  0  0  0  0  0  0
  -18.9706  -19.4625  -12.3993 C   0  0  0  0  0  0  0  0  0  0  0  0
  -20.1158  -23.4074   -8.4527 C   0  0  2  0  0  0  0  0  0  0  0  0
  -19.1211  -23.2696   -7.4656 O   0  0  0  0  0  0  0  0  0  0  0  0
  -13.1507  -22.0488  -12.3322 C   0  0  0  0  0  0  0  0  0  0  0  0
  -17.3899  -19.3531  -12.2160 C   0  0  2  0  0  0  0  0  0  0  0  0
  -16.7536  -19.1817  -13.5400 N   0  0  0  0  0  0  0  0  0  0  0  0
  -19.5019  -23.9130   -9.8241 C   0  0  1  0  0  0  0  0  0  0  0  0
  -18.8524  -25.2595   -9.6354 N   0  0  0  0  0  0  0  0  0  0  0  0
  -14.0996  -23.3132  -12.4484 C   0  0  0  0  0  0  0  0  0  0  0  0
  -16.8580  -20.6799  -11.5334 C   0  0  2  0  0  0  0  0  0  0  0  0
  -20.6943  -24.0510  -10.9225 C   0  0  1  0  0  0  0  0  0  0  0  0
  -21.6908  -24.9805  -10.5478 O   0  0  0  0  0  0  0  0  0  0  0  0
  -15.0518  -23.5587  -11.5201 C   0  0  2  0  0  0  0  0  0  0  0  0
  -15.2603  -22.7073  -10.3886 O   0  0  0  0  0  0  0  0  0  0  0  0
  -17.5420  -20.8513  -10.1154 C   0  0  2  0  0  0  0  0  0  0  0  0
  -17.0629  -22.0617   -9.5063 O   0  0  0  0  0  0  0  0  0  0  0  0
  -21.3679  -22.6503  -11.1059 C   0  0  0  0  0  0  0  0  0  0  0  0
  -21.8350  -22.1078   -9.7565 O   0  0  0  0  0  0  0  0  0  0  0  0
  -15.9827  -24.7680  -11.5980 C   0  0  0  0  0  0  0  0  0  0  0  0
  -16.2050  -25.2439  -10.2615 O   0  0  0  0  0  0  0  0  0  0  0  0
  -19.1086  -20.9595  -10.2917 C   0  0  1  0  0  0  0  0  0  0  0  0
  -19.6835  -21.0983   -9.0038 O   0  0  0  0  0  0  0  0  0  0  0  0
  -20.2328  -24.5214  -12.3184 C   0  0  0  0  0  0  0  0  0  0  0  0
  -18.1659  -25.4827   -8.3468 C   0  0  0  0  0  0  0  0  0  0  0  0
  1  2  1  6  0  0  0
  1  6  1  0  0  0  0
  1 21  1  0  0  0  0
  3  4  1  6  0  0  0
  3  8  1  0  0  0  0
  3 28  1  0  0  0  0
  5  9  1  0  0  0  0
  5 25  1  0  0  0  0
  5 29  1  6  0  0  0
  6  7  1  6  0  0  0
  6 11  1  0  0  0  0
  8 12  1  0  0  0  0
  9 10  1  1  0  0  0
  9 14  1  0  0  0  0
 11 16  1  0  0  0  0
 12 13  1  6  0  0  0
 12 17  1  0  0  0  0
 14 15  1  1  0  0  0
 14 18  1  0  0  0  0
 15 31  1  0  0  0  0
 16 20  1  0  0  0  0
 17  2  1  1  0  0  0
 17 22  1  0  0  0  0
 18 19  1  1  0  0  0
 18 24  1  0  0  0  0
 18 30  1  0  0  0  0
 20 21  1  0  0  0  0
 20 26  1  1  0  0  0
 22 23  1  6  0  0  0
 22 28  1  0  0  0  0
 24 25  1  0  0  0  0
 26 27  1  0  0  0  0
 28 29  1  1  0  0  0
M  END
>  <CHROM.1>
157.92365138,81.74833872,-36.13871980,159.25861763,143.16764616,103.24007148
-17.83456417,-22.28243694,-10.61677806,-0.32697596,-0.16905104,2.81426475

>  <Name>
ligand

>  <RI>
0

>  <Rbt.Current_Directory>
/home/itssahil/PROJECTS/Mol_Feturizer/New_Systems/rnas/4GPW

>  <Rbt.Executable>
rbdock ($Id: //depot/dev/client3/rdock/2013.1/src/exe/rbdock.cxx#4 $)

>  <Rbt.Library>
libRbt.so (2013.1, Build901 2013/11/27)

>  <Rbt.Parameter_File>
/export/apps/rDock/src/rDock_2013.1_src/data/scripts/dock_solv.prm

>  <Rbt.Receptor>
prm/blind_docking_60.prm

>  <SCORE>
53.27

>  <SCORE.INTER>
18.8479

>  <SCORE.INTER.CONST>
1

>  <SCORE.INTER.POLAR>
0

>  <SCORE.INTER.ROT>
6

>  <SCORE.INTER.SOLV>
22.7636

>  <SCORE.INTER.VDW>
-2.6226

>  <SCORE.INTER.norm>
0.607997

>  <SCORE.INTRA>
14.5093

>  <SCORE.INTRA.DIHEDRAL>
-4.48075

>  <SCORE.INTRA.DIHEDRAL.0>
19.2558

>  <SCORE.INTRA.POLAR>
0

>  <SCORE.INTRA.POLAR.0>
0

>  <SCORE.INTRA.REPUL>
0

>  <SCORE.INTRA.REPUL.0>
0

>  <SCORE.INTRA.SOLV>
1.56042

>  <SCORE.INTRA.SOLV.lig_0>
-64.5929

>  <SCORE.INTRA.VDW>
15.9694

>  <SCORE.INTRA.VDW.0>
-4.40538

>  <SCORE.INTRA.norm>
0.468041

>  <SCORE.RESTR>
19.9128

>  <SCORE.RESTR.CAVITY>
19.9128

>  <SCORE.RESTR.norm>
0.64235

>  <SCORE.SYSTEM>
0

>  <SCORE.SYSTEM.CONST>
0

>  <SCORE.SYSTEM.DIHEDRAL>
0

>  <SCORE.SYSTEM.SOLV>
0

>  <SCORE.SYSTEM.norm>
0

>  <SCORE.heavy>
31

>  <SCORE.norm>
1.71839

>  <RMSD>
10.967

$$$$
ligand
 OpenBabel11021811493D
libRbt.so/2013.1/901 2013/11/27
 31 33  0  0  0  0  0  0  0  0999 V2000
  -20.5870  -19.4190  -12.7688 C   0  0  2  0  0  0  0  0  0  0  0  0
  -19.3039  -19.9249  -13.1069 O   0  0  0  0  0  0  0  0  0  0  0  0
  -15.8395  -21.7749  -11.4485 C   0  0  2  0  0  0  0  0  0  0  0  0
  -14.8738  -22.1876  -10.4819 N   0  0  0  0  0  0  0  0  0  0  0  0
  -17.3906  -24.6707   -9.9475 C   0  0  2  0  0  0  0  0  0  0  0  0
  -21.1884  -18.7674  -14.0827 C   0  0  2  0  0  0  0  0  0  0  0  0
  -21.2714  -19.7897  -15.1362 N   0  0  0  0  0  0  0  0  0  0  0  0
  -15.9117  -20.1860  -11.4395 C   0  0  0  0  0  0  0  0  0  0  0  0
  -18.9002  -25.0775  -10.0083 C   0  0  2  0  0  0  0  0  0  0  0  0
  -19.1449  -25.6589  -11.2671 O   0  0  0  0  0  0  0  0  0  0  0  0
  -20.2830  -17.5564  -14.5413 C   0  0  0  0  0  0  0  0  0  0  0  0
  -16.9857  -19.7228  -12.5241 C   0  0  2  0  0  0  0  0  0  0  0  0
  -17.0649  -18.2460  -12.5359 N   0  0  0  0  0  0  0  0  0  0  0  0
  -19.7994  -23.7916   -9.7818 C   0  0  1  0  0  0  0  0  0  0  0  0
  -21.2585  -24.1632   -9.8404 N   0  0  0  0  0  0  0  0  0  0  0  0
  -19.7644  -16.6914  -13.3185 C   0  0  0  0  0  0  0  0  0  0  0  0
  -18.3974  -20.3322  -12.1431 C   0  0  2  0  0  0  0  0  0  0  0  0
  -19.4724  -23.1647   -8.3164 C   0  0  1  0  0  0  0  0  0  0  0  0
  -19.7507  -24.0559   -7.2555 O   0  0  0  0  0  0  0  0  0  0  0  0
  -19.8919  -17.1336  -12.0470 C   0  0  2  0  0  0  0  0  0  0  0  0
  -20.4963  -18.3911  -11.7272 O   0  0  0  0  0  0  0  0  0  0  0  0
  -18.3025  -21.9129  -12.1376 C   0  0  2  0  0  0  0  0  0  0  0  0
  -19.5835  -22.4588  -11.7815 O   0  0  0  0  0  0  0  0  0  0  0  0
  -17.9541  -22.7893   -8.2621 C   0  0  0  0  0  0  0  0  0  0  0  0
  -17.0967  -24.0028   -8.6167 O   0  0  0  0  0  0  0  0  0  0  0  0
  -19.4060  -16.3266  -10.8438 C   0  0  0  0  0  0  0  0  0  0  0  0
  -19.1596  -17.2422   -9.7654 O   0  0  0  0  0  0  0  0  0  0  0  0
  -17.2390  -22.3768  -11.0648 C   0  0  1  0  0  0  0  0  0  0  0  0
  -17.1740  -23.7921  -11.0994 O   0  0  0  0  0  0  0  0  0  0  0  0
  -20.2702  -21.8896   -7.9688 C   0  0  0  0  0  0  0  0  0  0  0  0
  -21.7484  -24.6999  -11.1264 C   0  0  0  0  0  0  0  0  0  0  0  0
  1  2  1  6  0  0  0
  1  6  1  0  0  0  0
  1 21  1  0  0  0  0
  3  4  1  1  0  0  0
  3  8  1  0  0  0  0
  3 28  1  0  0  0  0
  5  9  1  0  0  0  0
  5 25  1  0  0  0  0
  5 29  1  6  0  0  0
  6  7  1  6  0  0  0
  6 11  1  0  0  0  0
  8 12  1  0  0  0  0
  9 10  1  6  0  0  0
  9 14  1  0  0  0  0
 11 16  1  0  0  0  0
 12 13  1  1  0  0  0
 12 17  1  0  0  0  0
 14 15  1  1  0  0  0
 14 18  1  0  0  0  0
 15 31  1  0  0  0  0
 16 20  1  0  0  0  0
 17  2  1  6  0  0  0
 17 22  1  0  0  0  0
 18 19  1  1  0  0  0
 18 24  1  0  0  0  0
 18 30  1  0  0  0  0
 20 21  1  0  0  0  0
 20 26  1  1  0  0  0
 22 23  1  1  0  0  0
 22 28  1  0  0  0  0
 24 25  1  0  0  0  0
 26 27  1  0  0  0  0
 28 29  1  6  0  0  0
M  END
>  <CHROM.1>
167.52840541,94.55978308,-62.85784275,-134.35154081,-155.95860579,117.88890788
-18.90468870,-21.25494773,-11.14622731,1.70859145,-0.25491318,-0.45529810

>  <Name>
ligand

>  <RI>
0

>  <Rbt.Current_Directory>
/home/itssahil/PROJECTS/Mol_Feturizer/New_Systems/rnas/4GPW

>  <Rbt.Executable>
rbdock ($Id: //depot/dev/client3/rdock/2013.1/src/exe/rbdock.cxx#4 $)

>  <Rbt.Library>
libRbt.so (2013.1, Build901 2013/11/27)

>  <Rbt.Parameter_File>
/export/apps/rDock/src/rDock_2013.1_src/data/scripts/dock_solv.prm

>  <Rbt.Receptor>
prm/blind_docking_100.prm

>  <SCORE>
32.7815

>  <SCORE.INTER>
7.41819

>  <SCORE.INTER.CONST>
1

>  <SCORE.INTER.POLAR>
0

>  <SCORE.INTER.ROT>
6

>  <SCORE.INTER.SOLV>
23.1545

>  <SCORE.INTER.VDW>
-10.3727

>  <SCORE.INTER.norm>
0.239296

>  <SCORE.INTRA>
7.51723

>  <SCORE.INTRA.DIHEDRAL>
2.27778

>  <SCORE.INTRA.DIHEDRAL.0>
19.2558

>  <SCORE.INTRA.POLAR>
0

>  <SCORE.INTRA.POLAR.0>
0

>  <SCORE.INTRA.REPUL>
0

>  <SCORE.INTRA.REPUL.0>
0

>  <SCORE.INTRA.SOLV>
3.1682

>  <SCORE.INTRA.SOLV.lig_0>
-64.5929

>  <SCORE.INTRA.VDW>
4.79424

>  <SCORE.INTRA.VDW.0>
-4.40538

>  <SCORE.INTRA.norm>
0.242491

>  <SCORE.RESTR>
17.846

>  <SCORE.RESTR.CAVITY>
17.846

>  <SCORE.RESTR.norm>
0.575679

>  <SCORE.SYSTEM>
0

>  <SCORE.SYSTEM.CONST>
0

>  <SCORE.SYSTEM.DIHEDRAL>
0

>  <SCORE.SYSTEM.SOLV>
0

>  <SCORE.SYSTEM.norm>
0

>  <SCORE.heavy>
31

>  <SCORE.norm>
1.05747

>  <RMSD>
10.971

$$$$
ligand
 OpenBabel11021811493D
libRbt.so/2013.1/901 2013/11/27
 31 33  0  0  0  0  0  0  0  0999 V2000
  -20.4230  -19.1021  -12.4100 C   0  0  2  0  0  0  0  0  0  0  0  0
  -19.1356  -19.5535  -12.8041 O   0  0  0  0  0  0  0  0  0  0  0  0
  -16.0371  -22.2209  -11.5961 C   0  0  2  0  0  0  0  0  0  0  0  0
  -15.1630  -22.9616  -10.7448 N   0  0  0  0  0  0  0  0  0  0  0  0
  -18.0969  -25.0550  -10.6566 C   0  0  2  0  0  0  0  0  0  0  0  0
  -21.1675  -18.6221  -13.7244 C   0  0  2  0  0  0  0  0  0  0  0  0
  -21.2549  -19.7451  -14.6694 N   0  0  0  0  0  0  0  0  0  0  0  0
  -15.8513  -20.6728  -11.2821 C   0  0  0  0  0  0  0  0  0  0  0  0
  -19.5364  -24.6486  -10.1975 C   0  0  2  0  0  0  0  0  0  0  0  0
  -20.3436  -24.5318  -11.3453 O   0  0  0  0  0  0  0  0  0  0  0  0
  -20.3899  -17.4047  -14.3648 C   0  0  0  0  0  0  0  0  0  0  0  0
  -16.8226  -19.8433  -12.2375 C   0  0  2  0  0  0  0  0  0  0  0  0
  -16.6616  -18.3985  -11.9653 N   0  0  0  0  0  0  0  0  0  0  0  0
  -19.4658  -23.2803   -9.3999 C   0  0  1  0  0  0  0  0  0  0  0  0
  -20.8448  -22.8703   -8.9520 N   0  0  0  0  0  0  0  0  0  0  0  0
  -19.8451  -16.3929  -13.2731 C   0  0  0  0  0  0  0  0  0  0  0  0
  -18.3189  -20.2786  -11.9534 C   0  0  2  0  0  0  0  0  0  0  0  0
  -18.5212  -23.4760   -8.0896 C   0  0  1  0  0  0  0  0  0  0  0  0
  -19.0098  -24.4526   -7.1926 O   0  0  0  0  0  0  0  0  0  0  0  0
  -19.8439  -16.7168  -11.9601 C   0  0  2  0  0  0  0  0  0  0  0  0
  -20.3293  -17.9741  -11.4779 O   0  0  0  0  0  0  0  0  0  0  0  0
  -18.4813  -21.8253  -12.2519 C   0  0  2  0  0  0  0  0  0  0  0  0
  -19.8381  -22.2156  -11.9824 O   0  0  0  0  0  0  0  0  0  0  0  0
  -17.0941  -23.9092   -8.5639 C   0  0  0  0  0  0  0  0  0  0  0  0
  -17.1855  -25.1523   -9.4469 O   0  0  0  0  0  0  0  0  0  0  0  0
  -19.3290  -15.7666  -10.8799 C   0  0  0  0  0  0  0  0  0  0  0  0
  -20.3130  -14.7388  -10.6869 O   0  0  0  0  0  0  0  0  0  0  0  0
  -17.5203  -22.6516  -11.3081 C   0  0  1  0  0  0  0  0  0  0  0  0
  -17.6849  -24.0256  -11.6138 O   0  0  0  0  0  0  0  0  0  0  0  0
  -18.3493  -22.2090   -7.2247 C   0  0  0  0  0  0  0  0  0  0  0  0
  -21.7784  -22.4385  -10.0121 C   0  0  0  0  0  0  0  0  0  0  0  0
  1  2  1  6  0  0  0
  1  6  1  0  0  0  0
  1 21  1  0  0  0  0
  3  4  1  1  0  0  0
  3  8  1  0  0  0  0
  3 28  1  0  0  0  0
  5  9  1  0  0  0  0
  5 25  1  0  0  0  0
  5 29  1  6  0  0  0
  6  7  1  6  0  0  0
  6 11  1  0  0  0  0
  8 12  1  0  0  0  0
  9 10  1  6  0  0  0
  9 14  1  0  0  0  0
 11 16  1  0  0  0  0
 12 13  1  1  0  0  0
 12 17  1  0  0  0  0
 14 15  1  1  0  0  0
 14 18  1  0  0  0  0
 15 31  1  0  0  0  0
 16 20  1  0  0  0  0
 17  2  1  6  0  0  0
 17 22  1  0  0  0  0
 18 19  1  1  0  0  0
 18 24  1  0  0  0  0
 18 30  1  0  0  0  0
 20 21  1  0  0  0  0
 20 26  1  1  0  0  0
 22 23  1  1  0  0  0
 22 28  1  0  0  0  0
 24 25  1  0  0  0  0
 26 27  1  0  0  0  0
 28 29  1  6  0  0  0
M  END
>  <CHROM.1>
-167.16580083,62.71951041,-69.85047963,-144.55850000,74.98208893,119.96601633
-18.88368173,-21.07624749,-11.08473821,1.78759629,0.05852007,-0.42712316

>  <Name>
ligand

>  <RI>
0

>  <Rbt.Current_Directory>
/home/itssahil/PROJECTS/Mol_Feturizer/New_Systems/rnas/4GPW

>  <Rbt.Executable>
rbdock ($Id: //depot/dev/client3/rdock/2013.1/src/exe/rbdock.cxx#4 $)

>  <Rbt.Library>
libRbt.so (2013.1, Build901 2013/11/27)

>  <Rbt.Parameter_File>
/export/apps/rDock/src/rDock_2013.1_src/data/scripts/dock_solv.prm

>  <Rbt.Receptor>
prm/blind_docking_100.prm

>  <SCORE>
34.5686

>  <SCORE.INTER>
11.704

>  <SCORE.INTER.CONST>
1

>  <SCORE.INTER.POLAR>
0

>  <SCORE.INTER.ROT>
6

>  <SCORE.INTER.SOLV>
21.831

>  <SCORE.INTER.VDW>
-7.07436

>  <SCORE.INTER.norm>
0.377548

>  <SCORE.INTRA>
3.01555

>  <SCORE.INTRA.DIHEDRAL>
-3.23412

>  <SCORE.INTRA.DIHEDRAL.0>
19.2558

>  <SCORE.INTRA.POLAR>
0

>  <SCORE.INTRA.POLAR.0>
0

>  <SCORE.INTRA.REPUL>
0

>  <SCORE.INTRA.REPUL.0>
0

>  <SCORE.INTRA.SOLV>
2.39638

>  <SCORE.INTRA.SOLV.lig_0>
-64.5929

>  <SCORE.INTRA.VDW>
3.43441

>  <SCORE.INTRA.VDW.0>
-4.40538

>  <SCORE.INTRA.norm>
0.0972757

>  <SCORE.RESTR>
19.849

>  <SCORE.RESTR.CAVITY>
19.849

>  <SCORE.RESTR.norm>
0.640291

>  <SCORE.SYSTEM>
0

>  <SCORE.SYSTEM.CONST>
0

>  <SCORE.SYSTEM.DIHEDRAL>
0

>  <SCORE.SYSTEM.SOLV>
0

>  <SCORE.SYSTEM.norm>
0

>  <SCORE.heavy>
31

>  <SCORE.norm>
1.11511

>  <RMSD>
10.979

$$$$
ligand
 OpenBabel11021811493D
libRbt.so/2013.1/901 2013/11/27
 31 33  0  0  0  0  0  0  0  0999 V2000
  -14.9552  -21.6122  -12.7181 C   0  0  2  0  0  0  0  0  0  0  0  0
  -15.7024  -20.7858  -11.8375 O   0  0  0  0  0  0  0  0  0  0  0  0
  -19.6447  -19.4180  -10.9649 C   0  0  2  0  0  0  0  0  0  0  0  0
  -21.0679  -19.3174  -11.0064 N   0  0  0  0  0  0  0  0  0  0  0  0
  -20.7825  -21.9969   -8.7730 C   0  0  2  0  0  0  0  0  0  0  0  0
  -15.4085  -23.1066  -12.4465 C   0  0  2  0  0  0  0  0  0  0  0  0
  -16.8536  -23.2263  -12.6896 N   0  0  0  0  0  0  0  0  0  0  0  0
  -19.0814  -19.1787  -12.4330 C   0  0  0  0  0  0  0  0  0  0  0  0
  -20.0623  -23.3736   -8.5881 C   0  0  2  0  0  0  0  0  0  0  0  0
  -19.0349  -23.2045   -7.6402 O   0  0  0  0  0  0  0  0  0  0  0  0
  -15.0503  -23.5125  -10.9621 C   0  0  0  0  0  0  0  0  0  0  0  0
  -17.4904  -19.2841  -12.3872 C   0  0  2  0  0  0  0  0  0  0  0  0
  -16.9450  -19.0591  -13.7433 N   0  0  0  0  0  0  0  0  0  0  0  0
  -19.4860  -23.8556   -9.9841 C   0  0  1  0  0  0  0  0  0  0  0  0
  -18.7848  -25.1798   -9.8254 N   0  0  0  0  0  0  0  0  0  0  0  0
  -13.6407  -22.9503  -10.5043 C   0  0  0  0  0  0  0  0  0  0  0  0
  -17.0849  -20.7287  -11.8793 C   0  0  2  0  0  0  0  0  0  0  0  0
  -20.7152  -24.0314  -11.0355 C   0  0  1  0  0  0  0  0  0  0  0  0
  -21.6645  -24.9947  -10.6253 O   0  0  0  0  0  0  0  0  0  0  0  0
  -12.9870  -22.0228  -11.2399 C   0  0  2  0  0  0  0  0  0  0  0  0
  -13.5160  -21.4982  -12.4621 O   0  0  0  0  0  0  0  0  0  0  0  0
  -17.6700  -20.9575  -10.4256 C   0  0  2  0  0  0  0  0  0  0  0  0
  -17.3071  -22.2732   -9.9752 O   0  0  0  0  0  0  0  0  0  0  0  0
  -21.4420  -22.6538  -11.1878 C   0  0  0  0  0  0  0  0  0  0  0  0
  -21.8738  -22.1300   -9.8194 O   0  0  0  0  0  0  0  0  0  0  0  0
  -11.6264  -21.4598  -10.8313 C   0  0  0  0  0  0  0  0  0  0  0  0
  -10.9052  -21.1292  -12.0282 O   0  0  0  0  0  0  0  0  0  0  0  0
  -19.2462  -20.8534  -10.4657 C   0  0  1  0  0  0  0  0  0  0  0  0
  -19.7296  -21.0502   -9.1481 O   0  0  0  0  0  0  0  0  0  0  0  0
  -20.2932  -24.4833  -12.4500 C   0  0  0  0  0  0  0  0  0  0  0  0
  -17.5746  -25.3848  -10.6470 C   0  0  0  0  0  0  0  0  0  0  0  0
  1  2  1  1  0  0  0
  1  6  1  0  0  0  0
  1 21  1  0  0  0  0
  3  4  1  6  0  0  0
  3  8  1  0  0  0  0
  3 28  1  0  0  0  0
  5  9  1  0  0  0  0
  5 25  1  0  0  0  0
  5 29  1  6  0  0  0
  6  7  1  1  0  0  0
  6 11  1  0  0  0  0
  8 12  1  0  0  0  0
  9 10  1  1  0  0  0
  9 14  1  0  0  0  0
 11 16  1  0  0  0  0
 12 13  1  6  0  0  0
 12 17  1  0  0  0  0
 14 15  1  1  0  0  0
 14 18  1  0  0  0  0
 15 31  1  0  0  0  0
 16 20  1  0  0  0  0
 17  2  1  1  0  0  0
 17 22  1  0  0  0  0
 18 19  1  1  0  0  0
 18 24  1  0  0  0  0
 18 30  1  0  0  0  0
 20 21  1  0  0  0  0
 20 26  1  6  0  0  0
 22 23  1  6  0  0  0
 22 28  1  0  0  0  0
 24 25  1  0  0  0  0
 26 27  1  0  0  0  0
 28 29  1  1  0  0  0
M  END
>  <CHROM.1>
-60.71698749,84.29322927,-143.60331872,-112.24489607,149.07824238,112.63268810
-17.64877464,-22.10654979,-10.97594322,0.22689970,0.16094569,-0.34820638

>  <Name>
ligand

>  <RI>
0

>  <Rbt.Current_Directory>
/home/itssahil/PROJECTS/Mol_Feturizer/New_Systems/rnas/4GPW

>  <Rbt.Executable>
rbdock ($Id: //depot/dev/client3/rdock/2013.1/src/exe/rbdock.cxx#4 $)

>  <Rbt.Library>
libRbt.so (2013.1, Build901 2013/11/27)

>  <Rbt.Parameter_File>
/export/apps/rDock/src/rDock_2013.1_src/data/scripts/dock_solv.prm

>  <Rbt.Receptor>
prm/blind_docking_60.prm

>  <SCORE>
41.3635

>  <SCORE.INTER>
18.4532

>  <SCORE.INTER.CONST>
1

>  <SCORE.INTER.POLAR>
0

>  <SCORE.INTER.ROT>
6

>  <SCORE.INTER.SOLV>
25.3474

>  <SCORE.INTER.VDW>
-3.74701

>  <SCORE.INTER.norm>
0.595264

>  <SCORE.INTRA>
5.74951

>  <SCORE.INTRA.DIHEDRAL>
0.510465

>  <SCORE.INTRA.DIHEDRAL.0>
19.2558

>  <SCORE.INTRA.POLAR>
0

>  <SCORE.INTRA.POLAR.0>
0

>  <SCORE.INTRA.REPUL>
0

>  <SCORE.INTRA.REPUL.0>
0

>  <SCORE.INTRA.SOLV>
5.52329

>  <SCORE.INTRA.SOLV.lig_0>
-64.5929

>  <SCORE.INTRA.VDW>
2.73263

>  <SCORE.INTRA.VDW.0>
-4.40538

>  <SCORE.INTRA.norm>
0.185468

>  <SCORE.RESTR>
17.1608

>  <SCORE.RESTR.CAVITY>
17.1608

>  <SCORE.RESTR.norm>
0.553574

>  <SCORE.SYSTEM>
0

>  <SCORE.SYSTEM.CONST>
0

>  <SCORE.SYSTEM.DIHEDRAL>
0

>  <SCORE.SYSTEM.SOLV>
0

>  <SCORE.SYSTEM.norm>
0

>  <SCORE.heavy>
31

>  <SCORE.norm>
1.33431

>  <RMSD>
10.985

$$$$
ligand
 OpenBabel11021811493D
libRbt.so/2013.1/901 2013/11/27
 31 33  0  0  0  0  0  0  0  0999 V2000
  -17.3096  -18.4996  -12.4778 C   0  0  2  0  0  0  0  0  0  0  0  0
  -17.1440  -19.0581  -11.1827 O   0  0  0  0  0  0  0  0  0  0  0  0
  -16.4125  -23.1386  -12.1773 C   0  0  2  0  0  0  0  0  0  0  0  0
  -16.1144  -24.5249  -12.0139 N   0  0  0  0  0  0  0  0  0  0  0  0
  -19.2168  -24.8871  -11.5422 C   0  0  2  0  0  0  0  0  0  0  0  0
  -17.8874  -17.0369  -12.2805 C   0  0  2  0  0  0  0  0  0  0  0  0
  -16.9472  -16.2498  -11.4692 N   0  0  0  0  0  0  0  0  0  0  0  0
  -15.2085  -22.2916  -11.5747 C   0  0  0  0  0  0  0  0  0  0  0  0
  -20.7007  -24.7485  -11.0658 C   0  0  2  0  0  0  0  0  0  0  0  0
  -21.4486  -24.1968  -12.1237 O   0  0  0  0  0  0  0  0  0  0  0  0
  -19.3056  -17.1114  -11.5877 C   0  0  0  0  0  0  0  0  0  0  0  0
  -15.5370  -20.7421  -11.7627 C   0  0  2  0  0  0  0  0  0  0  0  0
  -14.4260  -19.9353  -11.2131 N   0  0  0  0  0  0  0  0  0  0  0  0
  -20.7540  -23.8252   -9.7783 C   0  0  1  0  0  0  0  0  0  0  0  0
  -22.1773  -23.6767   -9.3061 N   0  0  0  0  0  0  0  0  0  0  0  0
  -20.1847  -18.3110  -12.1359 C   0  0  0  0  0  0  0  0  0  0  0  0
  -16.8783  -20.4032  -10.9911 C   0  0  2  0  0  0  0  0  0  0  0  0
  -19.8736  -24.5111   -8.5944 C   0  0  1  0  0  0  0  0  0  0  0  0
  -20.3534  -25.7838   -8.2106 O   0  0  0  0  0  0  0  0  0  0  0  0
  -19.6410  -19.2787  -12.9082 C   0  0  2  0  0  0  0  0  0  0  0  0
  -18.2580  -19.2815  -13.2773 O   0  0  0  0  0  0  0  0  0  0  0  0
  -18.0615  -21.2687  -11.5900 C   0  0  2  0  0  0  0  0  0  0  0  0
  -19.2728  -20.9638  -10.8790 O   0  0  0  0  0  0  0  0  0  0  0  0
  -18.3997  -24.6684   -9.0963 C   0  0  0  0  0  0  0  0  0  0  0  0
  -18.3695  -25.4433  -10.4124 O   0  0  0  0  0  0  0  0  0  0  0  0
  -20.4574  -20.4483  -13.4562 C   0  0  0  0  0  0  0  0  0  0  0  0
  -21.0495  -20.0337  -14.6970 O   0  0  0  0  0  0  0  0  0  0  0  0
  -17.7404  -22.8051  -11.4067 C   0  0  1  0  0  0  0  0  0  0  0  0
  -18.8131  -23.5441  -11.9651 O   0  0  0  0  0  0  0  0  0  0  0  0
  -19.8238  -23.7045   -7.2790 C   0  0  0  0  0  0  0  0  0  0  0  0
  -22.4848  -22.4661   -8.5177 C   0  0  0  0  0  0  0  0  0  0  0  0
  1  2  1  1  0  0  0
  1  6  1  0  0  0  0
  1 21  1  0  0  0  0
  3  4  1  1  0  0  0
  3  8  1  0  0  0  0
  3 28  1  0  0  0  0
  5  9  1  0  0  0  0
  5 25  1  0  0  0  0
  5 29  1  1  0  0  0
  6  7  1  1  0  0  0
  6 11  1  0  0  0  0
  8 12  1  0  0  0  0
  9 10  1  6  0  0  0
  9 14  1  0  0  0  0
 11 16  1  0  0  0  0
 12 13  1  1  0  0  0
 12 17  1  0  0  0  0
 14 15  1  1  0  0  0
 14 18  1  0  0  0  0
 15 31  1  0  0  0  0
 16 20  1  0  0  0  0
 17  2  1  6  0  0  0
 17 22  1  0  0  0  0
 18 19  1  1  0  0  0
 18 24  1  0  0  0  0
 18 30  1  0  0  0  0
 20 21  1  0  0  0  0
 20 26  1  6  0  0  0
 22 23  1  1  0  0  0
 22 28  1  0  0  0  0
 24 25  1  0  0  0  0
 26 27  1  0  0  0  0
 28 29  1  6  0  0  0
M  END
>  <CHROM.1>
168.52622942,120.27874843,-155.44367447,58.48839222,86.77793483,89.06768643
-18.75938595,-21.72383620,-11.19275530,-1.23680497,-0.08178443,2.76537336

>  <Name>
ligand

>  <RI>
0

>  <Rbt.Current_Directory>
/home/itssahil/PROJECTS/Mol_Feturizer/New_Systems/rnas/4GPW

>  <Rbt.Executable>
rbdock ($Id: //depot/dev/client3/rdock/2013.1/src/exe/rbdock.cxx#4 $)

>  <Rbt.Library>
libRbt.so (2013.1, Build901 2013/11/27)

>  <Rbt.Parameter_File>
/export/apps/rDock/src/rDock_2013.1_src/data/scripts/dock_solv.prm

>  <Rbt.Receptor>
prm/blind_docking_60.prm

>  <SCORE>
25.2241

>  <SCORE.INTER>
5.51421

>  <SCORE.INTER.CONST>
1

>  <SCORE.INTER.POLAR>
0

>  <SCORE.INTER.ROT>
6

>  <SCORE.INTER.SOLV>
25.235

>  <SCORE.INTER.VDW>
-12.3355

>  <SCORE.INTER.norm>
0.177878

>  <SCORE.INTRA>
1.55987

>  <SCORE.INTRA.DIHEDRAL>
-4.74812

>  <SCORE.INTRA.DIHEDRAL.0>
19.2558

>  <SCORE.INTRA.POLAR>
0

>  <SCORE.INTRA.POLAR.0>
0

>  <SCORE.INTRA.REPUL>
0

>  <SCORE.INTRA.REPUL.0>
0

>  <SCORE.INTRA.SOLV>
-0.567295

>  <SCORE.INTRA.SOLV.lig_0>
-64.5929

>  <SCORE.INTRA.VDW>
4.21758

>  <SCORE.INTRA.VDW.0>
-4.40538

>  <SCORE.INTRA.norm>
0.0503184

>  <SCORE.RESTR>
18.15

>  <SCORE.RESTR.CAVITY>
18.15

>  <SCORE.RESTR.norm>
0.585485

>  <SCORE.SYSTEM>
0

>  <SCORE.SYSTEM.CONST>
0

>  <SCORE.SYSTEM.DIHEDRAL>
0

>  <SCORE.SYSTEM.SOLV>
0

>  <SCORE.SYSTEM.norm>
0

>  <SCORE.heavy>
31

>  <SCORE.norm>
0.813681

>  <RMSD>
10.987

$$$$
ligand
 OpenBabel11021811493D
libRbt.so/2013.1/901 2013/11/27
 31 33  0  0  0  0  0  0  0  0999 V2000
  -20.5182  -19.5769  -12.7761 C   0  0  2  0  0  0  0  0  0  0  0  0
  -19.2200  -20.0530  -13.0995 O   0  0  0  0  0  0  0  0  0  0  0  0
  -15.7834  -21.8915  -11.3719 C   0  0  2  0  0  0  0  0  0  0  0  0
  -14.8120  -22.2647  -10.3950 N   0  0  0  0  0  0  0  0  0  0  0  0
  -17.6004  -24.6231   -9.6950 C   0  0  2  0  0  0  0  0  0  0  0  0
  -21.0232  -18.7303  -14.0173 C   0  0  2  0  0  0  0  0  0  0  0  0
  -21.0445  -19.5873  -15.2119 N   0  0  0  0  0  0  0  0  0  0  0  0
  -15.8049  -20.3046  -11.4781 C   0  0  0  0  0  0  0  0  0  0  0  0
  -18.7418  -25.5551  -10.2212 C   0  0  2  0  0  0  0  0  0  0  0  0
  -18.2348  -26.2956  -11.3062 O   0  0  0  0  0  0  0  0  0  0  0  0
  -20.0775  -17.4832  -14.2341 C   0  0  0  0  0  0  0  0  0  0  0  0
  -16.8853  -19.8861  -12.5744 C   0  0  2  0  0  0  0  0  0  0  0  0
  -16.9177  -18.4122  -12.6931 N   0  0  0  0  0  0  0  0  0  0  0  0
  -19.9829  -24.6699  -10.6562 C   0  0  1  0  0  0  0  0  0  0  0  0
  -21.0924  -25.5507  -11.1697 N   0  0  0  0  0  0  0  0  0  0  0  0
  -19.6346  -16.8147  -12.8669 C   0  0  0  0  0  0  0  0  0  0  0  0
  -18.3076  -20.4190  -12.1248 C   0  0  2  0  0  0  0  0  0  0  0  0
  -20.5225  -23.8388   -9.3657 C   0  0  1  0  0  0  0  0  0  0  0  0
  -20.9583  -24.6716   -8.3104 O   0  0  0  0  0  0  0  0  0  0  0  0
  -19.8519  -17.4340  -11.6846 C   0  0  2  0  0  0  0  0  0  0  0  0
  -20.4884  -18.7127  -11.5919 O   0  0  0  0  0  0  0  0  0  0  0  0
  -18.2631  -21.9974  -12.0051 C   0  0  2  0  0  0  0  0  0  0  0  0
  -19.5533  -22.4732  -11.5872 O   0  0  0  0  0  0  0  0  0  0  0  0
  -19.3618  -22.9334   -8.8347 C   0  0  0  0  0  0  0  0  0  0  0  0
  -18.1220  -23.7781   -8.5472 O   0  0  0  0  0  0  0  0  0  0  0  0
  -19.4409  -16.8193  -10.3473 C   0  0  0  0  0  0  0  0  0  0  0  0
  -19.0188  -17.8837   -9.4806 O   0  0  0  0  0  0  0  0  0  0  0  0
  -17.1934  -22.4172  -10.9203 C   0  0  1  0  0  0  0  0  0  0  0  0
  -17.1742  -23.8326  -10.8522 O   0  0  0  0  0  0  0  0  0  0  0  0
  -21.7266  -22.9159   -9.6515 C   0  0  0  0  0  0  0  0  0  0  0  0
  -21.2500  -25.6205  -12.6367 C   0  0  0  0  0  0  0  0  0  0  0  0
  1  2  1  6  0  0  0
  1  6  1  0  0  0  0
  1 21  1  0  0  0  0
  3  4  1  1  0  0  0
  3  8  1  0  0  0  0
  3 28  1  0  0  0  0
  5  9  1  0  0  0  0
  5 25  1  0  0  0  0
  5 29  1  6  0  0  0
  6  7  1  6  0  0  0
  6 11  1  0  0  0  0
  8 12  1  0  0  0  0
  9 10  1  6  0  0  0
  9 14  1  0  0  0  0
 11 16  1  0  0  0  0
 12 13  1  1  0  0  0
 12 17  1  0  0  0  0
 14 15  1  1  0  0  0
 14 18  1  0  0  0  0
 15 31  1  0  0  0  0
 16 20  1  0  0  0  0
 17  2  1  6  0  0  0
 17 22  1  0  0  0  0
 18 19  1  1  0  0  0
 18 24  1  0  0  0  0
 18 30  1  0  0  0  0
 20 21  1  0  0  0  0
 20 26  1  1  0  0  0
 22 23  1  1  0  0  0
 22 28  1  0  0  0  0
 24 25  1  0  0  0  0
 26 27  1  0  0  0  0
 28 29  1  6  0  0  0
M  END
>  <CHROM.1>
157.26046078,121.73045082,-102.13574558,-139.25463824,-144.60851886,128.10217613
-19.00653587,-21.55616404,-11.31902839,1.59838099,-0.24703455,-0.33930056

>  <Name>
ligand

>  <RI>
0

>  <Rbt.Current_Directory>
/home/itssahil/PROJECTS/Mol_Feturizer/New_Systems/rnas/4GPW

>  <Rbt.Executable>
rbdock ($Id: //depot/dev/client3/rdock/2013.1/src/exe/rbdock.cxx#4 $)

>  <Rbt.Library>
libRbt.so (2013.1, Build901 2013/11/27)

>  <Rbt.Parameter_File>
/export/apps/rDock/src/rDock_2013.1_src/data/scripts/dock_solv.prm

>  <Rbt.Receptor>
prm/blind_docking_60.prm

>  <SCORE>
32.9431

>  <SCORE.INTER>
7.07256

>  <SCORE.INTER.CONST>
1

>  <SCORE.INTER.POLAR>
0

>  <SCORE.INTER.ROT>
6

>  <SCORE.INTER.SOLV>
24.0603

>  <SCORE.INTER.VDW>
-10.905

>  <SCORE.INTER.norm>
0.228147

>  <SCORE.INTRA>
7.38067

>  <SCORE.INTRA.DIHEDRAL>
5.91484

>  <SCORE.INTRA.DIHEDRAL.0>
19.2558

>  <SCORE.INTRA.POLAR>
0

>  <SCORE.INTRA.POLAR.0>
0

>  <SCORE.INTRA.REPUL>
0

>  <SCORE.INTRA.REPUL.0>
0

>  <SCORE.INTRA.SOLV>
1.56845

>  <SCORE.INTRA.SOLV.lig_0>
-64.5929

>  <SCORE.INTRA.VDW>
3.63902

>  <SCORE.INTRA.VDW.0>
-4.40538

>  <SCORE.INTRA.norm>
0.238086

>  <SCORE.RESTR>
18.4899

>  <SCORE.RESTR.CAVITY>
18.4899

>  <SCORE.RESTR.norm>
0.596447

>  <SCORE.SYSTEM>
0

>  <SCORE.SYSTEM.CONST>
0

>  <SCORE.SYSTEM.DIHEDRAL>
0

>  <SCORE.SYSTEM.SOLV>
0

>  <SCORE.SYSTEM.norm>
0

>  <SCORE.heavy>
31

>  <SCORE.norm>
1.06268

>  <RMSD>
11.042

$$$$
ligand
 OpenBabel11021811493D
libRbt.so/2013.1/901 2013/11/27
 31 33  0  0  0  0  0  0  0  0999 V2000
  -17.8235  -18.5885  -11.3094 C   0  0  2  0  0  0  0  0  0  0  0  0
  -17.5372  -19.7519  -12.0717 O   0  0  0  0  0  0  0  0  0  0  0  0
  -16.2659  -23.8099  -11.7700 C   0  0  2  0  0  0  0  0  0  0  0  0
  -15.8905  -25.0564  -11.1847 N   0  0  0  0  0  0  0  0  0  0  0  0
  -19.3769  -25.4303  -11.0790 C   0  0  2  0  0  0  0  0  0  0  0  0
  -19.0544  -18.9393  -10.3744 C   0  0  2  0  0  0  0  0  0  0  0  0
  -18.6994  -20.0760   -9.5121 N   0  0  0  0  0  0  0  0  0  0  0  0
  -15.2919  -22.6812  -11.2157 C   0  0  0  0  0  0  0  0  0  0  0  0
  -20.7684  -24.7566  -10.8385 C   0  0  2  0  0  0  0  0  0  0  0  0
  -21.3257  -24.4465  -12.0939 O   0  0  0  0  0  0  0  0  0  0  0  0
  -20.3193  -19.2757  -11.2596 C   0  0  0  0  0  0  0  0  0  0  0  0
  -15.7058  -21.2886  -11.8741 C   0  0  2  0  0  0  0  0  0  0  0  0
  -14.8077  -20.2245  -11.3755 N   0  0  0  0  0  0  0  0  0  0  0  0
  -20.5749  -23.4544   -9.9553 C   0  0  1  0  0  0  0  0  0  0  0  0
  -21.9054  -22.7889   -9.7156 N   0  0  0  0  0  0  0  0  0  0  0  0
  -20.4473  -18.3223  -12.5194 C   0  0  0  0  0  0  0  0  0  0  0  0
  -17.2028  -20.9563  -11.4768 C   0  0  2  0  0  0  0  0  0  0  0  0
  -19.9285  -23.8740   -8.5224 C   0  0  1  0  0  0  0  0  0  0  0  0
  -20.7448  -24.7584   -7.7816 O   0  0  0  0  0  0  0  0  0  0  0  0
  -19.4290  -17.5124  -12.8880 C   0  0  2  0  0  0  0  0  0  0  0  0
  -18.1893  -17.4623  -12.1742 O   0  0  0  0  0  0  0  0  0  0  0  0
  -18.1557  -22.0990  -12.0189 C   0  0  2  0  0  0  0  0  0  0  0  0
  -19.5105  -21.7965  -11.6463 O   0  0  0  0  0  0  0  0  0  0  0  0
  -18.5515  -24.5711   -8.7816 C   0  0  0  0  0  0  0  0  0  0  0  0
  -18.7260  -25.7441   -9.7443 O   0  0  0  0  0  0  0  0  0  0  0  0
  -19.5172  -16.5789  -14.0945 C   0  0  0  0  0  0  0  0  0  0  0  0
  -18.5319  -16.9968  -15.0521 O   0  0  0  0  0  0  0  0  0  0  0  0
  -17.7492  -23.4812  -11.3698 C   0  0  1  0  0  0  0  0  0  0  0  0
  -18.6139  -24.4772  -11.8883 O   0  0  0  0  0  0  0  0  0  0  0  0
  -19.6684  -22.6932   -7.5626 C   0  0  0  0  0  0  0  0  0  0  0  0
  -21.8655  -21.3735   -9.2951 C   0  0  0  0  0  0  0  0  0  0  0  0
  1  2  1  6  0  0  0
  1  6  1  0  0  0  0
  1 21  1  0  0  0  0
  3  4  1  1  0  0  0
  3  8  1  0  0  0  0
  3 28  1  0  0  0  0
  5  9  1  0  0  0  0
  5 25  1  0  0  0  0
  5 29  1  6  0  0  0
  6  7  1  6  0  0  0
  6 11  1  0  0  0  0
  8 12  1  0  0  0  0
  9 10  1  6  0  0  0
  9 14  1  0  0  0  0
 11 16  1  0  0  0  0
 12 13  1  1  0  0  0
 12 17  1  0  0  0  0
 14 15  1  1  0  0  0
 14 18  1  0  0  0  0
 15 31  1  0  0  0  0
 16 20  1  0  0  0  0
 17  2  1  6  0  0  0
 17 22  1  0  0  0  0
 18 19  1  1  0  0  0
 18 24  1  0  0  0  0
 18 30  1  0  0  0  0
 20 21  1  0  0  0  0
 20 26  1  1  0  0  0
 22 23  1  1  0  0  0
 22 28  1  0  0  0  0
 24 25  1  0  0  0  0
 26 27  1  0  0  0  0
 28 29  1  6  0  0  0
M  END
>  <CHROM.1>
-59.33580672,92.19197382,-161.19328153,-114.59901149,-116.50370341,113.18862063
-18.80742154,-21.71409648,-11.05672769,-1.44021772,-0.32637605,2.75798947

>  <Name>
ligand

>  <RI>
0

>  <Rbt.Current_Directory>
/home/itssahil/PROJECTS/Mol_Feturizer/New_Systems/rnas/4GPW

>  <Rbt.Executable>
rbdock ($Id: //depot/dev/client3/rdock/2013.1/src/exe/rbdock.cxx#4 $)

>  <Rbt.Library>
libRbt.so (2013.1, Build901 2013/11/27)

>  <Rbt.Parameter_File>
/export/apps/rDock/src/rDock_2013.1_src/data/scripts/dock_solv.prm

>  <Rbt.Receptor>
prm/blind_docking_60.prm

>  <SCORE>
56.6712

>  <SCORE.INTER>
31.4622

>  <SCORE.INTER.CONST>
1

>  <SCORE.INTER.POLAR>
0

>  <SCORE.INTER.ROT>
6

>  <SCORE.INTER.SOLV>
24.0858

>  <SCORE.INTER.VDW>
5.34618

>  <SCORE.INTER.norm>
1.01491

>  <SCORE.INTRA>
7.29825

>  <SCORE.INTRA.DIHEDRAL>
0.744036

>  <SCORE.INTRA.DIHEDRAL.0>
19.2558

>  <SCORE.INTRA.POLAR>
0

>  <SCORE.INTRA.POLAR.0>
0

>  <SCORE.INTRA.REPUL>
0

>  <SCORE.INTRA.REPUL.0>
0

>  <SCORE.INTRA.SOLV>
5.1722

>  <SCORE.INTRA.SOLV.lig_0>
-64.5929

>  <SCORE.INTRA.VDW>
4.34014

>  <SCORE.INTRA.VDW.0>
-4.40538

>  <SCORE.INTRA.norm>
0.235428

>  <SCORE.RESTR>
17.9107

>  <SCORE.RESTR.CAVITY>
17.9107

>  <SCORE.RESTR.norm>
0.577765

>  <SCORE.SYSTEM>
0

>  <SCORE.SYSTEM.CONST>
0

>  <SCORE.SYSTEM.DIHEDRAL>
0

>  <SCORE.SYSTEM.SOLV>
0

>  <SCORE.SYSTEM.norm>
0

>  <SCORE.heavy>
31

>  <SCORE.norm>
1.8281

>  <RMSD>
11.043

$$$$
ligand
 OpenBabel11021811493D
libRbt.so/2013.1/901 2013/11/27
 31 33  0  0  0  0  0  0  0  0999 V2000
  -14.8136  -22.1957  -10.2352 C   0  0  2  0  0  0  0  0  0  0  0  0
  -15.6359  -21.0380  -10.2352 O   0  0  0  0  0  0  0  0  0  0  0  0
  -19.7378  -19.9242  -10.5650 C   0  0  2  0  0  0  0  0  0  0  0  0
  -21.0911  -19.9139  -11.0186 N   0  0  0  0  0  0  0  0  0  0  0  0
  -21.5034  -22.3129   -8.8490 C   0  0  2  0  0  0  0  0  0  0  0  0
  -14.0493  -22.2204  -11.6236 C   0  0  2  0  0  0  0  0  0  0  0  0
  -13.2526  -20.9922  -11.7600 N   0  0  0  0  0  0  0  0  0  0  0  0
  -18.7885  -19.6472  -11.8108 C   0  0  0  0  0  0  0  0  0  0  0  0
  -21.1095  -23.7996   -8.5612 C   0  0  2  0  0  0  0  0  0  0  0  0
  -20.4073  -23.8363   -7.3412 O   0  0  0  0  0  0  0  0  0  0  0  0
  -15.0905  -22.3518  -12.8048 C   0  0  0  0  0  0  0  0  0  0  0  0
  -17.2759  -19.6517  -11.3043 C   0  0  2  0  0  0  0  0  0  0  0  0
  -16.3753  -19.3901  -12.4479 N   0  0  0  0  0  0  0  0  0  0  0  0
  -20.2217  -24.3474   -9.7549 C   0  0  1  0  0  0  0  0  0  0  0  0
  -19.8291  -25.7786   -9.4937 N   0  0  0  0  0  0  0  0  0  0  0  0
  -16.2720  -23.3513  -12.4617 C   0  0  0  0  0  0  0  0  0  0  0  0
  -16.9477  -21.0685  -10.6766 C   0  0  2  0  0  0  0  0  0  0  0  0
  -21.0828  -24.2791  -11.1337 C   0  0  1  0  0  0  0  0  0  0  0  0
  -22.2562  -25.0659  -11.0962 O   0  0  0  0  0  0  0  0  0  0  0  0
  -16.4594  -23.8038  -11.2012 C   0  0  2  0  0  0  0  0  0  0  0  0
  -15.6147  -23.4176  -10.1120 O   0  0  0  0  0  0  0  0  0  0  0  0
  -17.9142  -21.3364   -9.4511 C   0  0  2  0  0  0  0  0  0  0  0  0
  -17.6179  -22.6273   -8.8929 O   0  0  0  0  0  0  0  0  0  0  0  0
  -21.4926  -22.7911  -11.3925 C   0  0  0  0  0  0  0  0  0  0  0  0
  -22.2296  -22.2274  -10.1791 O   0  0  0  0  0  0  0  0  0  0  0  0
  -17.5854  -24.7691  -10.8337 C   0  0  0  0  0  0  0  0  0  0  0  0
  -17.0140  -26.0764  -10.6708 O   0  0  0  0  0  0  0  0  0  0  0  0
  -19.4143  -21.3323   -9.9478 C   0  0  1  0  0  0  0  0  0  0  0  0
  -20.2462  -21.5617   -8.8236 O   0  0  0  0  0  0  0  0  0  0  0  0
  -20.3292  -24.7695  -12.3886 C   0  0  0  0  0  0  0  0  0  0  0  0
  -20.9349  -26.7471   -9.3491 C   0  0  0  0  0  0  0  0  0  0  0  0
  1  2  1  6  0  0  0
  1  6  1  0  0  0  0
  1 21  1  0  0  0  0
  3  4  1  6  0  0  0
  3  8  1  0  0  0  0
  3 28  1  0  0  0  0
  5  9  1  0  0  0  0
  5 25  1  0  0  0  0
  5 29  1  6  0  0  0
  6  7  1  6  0  0  0
  6 11  1  0  0  0  0
  8 12  1  0  0  0  0
  9 10  1  1  0  0  0
  9 14  1  0  0  0  0
 11 16  1  0  0  0  0
 12 13  1  6  0  0  0
 12 17  1  0  0  0  0
 14 15  1  1  0  0  0
 14 18  1  0  0  0  0
 15 31  1  0  0  0  0
 16 20  1  0  0  0  0
 17  2  1  1  0  0  0
 17 22  1  0  0  0  0
 18 19  1  1  0  0  0
 18 24  1  0  0  0  0
 18 30  1  0  0  0  0
 20 21  1  0  0  0  0
 20 26  1  6  0  0  0
 22 23  1  6  0  0  0
 22 28  1  0  0  0  0
 24 25  1  0  0  0  0
 26 27  1  0  0  0  0
 28 29  1  1  0  0  0
M  END
>  <CHROM.1>
91.57795178,89.88095210,60.11466575,-148.46218082,103.63398806,96.22368046
-18.49198760,-22.70943041,-10.50568178,-0.41843450,-0.21743613,3.03698284

>  <Name>
ligand

>  <RI>
0

>  <Rbt.Current_Directory>
/home/itssahil/PROJECTS/Mol_Feturizer/New_Systems/rnas/4GPW

>  <Rbt.Executable>
rbdock ($Id: //depot/dev/client3/rdock/2013.1/src/exe/rbdock.cxx#4 $)

>  <Rbt.Library>
libRbt.so (2013.1, Build901 2013/11/27)

>  <Rbt.Parameter_File>
/export/apps/rDock/src/rDock_2013.1_src/data/scripts/dock_solv.prm

>  <Rbt.Receptor>
prm/blind_docking_60.prm

>  <SCORE>
51.0823

>  <SCORE.INTER>
24.9186

>  <SCORE.INTER.CONST>
1

>  <SCORE.INTER.POLAR>
0

>  <SCORE.INTER.ROT>
6

>  <SCORE.INTER.SOLV>
26.8926

>  <SCORE.INTER.VDW>
0.0481851

>  <SCORE.INTER.norm>
0.803824

>  <SCORE.INTRA>
8.29511

>  <SCORE.INTRA.DIHEDRAL>
-1.13048

>  <SCORE.INTRA.DIHEDRAL.0>
19.2558

>  <SCORE.INTRA.POLAR>
0

>  <SCORE.INTRA.POLAR.0>
0

>  <SCORE.INTRA.REPUL>
0

>  <SCORE.INTRA.REPUL.0>
0

>  <SCORE.INTRA.SOLV>
5.06748

>  <SCORE.INTRA.SOLV.lig_0>
-64.5929

>  <SCORE.INTRA.VDW>
6.32661

>  <SCORE.INTRA.VDW.0>
-4.40538

>  <SCORE.INTRA.norm>
0.267584

>  <SCORE.RESTR>
17.8686

>  <SCORE.RESTR.CAVITY>
17.8686

>  <SCORE.RESTR.norm>
0.576406

>  <SCORE.SYSTEM>
0

>  <SCORE.SYSTEM.CONST>
0

>  <SCORE.SYSTEM.DIHEDRAL>
0

>  <SCORE.SYSTEM.SOLV>
0

>  <SCORE.SYSTEM.norm>
0

>  <SCORE.heavy>
31

>  <SCORE.norm>
1.64781

>  <RMSD>
11.091

$$$$
ligand
 OpenBabel11021811493D
libRbt.so/2013.1/901 2013/11/27
 31 33  0  0  0  0  0  0  0  0999 V2000
  -14.6778  -21.8358  -11.4449 C   0  0  2  0  0  0  0  0  0  0  0  0
  -15.8316  -21.9675  -12.2623 O   0  0  0  0  0  0  0  0  0  0  0  0
  -18.6143  -19.5782  -10.0892 C   0  0  2  0  0  0  0  0  0  0  0  0
  -19.8146  -18.8740   -9.7719 N   0  0  0  0  0  0  0  0  0  0  0  0
  -20.7761  -22.1893   -8.8451 C   0  0  2  0  0  0  0  0  0  0  0  0
  -13.7318  -23.0630  -11.7787 C   0  0  2  0  0  0  0  0  0  0  0  0
  -13.3872  -23.0346  -13.2077 N   0  0  0  0  0  0  0  0  0  0  0  0
  -18.0334  -18.9932  -11.4494 C   0  0  0  0  0  0  0  0  0  0  0  0
  -20.5547  -23.7186   -8.5999 C   0  0  2  0  0  0  0  0  0  0  0  0
  -19.6742  -23.8626   -7.5105 O   0  0  0  0  0  0  0  0  0  0  0  0
  -14.4563  -24.4150  -11.3995 C   0  0  0  0  0  0  0  0  0  0  0  0
  -16.6882  -19.7747  -11.8019 C   0  0  2  0  0  0  0  0  0  0  0  0
  -16.1277  -19.2417  -13.0625 N   0  0  0  0  0  0  0  0  0  0  0  0
  -19.9613  -24.3798   -9.9129 C   0  0  1  0  0  0  0  0  0  0  0  0
  -19.7376  -25.8538   -9.6947 N   0  0  0  0  0  0  0  0  0  0  0  0
  -15.2689  -24.3064  -10.0429 C   0  0  0  0  0  0  0  0  0  0  0  0
  -17.0171  -21.3150  -11.9705 C   0  0  2  0  0  0  0  0  0  0  0  0
  -21.0184  -24.1809  -11.1336 C   0  0  1  0  0  0  0  0  0  0  0  0
  -22.2691  -24.7928  -10.8915 O   0  0  0  0  0  0  0  0  0  0  0  0
  -15.4978  -23.1076   -9.4606 C   0  0  2  0  0  0  0  0  0  0  0  0
  -15.0265  -21.8779  -10.0214 O   0  0  0  0  0  0  0  0  0  0  0  0
  -17.6123  -21.8762  -10.6145 C   0  0  2  0  0  0  0  0  0  0  0  0
  -17.9177  -23.2711  -10.7776 O   0  0  0  0  0  0  0  0  0  0  0  0
  -21.2504  -22.6481  -11.3476 C   0  0  0  0  0  0  0  0  0  0  0  0
  -21.6911  -21.9928  -10.0400 O   0  0  0  0  0  0  0  0  0  0  0  0
  -16.2748  -22.9645   -8.1526 C   0  0  0  0  0  0  0  0  0  0  0  0
  -16.9295  -21.6865   -8.1627 O   0  0  0  0  0  0  0  0  0  0  0  0
  -18.9451  -21.1045  -10.2606 C   0  0  1  0  0  0  0  0  0  0  0  0
  -19.4383  -21.6248   -9.0381 O   0  0  0  0  0  0  0  0  0  0  0  0
  -20.5579  -24.7656  -12.4861 C   0  0  0  0  0  0  0  0  0  0  0  0
  -18.5874  -26.4550  -10.4000 C   0  0  0  0  0  0  0  0  0  0  0  0
  1  2  1  6  0  0  0
  1  6  1  0  0  0  0
  1 21  1  0  0  0  0
  3  4  1  6  0  0  0
  3  8  1  0  0  0  0
  3 28  1  0  0  0  0
  5  9  1  0  0  0  0
  5 25  1  0  0  0  0
  5 29  1  6  0  0  0
  6  7  1  6  0  0  0
  6 11  1  0  0  0  0
  8 12  1  0  0  0  0
  9 10  1  1  0  0  0
  9 14  1  0  0  0  0
 11 16  1  0  0  0  0
 12 13  1  6  0  0  0
 12 17  1  0  0  0  0
 14 15  1  1  0  0  0
 14 18  1  0  0  0  0
 15 31  1  0  0  0  0
 16 20  1  0  0  0  0
 17  2  1  1  0  0  0
 17 22  1  0  0  0  0
 18 19  1  1  0  0  0
 18 24  1  0  0  0  0
 18 30  1  0  0  0  0
 20 21  1  0  0  0  0
 20 26  1  1  0  0  0
 22 23  1  6  0  0  0
 22 28  1  0  0  0  0
 24 25  1  0  0  0  0
 26 27  1  0  0  0  0
 28 29  1  1  0  0  0
M  END
>  <CHROM.1>
160.79816396,111.64242300,-146.80289280,53.45415560,-150.35964954,117.78211266
-18.00380906,-22.56422220,-10.48332443,-0.29916988,-0.23070775,3.03683167

>  <Name>
ligand

>  <RI>
0

>  <Rbt.Current_Directory>
/home/itssahil/PROJECTS/Mol_Feturizer/New_Systems/rnas/4GPW

>  <Rbt.Executable>
rbdock ($Id: //depot/dev/client3/rdock/2013.1/src/exe/rbdock.cxx#4 $)

>  <Rbt.Library>
libRbt.so (2013.1, Build901 2013/11/27)

>  <Rbt.Parameter_File>
/export/apps/rDock/src/rDock_2013.1_src/data/scripts/dock_solv.prm

>  <Rbt.Receptor>
prm/blind_docking_60.prm

>  <SCORE>
57.0882

>  <SCORE.INTER>
29.8457

>  <SCORE.INTER.CONST>
1

>  <SCORE.INTER.POLAR>
0

>  <SCORE.INTER.ROT>
6

>  <SCORE.INTER.SOLV>
28.5982

>  <SCORE.INTER.VDW>
2.76442

>  <SCORE.INTER.norm>
0.962766

>  <SCORE.INTRA>
7.67344

>  <SCORE.INTRA.DIHEDRAL>
0.0173845

>  <SCORE.INTRA.DIHEDRAL.0>
19.2558

>  <SCORE.INTRA.POLAR>
0

>  <SCORE.INTRA.POLAR.0>
0

>  <SCORE.INTRA.REPUL>
0

>  <SCORE.INTRA.REPUL.0>
0

>  <SCORE.INTRA.SOLV>
1.15942

>  <SCORE.INTRA.SOLV.lig_0>
-64.5929

>  <SCORE.INTRA.VDW>
7.08504

>  <SCORE.INTRA.VDW.0>
-4.40538

>  <SCORE.INTRA.norm>
0.24753

>  <SCORE.RESTR>
19.569

>  <SCORE.RESTR.CAVITY>
19.569

>  <SCORE.RESTR.norm>
0.631258

>  <SCORE.SYSTEM>
0

>  <SCORE.SYSTEM.CONST>
0

>  <SCORE.SYSTEM.DIHEDRAL>
0

>  <SCORE.SYSTEM.SOLV>
0

>  <SCORE.SYSTEM.norm>
0

>  <SCORE.heavy>
31

>  <SCORE.norm>
1.84155

>  <RMSD>
11.198

$$$$
ligand
 OpenBabel11021811493D
libRbt.so/2013.1/901 2013/11/27
 31 33  0  0  0  0  0  0  0  0999 V2000
  -17.2235  -19.4150  -12.6036 C   0  0  2  0  0  0  0  0  0  0  0  0
  -16.5310  -19.5666  -11.3731 O   0  0  0  0  0  0  0  0  0  0  0  0
  -15.3433  -23.6565  -11.5657 C   0  0  2  0  0  0  0  0  0  0  0  0
  -14.8506  -24.9297  -11.1492 N   0  0  0  0  0  0  0  0  0  0  0  0
  -18.2414  -25.1689  -10.0240 C   0  0  2  0  0  0  0  0  0  0  0  0
  -17.5018  -17.8657  -12.7900 C   0  0  2  0  0  0  0  0  0  0  0  0
  -16.2226  -17.1410  -12.7975 N   0  0  0  0  0  0  0  0  0  0  0  0
  -14.2188  -22.5668  -11.2860 C   0  0  0  0  0  0  0  0  0  0  0  0
  -19.5690  -25.6860  -10.6708 C   0  0  2  0  0  0  0  0  0  0  0  0
  -19.2492  -26.2808  -11.9064 O   0  0  0  0  0  0  0  0  0  0  0  0
  -18.4376  -17.3470  -11.6273 C   0  0  0  0  0  0  0  0  0  0  0  0
  -14.7653  -21.1443  -11.7573 C   0  0  2  0  0  0  0  0  0  0  0  0
  -13.7315  -20.1158  -11.5107 N   0  0  0  0  0  0  0  0  0  0  0  0
  -20.5698  -24.4708  -10.8570 C   0  0  1  0  0  0  0  0  0  0  0  0
  -21.8544  -24.9491  -11.4826 N   0  0  0  0  0  0  0  0  0  0  0  0
  -19.5805  -18.3829  -11.2625 C   0  0  0  0  0  0  0  0  0  0  0  0
  -16.0735  -20.7973  -10.9343 C   0  0  2  0  0  0  0  0  0  0  0  0
  -20.9000  -23.8250   -9.4005 C   0  0  1  0  0  0  0  0  0  0  0  0
  -21.5173  -24.7370   -8.5148 O   0  0  0  0  0  0  0  0  0  0  0  0
  -19.5514  -19.6495  -11.7355 C   0  0  2  0  0  0  0  0  0  0  0  0
  -18.5040  -20.1290  -12.5851 O   0  0  0  0  0  0  0  0  0  0  0  0
  -17.1747  -21.9018  -11.2088 C   0  0  2  0  0  0  0  0  0  0  0  0
  -18.3549  -21.5864  -10.4515 O   0  0  0  0  0  0  0  0  0  0  0  0
  -19.5598  -23.3385   -8.7553 C   0  0  0  0  0  0  0  0  0  0  0  0
  -18.5509  -24.4844   -8.7052 O   0  0  0  0  0  0  0  0  0  0  0  0
  -20.6361  -20.6743  -11.4070 C   0  0  0  0  0  0  0  0  0  0  0  0
  -20.3395  -21.8809  -12.1270 O   0  0  0  0  0  0  0  0  0  0  0  0
  -16.6377  -23.3134  -10.7441 C   0  0  1  0  0  0  0  0  0  0  0  0
  -17.6434  -24.2738  -11.0174 O   0  0  0  0  0  0  0  0  0  0  0  0
  -21.8558  -22.6133   -9.4350 C   0  0  0  0  0  0  0  0  0  0  0  0
  -21.7316  -25.6675  -12.7674 C   0  0  0  0  0  0  0  0  0  0  0  0
  1  2  1  1  0  0  0
  1  6  1  0  0  0  0
  1 21  1  0  0  0  0
  3  4  1  1  0  0  0
  3  8  1  0  0  0  0
  3 28  1  0  0  0  0
  5  9  1  0  0  0  0
  5 25  1  0  0  0  0
  5 29  1  6  0  0  0
  6  7  1  1  0  0  0
  6 11  1  0  0  0  0
  8 12  1  0  0  0  0
  9 10  1  6  0  0  0
  9 14  1  0  0  0  0
 11 16  1  0  0  0  0
 12 13  1  1  0  0  0
 12 17  1  0  0  0  0
 14 15  1  1  0  0  0
 14 18  1  0  0  0  0
 15 31  1  0  0  0  0
 16 20  1  0  0  0  0
 17  2  1  6  0  0  0
 17 22  1  0  0  0  0
 18 19  1  1  0  0  0
 18 24  1  0  0  0  0
 18 30  1  0  0  0  0
 20 21  1  0  0  0  0
 20 26  1  6  0  0  0
 22 23  1  1  0  0  0
 22 28  1  0  0  0  0
 24 25  1  0  0  0  0
 26 27  1  0  0  0  0
 28 29  1  6  0  0  0
M  END
>  <CHROM.1>
-176.72488424,162.30722072,-55.53947276,76.77224234,176.72308584,118.23478121
-18.33138904,-22.20763297,-11.10301511,0.99823829,0.08255884,-0.20772733

>  <Name>
ligand

>  <RI>
0

>  <Rbt.Current_Directory>
/home/itssahil/PROJECTS/Mol_Feturizer/New_Systems/rnas/4GPW

>  <Rbt.Executable>
rbdock ($Id: //depot/dev/client3/rdock/2013.1/src/exe/rbdock.cxx#4 $)

>  <Rbt.Library>
libRbt.so (2013.1, Build901 2013/11/27)

>  <Rbt.Parameter_File>
/export/apps/rDock/src/rDock_2013.1_src/data/scripts/dock_solv.prm

>  <Rbt.Receptor>
prm/blind_docking_60.prm

>  <SCORE>
29.6518

>  <SCORE.INTER>
5.75339

>  <SCORE.INTER.CONST>
1

>  <SCORE.INTER.POLAR>
0

>  <SCORE.INTER.ROT>
6

>  <SCORE.INTER.SOLV>
29.5403

>  <SCORE.INTER.VDW>
-13.6112

>  <SCORE.INTER.norm>
0.185593

>  <SCORE.INTRA>
5.56271

>  <SCORE.INTRA.DIHEDRAL>
-5.68047

>  <SCORE.INTRA.DIHEDRAL.0>
19.2558

>  <SCORE.INTRA.POLAR>
0

>  <SCORE.INTRA.POLAR.0>
0

>  <SCORE.INTRA.REPUL>
0

>  <SCORE.INTRA.REPUL.0>
0

>  <SCORE.INTRA.SOLV>
0.0832823

>  <SCORE.INTRA.SOLV.lig_0>
-64.5929

>  <SCORE.INTRA.VDW>
8.3613

>  <SCORE.INTRA.VDW.0>
-4.40538

>  <SCORE.INTRA.norm>
0.179442

>  <SCORE.RESTR>
18.3357

>  <SCORE.RESTR.CAVITY>
18.3357

>  <SCORE.RESTR.norm>
0.591475

>  <SCORE.SYSTEM>
0

>  <SCORE.SYSTEM.CONST>
0

>  <SCORE.SYSTEM.DIHEDRAL>
0

>  <SCORE.SYSTEM.SOLV>
0

>  <SCORE.SYSTEM.norm>
0

>  <SCORE.heavy>
31

>  <SCORE.norm>
0.95651

>  <RMSD>
11.291

$$$$
ligand
 OpenBabel11021811493D
libRbt.so/2013.1/901 2013/11/27
 31 33  0  0  0  0  0  0  0  0999 V2000
  -17.6139  -19.3646  -12.3733 C   0  0  2  0  0  0  0  0  0  0  0  0
  -16.9997  -19.7032  -11.1386 O   0  0  0  0  0  0  0  0  0  0  0  0
  -15.6265  -23.6509  -11.9783 C   0  0  2  0  0  0  0  0  0  0  0  0
  -15.0548  -24.9426  -11.7734 N   0  0  0  0  0  0  0  0  0  0  0  0
  -18.3964  -25.5093  -10.5604 C   0  0  2  0  0  0  0  0  0  0  0  0
  -18.2492  -17.9235  -12.1942 C   0  0  2  0  0  0  0  0  0  0  0  0
  -17.1901  -16.9679  -11.8381 N   0  0  0  0  0  0  0  0  0  0  0  0
  -14.5442  -22.5543  -11.5831 C   0  0  0  0  0  0  0  0  0  0  0  0
  -19.9491  -25.3166  -10.5676 C   0  0  2  0  0  0  0  0  0  0  0  0
  -20.3893  -25.3717  -11.9040 O   0  0  0  0  0  0  0  0  0  0  0  0
  -19.3681  -17.9674  -11.0794 C   0  0  0  0  0  0  0  0  0  0  0  0
  -15.1793  -21.1100  -11.8179 C   0  0  2  0  0  0  0  0  0  0  0  0
  -14.1860  -20.0739  -11.4611 N   0  0  0  0  0  0  0  0  0  0  0  0
  -20.3079  -23.9248   -9.8987 C   0  0  1  0  0  0  0  0  0  0  0  0
  -21.8006  -23.7193   -9.8996 N   0  0  0  0  0  0  0  0  0  0  0  0
  -20.2458  -19.2851  -11.1544 C   0  0  0  0  0  0  0  0  0  0  0  0
  -16.4642  -20.9581  -10.9041 C   0  0  2  0  0  0  0  0  0  0  0  0
  -19.7749  -23.9197   -8.3614 C   0  0  1  0  0  0  0  0  0  0  0  0
  -20.3661  -24.9260   -7.5645 O   0  0  0  0  0  0  0  0  0  0  0  0
  -19.8713  -20.3301  -11.9267 C   0  0  2  0  0  0  0  0  0  0  0  0
  -18.6776  -20.3137  -12.7164 O   0  0  0  0  0  0  0  0  0  0  0  0
  -17.5222  -22.0688  -11.2972 C   0  0  2  0  0  0  0  0  0  0  0  0
  -18.6808  -21.9317  -10.4577 O   0  0  0  0  0  0  0  0  0  0  0  0
  -18.2257  -24.1415   -8.3701 C   0  0  0  0  0  0  0  0  0  0  0  0
  -17.8787  -25.4163   -9.1367 O   0  0  0  0  0  0  0  0  0  0  0  0
  -20.6928  -21.6147  -12.0254 C   0  0  0  0  0  0  0  0  0  0  0  0
  -19.8775  -22.6158  -12.6543 O   0  0  0  0  0  0  0  0  0  0  0  0
  -16.8974  -23.5019  -11.0668 C   0  0  1  0  0  0  0  0  0  0  0  0
  -17.8671  -24.4654  -11.4410 O   0  0  0  0  0  0  0  0  0  0  0  0
  -20.0437  -22.6094   -7.5909 C   0  0  0  0  0  0  0  0  0  0  0  0
  -22.2859  -22.4259   -9.3767 C   0  0  0  0  0  0  0  0  0  0  0  0
  1  2  1  1  0  0  0
  1  6  1  0  0  0  0
  1 21  1  0  0  0  0
  3  4  1  1  0  0  0
  3  8  1  0  0  0  0
  3 28  1  0  0  0  0
  5  9  1  0  0  0  0
  5 25  1  0  0  0  0
  5 29  1  6  0  0  0
  6  7  1  1  0  0  0
  6 11  1  0  0  0  0
  8 12  1  0  0  0  0
  9 10  1  6  0  0  0
  9 14  1  0  0  0  0
 11 16  1  0  0  0  0
 12 13  1  1  0  0  0
 12 17  1  0  0  0  0
 14 15  1  1  0  0  0
 14 18  1  0  0  0  0
 15 31  1  0  0  0  0
 16 20  1  0  0  0  0
 17  2  1  6  0  0  0
 17 22  1  0  0  0  0
 18 19  1  1  0  0  0
 18 24  1  0  0  0  0
 18 30  1  0  0  0  0
 20 21  1  0  0  0  0
 20 26  1  6  0  0  0
 22 23  1  1  0  0  0
 22 28  1  0  0  0  0
 24 25  1  0  0  0  0
 26 27  1  0  0  0  0
 28 29  1  6  0  0  0
M  END
>  <CHROM.1>
173.31274505,124.11603084,-176.58483353,69.05577442,-166.52224706,119.58210061
-18.43148084,-22.24056237,-10.83184574,1.13155054,0.27149771,-0.27817358

>  <Name>
ligand

>  <RI>
0

>  <Rbt.Current_Directory>
/home/itssahil/PROJECTS/Mol_Feturizer/New_Systems/rnas/4GPW

>  <Rbt.Executable>
rbdock ($Id: //depot/dev/client3/rdock/2013.1/src/exe/rbdock.cxx#4 $)

>  <Rbt.Library>
libRbt.so (2013.1, Build901 2013/11/27)

>  <Rbt.Parameter_File>
/export/apps/rDock/src/rDock_2013.1_src/data/scripts/dock_solv.prm

>  <Rbt.Receptor>
prm/blind_docking_60.prm

>  <SCORE>
46.0149

>  <SCORE.INTER>
15.9889

>  <SCORE.INTER.CONST>
1

>  <SCORE.INTER.POLAR>
0

>  <SCORE.INTER.ROT>
6

>  <SCORE.INTER.SOLV>
29.9171

>  <SCORE.INTER.VDW>
-6.91314

>  <SCORE.INTER.norm>
0.51577

>  <SCORE.INTRA>
12.7458

>  <SCORE.INTRA.DIHEDRAL>
-0.94511

>  <SCORE.INTRA.DIHEDRAL.0>
19.2558

>  <SCORE.INTRA.POLAR>
0

>  <SCORE.INTRA.POLAR.0>
0

>  <SCORE.INTRA.REPUL>
0.104418

>  <SCORE.INTRA.REPUL.0>
0

>  <SCORE.INTRA.SOLV>
1.30631

>  <SCORE.INTRA.SOLV.lig_0>
-64.5929

>  <SCORE.INTRA.VDW>
12.0431

>  <SCORE.INTRA.VDW.0>
-4.40538

>  <SCORE.INTRA.norm>
0.411155

>  <SCORE.RESTR>
17.2802

>  <SCORE.RESTR.CAVITY>
17.2802

>  <SCORE.RESTR.norm>
0.557426

>  <SCORE.SYSTEM>
0

>  <SCORE.SYSTEM.CONST>
0

>  <SCORE.SYSTEM.DIHEDRAL>
0

>  <SCORE.SYSTEM.SOLV>
0

>  <SCORE.SYSTEM.norm>
0

>  <SCORE.heavy>
31

>  <SCORE.norm>
1.48435

>  <RMSD>
11.324

$$$$
ligand
 OpenBabel11021811493D
libRbt.so/2013.1/901 2013/11/27
 31 33  0  0  0  0  0  0  0  0999 V2000
  -19.7179  -23.5268  -10.7167 C   0  0  2  0  0  0  0  0  0  0  0  0
  -20.2301  -22.4169  -11.4394 O   0  0  0  0  0  0  0  0  0  0  0  0
  -17.4003  -19.4309  -12.5576 C   0  0  2  0  0  0  0  0  0  0  0  0
  -16.7344  -18.1696  -12.6127 N   0  0  0  0  0  0  0  0  0  0  0  0
  -14.9078  -20.5703  -11.6477 C   0  0  2  0  0  0  0  0  0  0  0  0
  -20.6328  -24.7717  -11.0708 C   0  0  2  0  0  0  0  0  0  0  0  0
  -20.5913  -25.0065  -12.5216 N   0  0  0  0  0  0  0  0  0  0  0  0
  -18.9170  -19.2173  -12.9864 C   0  0  0  0  0  0  0  0  0  0  0  0
  -15.1551  -22.0777  -11.9867 C   0  0  2  0  0  0  0  0  0  0  0  0
  -16.4632  -22.2019  -12.4929 O   0  0  0  0  0  0  0  0  0  0  0  0
  -22.1121  -24.5034  -10.5845 C   0  0  0  0  0  0  0  0  0  0  0  0
  -19.6609  -20.6272  -12.9319 C   0  0  2  0  0  0  0  0  0  0  0  0
  -21.0736  -20.4519  -13.3329 N   0  0  0  0  0  0  0  0  0  0  0  0
  -14.9579  -22.9488  -10.6770 C   0  0  1  0  0  0  0  0  0  0  0  0
  -15.1957  -24.4050  -10.9830 N   0  0  0  0  0  0  0  0  0  0  0  0
  -22.1640  -23.7775   -9.1763 C   0  0  0  0  0  0  0  0  0  0  0  0
  -19.5895  -21.1898  -11.4529 C   0  0  2  0  0  0  0  0  0  0  0  0
  -13.4334  -22.7642  -10.1392 C   0  0  1  0  0  0  0  0  0  0  0  0
  -12.4597  -23.1912  -11.0703 O   0  0  0  0  0  0  0  0  0  0  0  0
  -21.0515  -23.2395   -8.6271 C   0  0  2  0  0  0  0  0  0  0  0  0
  -19.7739  -23.2918   -9.2705 O   0  0  0  0  0  0  0  0  0  0  0  0
  -18.0735  -21.3778  -11.0354 C   0  0  2  0  0  0  0  0  0  0  0  0
  -18.0158  -21.8786   -9.6894 O   0  0  0  0  0  0  0  0  0  0  0  0
  -13.1932  -21.2487   -9.8317 C   0  0  0  0  0  0  0  0  0  0  0  0
  -13.5182  -20.4021  -11.0609 O   0  0  0  0  0  0  0  0  0  0  0  0
  -21.0630  -22.5346   -7.2714 C   0  0  0  0  0  0  0  0  0  0  0  0
  -22.1814  -21.6341   -7.2487 O   0  0  0  0  0  0  0  0  0  0  0  0
  -17.3318  -19.9834  -11.0885 C   0  0  1  0  0  0  0  0  0  0  0  0
  -15.9792  -20.1951  -10.7221 O   0  0  0  0  0  0  0  0  0  0  0  0
  -13.1055  -23.5486   -8.8507 C   0  0  0  0  0  0  0  0  0  0  0  0
  -16.5382  -24.9322  -10.6647 C   0  0  0  0  0  0  0  0  0  0  0  0
  1  2  1  6  0  0  0
  1  6  1  0  0  0  0
  1 21  1  0  0  0  0
  3  4  1  1  0  0  0
  3  8  1  0  0  0  0
  3 28  1  0  0  0  0
  5  9  1  0  0  0  0
  5 25  1  0  0  0  0
  5 29  1  1  0  0  0
  6  7  1  6  0  0  0
  6 11  1  0  0  0  0
  8 12  1  0  0  0  0
  9 10  1  1  0  0  0
  9 14  1  0  0  0  0
 11 16  1  0  0  0  0
 12 13  1  1  0  0  0
 12 17  1  0  0  0  0
 14 15  1  6  0  0  0
 14 18  1  0  0  0  0
 15 31  1  0  0  0  0
 16 20  1  0  0  0  0
 17  2  1  6  0  0  0
 17 22  1  0  0  0  0
 18 19  1  6  0  0  0
 18 24  1  0  0  0  0
 18 30  1  0  0  0  0
 20 21  1  0  0  0  0
 20 26  1  1  0  0  0
 22 23  1  1  0  0  0
 22 28  1  0  0  0  0
 24 25  1  0  0  0  0
 26 27  1  0  0  0  0
 28 29  1  6  0  0  0
M  END
>  <CHROM.1>
-174.05731738,-74.07990906,-97.39857317,138.85868461,-46.58651655,-31.04249700
-17.76470446,-22.12060037,-10.80127416,-2.94249900,0.01276610,-0.59491688

>  <Name>
ligand

>  <RI>
0

>  <Rbt.Current_Directory>
/home/itssahil/PROJECTS/Mol_Feturizer/New_Systems/rnas/4GPW

>  <Rbt.Executable>
rbdock ($Id: //depot/dev/client3/rdock/2013.1/src/exe/rbdock.cxx#4 $)

>  <Rbt.Library>
libRbt.so (2013.1, Build901 2013/11/27)

>  <Rbt.Parameter_File>
/export/apps/rDock/src/rDock_2013.1_src/data/scripts/dock_solv.prm

>  <Rbt.Receptor>
prm/blind_docking_60.prm

>  <SCORE>
40.4722

>  <SCORE.INTER>
10.0916

>  <SCORE.INTER.CONST>
1

>  <SCORE.INTER.POLAR>
0

>  <SCORE.INTER.ROT>
6

>  <SCORE.INTER.SOLV>
26.9626

>  <SCORE.INTER.VDW>
-9.85979

>  <SCORE.INTER.norm>
0.325536

>  <SCORE.INTRA>
9.235

>  <SCORE.INTRA.DIHEDRAL>
-4.95925

>  <SCORE.INTRA.DIHEDRAL.0>
19.2558

>  <SCORE.INTRA.POLAR>
0

>  <SCORE.INTRA.POLAR.0>
0

>  <SCORE.INTRA.REPUL>
0

>  <SCORE.INTRA.REPUL.0>
0

>  <SCORE.INTRA.SOLV>
-0.858666

>  <SCORE.INTRA.SOLV.lig_0>
-64.5929

>  <SCORE.INTRA.VDW>
12.144

>  <SCORE.INTRA.VDW.0>
-4.40538

>  <SCORE.INTRA.norm>
0.297903

>  <SCORE.RESTR>
21.1456

>  <SCORE.RESTR.CAVITY>
21.1456

>  <SCORE.RESTR.norm>
0.682116

>  <SCORE.SYSTEM>
0

>  <SCORE.SYSTEM.CONST>
0

>  <SCORE.SYSTEM.DIHEDRAL>
0

>  <SCORE.SYSTEM.SOLV>
0

>  <SCORE.SYSTEM.norm>
0

>  <SCORE.heavy>
31

>  <SCORE.norm>
1.30556

>  <RMSD>
11.683

$$$$
ligand
 OpenBabel11021811493D
libRbt.so/2013.1/901 2013/11/27
 31 33  0  0  0  0  0  0  0  0999 V2000
  -20.5970  -21.2165  -11.8582 C   0  0  2  0  0  0  0  0  0  0  0  0
  -19.9341  -22.1299  -12.7201 O   0  0  0  0  0  0  0  0  0  0  0  0
  -18.8140  -25.1834   -9.9640 C   0  0  2  0  0  0  0  0  0  0  0  0
  -18.3596  -26.4443   -9.4730 N   0  0  0  0  0  0  0  0  0  0  0  0
  -15.1806  -24.7407  -10.3078 C   0  0  2  0  0  0  0  0  0  0  0  0
  -20.3824  -19.7683  -12.4656 C   0  0  2  0  0  0  0  0  0  0  0  0
  -20.9375  -19.7264  -13.8264 N   0  0  0  0  0  0  0  0  0  0  0  0
  -20.1007  -25.4299  -10.8660 C   0  0  0  0  0  0  0  0  0  0  0  0
  -14.2517  -23.5248   -9.9809 C   0  0  2  0  0  0  0  0  0  0  0  0
  -14.4829  -23.1463   -8.6445 O   0  0  0  0  0  0  0  0  0  0  0  0
  -18.8425  -19.4145  -12.4730 C   0  0  0  0  0  0  0  0  0  0  0  0
  -20.6138  -24.0210  -11.4100 C   0  0  2  0  0  0  0  0  0  0  0  0
  -21.8149  -24.2270  -12.2481 N   0  0  0  0  0  0  0  0  0  0  0  0
  -14.5714  -22.3368  -10.9807 C   0  0  1  0  0  0  0  0  0  0  0  0
  -13.6880  -21.1540  -10.6788 N   0  0  0  0  0  0  0  0  0  0  0  0
  -18.1013  -19.9101  -11.1625 C   0  0  0  0  0  0  0  0  0  0  0  0
  -19.4657  -23.3537  -12.2736 C   0  0  2  0  0  0  0  0  0  0  0  0
  -14.2881  -22.8324  -12.5044 C   0  0  1  0  0  0  0  0  0  0  0  0
  -12.9441  -23.2089  -12.7259 O   0  0  0  0  0  0  0  0  0  0  0  0
  -18.7038  -20.7580  -10.2983 C   0  0  2  0  0  0  0  0  0  0  0  0
  -20.0304  -21.2537  -10.5063 O   0  0  0  0  0  0  0  0  0  0  0  0
  -18.1867  -23.1337  -11.3660 C   0  0  2  0  0  0  0  0  0  0  0  0
  -17.1460  -22.5376  -12.1581 O   0  0  0  0  0  0  0  0  0  0  0  0
  -15.2037  -24.0652  -12.8061 C   0  0  0  0  0  0  0  0  0  0  0  0
  -14.9880  -25.1532  -11.7557 O   0  0  0  0  0  0  0  0  0  0  0  0
  -18.0215  -21.2551   -9.0246 C   0  0  0  0  0  0  0  0  0  0  0  0
  -18.7895  -22.3537   -8.5094 O   0  0  0  0  0  0  0  0  0  0  0  0
  -17.6748  -24.5270  -10.8240 C   0  0  1  0  0  0  0  0  0  0  0  0
  -16.5408  -24.2873  -10.0084 O   0  0  0  0  0  0  0  0  0  0  0  0
  -14.5764  -21.7736  -13.5901 C   0  0  0  0  0  0  0  0  0  0  0  0
  -13.6714  -20.6875   -9.2775 C   0  0  0  0  0  0  0  0  0  0  0  0
  1  2  1  6  0  0  0
  1  6  1  0  0  0  0
  1 21  1  0  0  0  0
  3  4  1  6  0  0  0
  3  8  1  0  0  0  0
  3 28  1  0  0  0  0
  5  9  1  0  0  0  0
  5 25  1  0  0  0  0
  5 29  1  6  0  0  0
  6  7  1  6  0  0  0
  6 11  1  0  0  0  0
  8 12  1  0  0  0  0
  9 10  1  1  0  0  0
  9 14  1  0  0  0  0
 11 16  1  0  0  0  0
 12 13  1  6  0  0  0
 12 17  1  0  0  0  0
 14 15  1  1  0  0  0
 14 18  1  0  0  0  0
 15 31  1  0  0  0  0
 16 20  1  0  0  0  0
 17  2  1  1  0  0  0
 17 22  1  0  0  0  0
 18 19  1  6  0  0  0
 18 24  1  0  0  0  0
 18 30  1  0  0  0  0
 20 21  1  0  0  0  0
 20 26  1  1  0  0  0
 22 23  1  6  0  0  0
 22 28  1  0  0  0  0
 24 25  1  0  0  0  0
 26 27  1  0  0  0  0
 28 29  1  1  0  0  0
M  END
>  <CHROM.1>
154.32688290,136.54291417,-52.09751217,46.19143181,-166.90728692,126.89912324
-17.41134075,-22.69249944,-11.17050218,-2.92969437,0.06923284,2.82004434

>  <Name>
ligand

>  <RI>
0

>  <Rbt.Current_Directory>
/home/itssahil/PROJECTS/Mol_Feturizer/New_Systems/rnas/4GPW

>  <Rbt.Executable>
rbdock ($Id: //depot/dev/client3/rdock/2013.1/src/exe/rbdock.cxx#4 $)

>  <Rbt.Library>
libRbt.so (2013.1, Build901 2013/11/27)

>  <Rbt.Parameter_File>
/export/apps/rDock/src/rDock_2013.1_src/data/scripts/dock_solv.prm

>  <Rbt.Receptor>
prm/blind_docking_60.prm

>  <SCORE>
73.9196

>  <SCORE.INTER>
42.0556

>  <SCORE.INTER.CONST>
1

>  <SCORE.INTER.POLAR>
0

>  <SCORE.INTER.ROT>
6

>  <SCORE.INTER.SOLV>
25.5179

>  <SCORE.INTER.VDW>
11.9311

>  <SCORE.INTER.norm>
1.35663

>  <SCORE.INTRA>
9.04689

>  <SCORE.INTRA.DIHEDRAL>
0.765352

>  <SCORE.INTRA.DIHEDRAL.0>
19.2558

>  <SCORE.INTRA.POLAR>
0

>  <SCORE.INTRA.POLAR.0>
0

>  <SCORE.INTRA.REPUL>
0

>  <SCORE.INTRA.REPUL.0>
0

>  <SCORE.INTRA.SOLV>
0.151963

>  <SCORE.INTRA.SOLV.lig_0>
-64.5929

>  <SCORE.INTRA.VDW>
8.58824

>  <SCORE.INTRA.VDW.0>
-4.40538

>  <SCORE.INTRA.norm>
0.291835

>  <SCORE.RESTR>
22.8172

>  <SCORE.RESTR.CAVITY>
22.8172

>  <SCORE.RESTR.norm>
0.736038

>  <SCORE.SYSTEM>
0

>  <SCORE.SYSTEM.CONST>
0

>  <SCORE.SYSTEM.DIHEDRAL>
0

>  <SCORE.SYSTEM.SOLV>
0

>  <SCORE.SYSTEM.norm>
0

>  <SCORE.heavy>
31

>  <SCORE.norm>
2.3845

>  <RMSD>
11.898

$$$$
ligand
 OpenBabel11021811493D
libRbt.so/2013.1/901 2013/11/27
 31 33  0  0  0  0  0  0  0  0999 V2000
  -31.6805  -14.0219   -8.8473 C   0  0  2  0  0  0  0  0  0  0  0  0
  -33.0170  -14.3683   -9.1793 O   0  0  0  0  0  0  0  0  0  0  0  0
  -36.8452  -12.6606   -9.9561 C   0  0  2  0  0  0  0  0  0  0  0  0
  -37.9339  -11.7384   -9.9171 N   0  0  0  0  0  0  0  0  0  0  0  0
  -36.2018  -10.2015  -12.3430 C   0  0  2  0  0  0  0  0  0  0  0  0
  -31.1435  -15.1412   -7.8618 C   0  0  2  0  0  0  0  0  0  0  0  0
  -31.2122  -16.4489   -8.5303 N   0  0  0  0  0  0  0  0  0  0  0  0
  -36.5231  -13.1207   -8.4679 C   0  0  0  0  0  0  0  0  0  0  0  0
  -34.8272   -9.5186  -12.6469 C   0  0  2  0  0  0  0  0  0  0  0  0
  -34.1491  -10.3069  -13.5964 O   0  0  0  0  0  0  0  0  0  0  0  0
  -32.0002  -15.1402   -6.5342 C   0  0  0  0  0  0  0  0  0  0  0  0
  -35.3111  -14.1567   -8.5105 C   0  0  2  0  0  0  0  0  0  0  0  0
  -34.9983  -14.6020   -7.1353 N   0  0  0  0  0  0  0  0  0  0  0  0
  -33.9962   -9.3916  -11.3029 C   0  0  1  0  0  0  0  0  0  0  0  0
  -32.6660   -8.7386  -11.5763 N   0  0  0  0  0  0  0  0  0  0  0  0
  -32.3617  -13.6754   -6.0483 C   0  0  0  0  0  0  0  0  0  0  0  0
  -34.0463  -13.4432   -9.1435 C   0  0  2  0  0  0  0  0  0  0  0  0
  -34.8280   -8.4743  -10.2474 C   0  0  1  0  0  0  0  0  0  0  0  0
  -35.0611   -7.1612  -10.7150 O   0  0  0  0  0  0  0  0  0  0  0  0
  -32.1632  -12.6051   -6.8506 C   0  0  2  0  0  0  0  0  0  0  0  0
  -31.6200  -12.7231   -8.1696 O   0  0  0  0  0  0  0  0  0  0  0  0
  -34.3905  -12.9746  -10.6165 C   0  0  2  0  0  0  0  0  0  0  0  0
  -33.2425  -12.3194  -11.1810 O   0  0  0  0  0  0  0  0  0  0  0  0
  -36.2103   -9.1557   -9.9757 C   0  0  0  0  0  0  0  0  0  0  0  0
  -36.9468   -9.3997  -11.2915 O   0  0  0  0  0  0  0  0  0  0  0  0
  -32.4976  -11.1789   -6.4156 C   0  0  0  0  0  0  0  0  0  0  0  0
  -33.5710  -10.7028   -7.2422 O   0  0  0  0  0  0  0  0  0  0  0  0
  -35.5915  -11.9483  -10.5797 C   0  0  1  0  0  0  0  0  0  0  0  0
  -35.8770  -11.5637  -11.9135 O   0  0  0  0  0  0  0  0  0  0  0  0
  -34.1385   -8.2803   -8.8799 C   0  0  0  0  0  0  0  0  0  0  0  0
  -32.6584   -7.6618  -12.5873 C   0  0  0  0  0  0  0  0  0  0  0  0
  1  2  1  1  0  0  0
  1  6  1  0  0  0  0
  1 21  1  0  0  0  0
  3  4  1  1  0  0  0
  3  8  1  0  0  0  0
  3 28  1  0  0  0  0
  5  9  1  0  0  0  0
  5 25  1  0  0  0  0
  5 29  1  1  0  0  0
  6  7  1  6  0  0  0
  6 11  1  0  0  0  0
  8 12  1  0  0  0  0
  9 10  1  6  0  0  0
  9 14  1  0  0  0  0
 11 16  1  0  0  0  0
 12 13  1  1  0  0  0
 12 17  1  0  0  0  0
 14 15  1  6  0  0  0
 14 18  1  0  0  0  0
 15 31  1  0  0  0  0
 16 20  1  0  0  0  0
 17  2  1  6  0  0  0
 17 22  1  0  0  0  0
 18 19  1  6  0  0  0
 18 24  1  0  0  0  0
 18 30  1  0  0  0  0
 20 21  1  0  0  0  0
 20 26  1  1  0  0  0
 22 23  1  1  0  0  0
 22 28  1  0  0  0  0
 24 25  1  0  0  0  0
 26 27  1  0  0  0  0
 28 29  1  6  0  0  0
M  END
>  <CHROM.1>
132.99126486,87.86883408,36.97551209,-138.73593870,-114.14806782,102.62178046
-34.11344884,-11.66183100,-9.64554382,-1.16822410,-0.39252626,-0.48677193

>  <Name>
ligand

>  <RI>
0

>  <Rbt.Current_Directory>
/home/itssahil/PROJECTS/Mol_Feturizer/New_Systems/rnas/4GPW

>  <Rbt.Executable>
rbdock ($Id: //depot/dev/client3/rdock/2013.1/src/exe/rbdock.cxx#4 $)

>  <Rbt.Library>
libRbt.so (2013.1, Build901 2013/11/27)

>  <Rbt.Parameter_File>
/export/apps/rDock/src/rDock_2013.1_src/data/scripts/dock_solv.prm

>  <Rbt.Receptor>
prm/blind_docking_80.prm

>  <SCORE>
31.6354

>  <SCORE.INTER>
6.8393

>  <SCORE.INTER.CONST>
1

>  <SCORE.INTER.POLAR>
0

>  <SCORE.INTER.ROT>
6

>  <SCORE.INTER.SOLV>
15.7703

>  <SCORE.INTER.VDW>
-8.29722

>  <SCORE.INTER.norm>
0.220623

>  <SCORE.INTRA>
5.9197

>  <SCORE.INTRA.DIHEDRAL>
3.85233

>  <SCORE.INTRA.DIHEDRAL.0>
19.2558

>  <SCORE.INTRA.POLAR>
0

>  <SCORE.INTRA.POLAR.0>
0

>  <SCORE.INTRA.REPUL>
0

>  <SCORE.INTRA.REPUL.0>
0

>  <SCORE.INTRA.SOLV>
3.87093

>  <SCORE.INTRA.SOLV.lig_0>
-64.5929

>  <SCORE.INTRA.VDW>
2.05807

>  <SCORE.INTRA.VDW.0>
-4.40538

>  <SCORE.INTRA.norm>
0.190958

>  <SCORE.RESTR>
18.8764

>  <SCORE.RESTR.CAVITY>
18.8764

>  <SCORE.RESTR.norm>
0.608916

>  <SCORE.SYSTEM>
0

>  <SCORE.SYSTEM.CONST>
0

>  <SCORE.SYSTEM.DIHEDRAL>
0

>  <SCORE.SYSTEM.SOLV>
0

>  <SCORE.SYSTEM.norm>
0

>  <SCORE.heavy>
31

>  <SCORE.norm>
1.0205

>  <RMSD>
13.540

$$$$
ligand
 OpenBabel11021811493D
libRbt.so/2013.1/901 2013/11/27
 31 33  0  0  0  0  0  0  0  0999 V2000
  -33.0084  -13.7020   -5.1218 C   0  0  2  0  0  0  0  0  0  0  0  0
  -33.8670  -14.4803   -5.9425 O   0  0  0  0  0  0  0  0  0  0  0  0
  -31.8685  -14.2738   -9.7025 C   0  0  2  0  0  0  0  0  0  0  0  0
  -31.4891  -14.6043  -11.0382 N   0  0  0  0  0  0  0  0  0  0  0  0
  -34.9793  -12.2737  -10.8127 C   0  0  2  0  0  0  0  0  0  0  0  0
  -33.9060  -13.0771   -3.9745 C   0  0  2  0  0  0  0  0  0  0  0  0
  -34.5436  -14.1615   -3.2133 N   0  0  0  0  0  0  0  0  0  0  0  0
  -31.5763  -15.5302   -8.7719 C   0  0  0  0  0  0  0  0  0  0  0  0
  -34.7788  -11.3848  -12.0847 C   0  0  2  0  0  0  0  0  0  0  0  0
  -34.1783  -12.1782  -13.0810 O   0  0  0  0  0  0  0  0  0  0  0  0
  -34.9907  -12.1180   -4.6071 C   0  0  0  0  0  0  0  0  0  0  0  0
  -31.9935  -15.1600   -7.2775 C   0  0  2  0  0  0  0  0  0  0  0  0
  -31.7246  -16.3146   -6.3932 N   0  0  0  0  0  0  0  0  0  0  0  0
  -33.8722  -10.1379  -11.7154 C   0  0  1  0  0  0  0  0  0  0  0  0
  -33.6646   -9.2708  -12.9301 N   0  0  0  0  0  0  0  0  0  0  0  0
  -34.4117  -11.2559   -5.8045 C   0  0  0  0  0  0  0  0  0  0  0  0
  -33.5379  -14.8092   -7.2462 C   0  0  2  0  0  0  0  0  0  0  0  0
  -34.6147   -9.2626  -10.5622 C   0  0  1  0  0  0  0  0  0  0  0  0
  -35.8690   -8.7553  -10.9702 O   0  0  0  0  0  0  0  0  0  0  0  0
  -33.2060  -11.5377   -6.3482 C   0  0  2  0  0  0  0  0  0  0  0  0
  -32.3858  -12.6148   -5.8835 O   0  0  0  0  0  0  0  0  0  0  0  0
  -33.8139  -13.5698   -8.1924 C   0  0  2  0  0  0  0  0  0  0  0  0
  -35.2180  -13.2634   -8.1673 O   0  0  0  0  0  0  0  0  0  0  0  0
  -34.8330  -10.1731   -9.3082 C   0  0  0  0  0  0  0  0  0  0  0  0
  -35.5899  -11.4405   -9.7008 O   0  0  0  0  0  0  0  0  0  0  0  0
  -32.6151  -10.7276   -7.5013 C   0  0  0  0  0  0  0  0  0  0  0  0
  -31.5903  -11.5200   -8.1211 O   0  0  0  0  0  0  0  0  0  0  0  0
  -33.4016  -13.9314   -9.6744 C   0  0  1  0  0  0  0  0  0  0  0  0
  -33.6506  -12.7962  -10.4854 O   0  0  0  0  0  0  0  0  0  0  0  0
  -33.8298   -8.0192  -10.0920 C   0  0  0  0  0  0  0  0  0  0  0  0
  -32.5651   -8.2873  -12.8549 C   0  0  0  0  0  0  0  0  0  0  0  0
  1  2  1  6  0  0  0
  1  6  1  0  0  0  0
  1 21  1  0  0  0  0
  3  4  1  6  0  0  0
  3  8  1  0  0  0  0
  3 28  1  0  0  0  0
  5  9  1  0  0  0  0
  5 25  1  0  0  0  0
  5 29  1  1  0  0  0
  6  7  1  6  0  0  0
  6 11  1  0  0  0  0
  8 12  1  0  0  0  0
  9 10  1  6  0  0  0
  9 14  1  0  0  0  0
 11 16  1  0  0  0  0
 12 13  1  1  0  0  0
 12 17  1  0  0  0  0
 14 15  1  6  0  0  0
 14 18  1  0  0  0  0
 15 31  1  0  0  0  0
 16 20  1  0  0  0  0
 17  2  1  1  0  0  0
 17 22  1  0  0  0  0
 18 19  1  6  0  0  0
 18 24  1  0  0  0  0
 18 30  1  0  0  0  0
 20 21  1  0  0  0  0
 20 26  1  1  0  0  0
 22 23  1  6  0  0  0
 22 28  1  0  0  0  0
 24 25  1  0  0  0  0
 26 27  1  0  0  0  0
 28 29  1  6  0  0  0
M  END
>  <CHROM.1>
158.66537152,-160.47325967,-163.97547279,40.12317302,-161.08704226,173.15948470
-33.61153759,-12.24762881,-8.65702912,1.29318881,-1.14105333,1.91091760

>  <Name>
ligand

>  <RI>
0

>  <Rbt.Current_Directory>
/home/itssahil/PROJECTS/Mol_Feturizer/New_Systems/rnas/4GPW

>  <Rbt.Executable>
rbdock ($Id: //depot/dev/client3/rdock/2013.1/src/exe/rbdock.cxx#4 $)

>  <Rbt.Library>
libRbt.so (2013.1, Build901 2013/11/27)

>  <Rbt.Parameter_File>
/export/apps/rDock/src/rDock_2013.1_src/data/scripts/dock_solv.prm

>  <Rbt.Receptor>
prm/blind_docking_80.prm

>  <SCORE>
33.6364

>  <SCORE.INTER>
10.4153

>  <SCORE.INTER.CONST>
1

>  <SCORE.INTER.POLAR>
0

>  <SCORE.INTER.ROT>
6

>  <SCORE.INTER.SOLV>
19.8425

>  <SCORE.INTER.VDW>
-7.27063

>  <SCORE.INTER.norm>
0.335977

>  <SCORE.INTRA>
-0.0200955

>  <SCORE.INTRA.DIHEDRAL>
-10.1221

>  <SCORE.INTRA.DIHEDRAL.0>
19.2558

>  <SCORE.INTRA.POLAR>
0

>  <SCORE.INTRA.POLAR.0>
0

>  <SCORE.INTRA.REPUL>
0

>  <SCORE.INTRA.REPUL.0>
0

>  <SCORE.INTRA.SOLV>
-0.665587

>  <SCORE.INTRA.SOLV.lig_0>
-64.5929

>  <SCORE.INTRA.VDW>
5.37375

>  <SCORE.INTRA.VDW.0>
-4.40538

>  <SCORE.INTRA.norm>
-0.000648241

>  <SCORE.RESTR>
23.2412

>  <SCORE.RESTR.CAVITY>
23.2412

>  <SCORE.RESTR.norm>
0.749715

>  <SCORE.SYSTEM>
0

>  <SCORE.SYSTEM.CONST>
0

>  <SCORE.SYSTEM.DIHEDRAL>
0

>  <SCORE.SYSTEM.SOLV>
0

>  <SCORE.SYSTEM.norm>
0

>  <SCORE.heavy>
31

>  <SCORE.norm>
1.08504

>  <RMSD>
13.610

$$$$
ligand
 OpenBabel11021811493D
libRbt.so/2013.1/901 2013/11/27
 31 33  0  0  0  0  0  0  0  0999 V2000
  -33.1779  -14.4259   -6.4435 C   0  0  2  0  0  0  0  0  0  0  0  0
  -32.3921  -13.3034   -6.0705 O   0  0  0  0  0  0  0  0  0  0  0  0
  -34.8351  -10.0901   -7.4418 C   0  0  2  0  0  0  0  0  0  0  0  0
  -35.3441   -8.7656   -7.5972 N   0  0  0  0  0  0  0  0  0  0  0  0
  -33.2613  -10.7769  -10.3978 C   0  0  2  0  0  0  0  0  0  0  0  0
  -32.3322  -15.7198   -6.0928 C   0  0  2  0  0  0  0  0  0  0  0  0
  -32.0305  -15.7262   -4.6538 N   0  0  0  0  0  0  0  0  0  0  0  0
  -34.9144  -10.4812   -5.9021 C   0  0  0  0  0  0  0  0  0  0  0  0
  -33.7805  -10.0071  -11.6572 C   0  0  2  0  0  0  0  0  0  0  0  0
  -32.9648   -8.8745  -11.8429 O   0  0  0  0  0  0  0  0  0  0  0  0
  -31.0038  -15.7383   -6.9481 C   0  0  0  0  0  0  0  0  0  0  0  0
  -34.3523  -11.9638   -5.7278 C   0  0  2  0  0  0  0  0  0  0  0  0
  -34.4221  -12.3500   -4.3019 N   0  0  0  0  0  0  0  0  0  0  0  0
  -35.2954   -9.5970  -11.4336 C   0  0  1  0  0  0  0  0  0  0  0  0
  -35.8127   -8.8505  -12.6360 N   0  0  0  0  0  0  0  0  0  0  0  0
  -31.2357  -15.2464   -8.4370 C   0  0  0  0  0  0  0  0  0  0  0  0
  -32.8476  -12.0049   -6.2212 C   0  0  2  0  0  0  0  0  0  0  0  0
  -36.1859  -10.9425  -11.2238 C   0  0  1  0  0  0  0  0  0  0  0  0
  -36.1528  -11.8107  -12.3384 O   0  0  0  0  0  0  0  0  0  0  0  0
  -32.3912  -14.6458   -8.8016 C   0  0  2  0  0  0  0  0  0  0  0  0
  -33.4644  -14.4207   -7.8815 O   0  0  0  0  0  0  0  0  0  0  0  0
  -32.7848  -11.5941   -7.7493 C   0  0  2  0  0  0  0  0  0  0  0  0
  -31.4163  -11.6237   -8.1875 O   0  0  0  0  0  0  0  0  0  0  0  0
  -35.6367  -11.7147   -9.9784 C   0  0  0  0  0  0  0  0  0  0  0  0
  -34.1423  -11.9859  -10.1415 O   0  0  0  0  0  0  0  0  0  0  0  0
  -32.6509  -14.1608  -10.2271 C   0  0  0  0  0  0  0  0  0  0  0  0
  -31.4841  -14.4481  -11.0133 O   0  0  0  0  0  0  0  0  0  0  0  0
  -33.3414  -10.1259   -7.9273 C   0  0  1  0  0  0  0  0  0  0  0  0
  -33.2809   -9.8011   -9.3055 O   0  0  0  0  0  0  0  0  0  0  0  0
  -37.6884  -10.6884  -10.9769 C   0  0  0  0  0  0  0  0  0  0  0  0
  -34.9962   -8.9370  -13.8639 C   0  0  0  0  0  0  0  0  0  0  0  0
  1  2  1  6  0  0  0
  1  6  1  0  0  0  0
  1 21  1  0  0  0  0
  3  4  1  1  0  0  0
  3  8  1  0  0  0  0
  3 28  1  0  0  0  0
  5  9  1  0  0  0  0
  5 25  1  0  0  0  0
  5 29  1  1  0  0  0
  6  7  1  1  0  0  0
  6 11  1  0  0  0  0
  8 12  1  0  0  0  0
  9 10  1  1  0  0  0
  9 14  1  0  0  0  0
 11 16  1  0  0  0  0
 12 13  1  1  0  0  0
 12 17  1  0  0  0  0
 14 15  1  6  0  0  0
 14 18  1  0  0  0  0
 15 31  1  0  0  0  0
 16 20  1  0  0  0  0
 17  2  1  6  0  0  0
 17 22  1  0  0  0  0
 18 19  1  6  0  0  0
 18 24  1  0  0  0  0
 18 30  1  0  0  0  0
 20 21  1  0  0  0  0
 20 26  1  6  0  0  0
 22 23  1  1  0  0  0
 22 28  1  0  0  0  0
 24 25  1  0  0  0  0
 26 27  1  0  0  0  0
 28 29  1  6  0  0  0
M  END
>  <CHROM.1>
-178.83829052,157.17962932,14.77080628,43.67732845,-0.69504139,-94.89865561
-33.71587353,-11.96089346,-8.87008914,0.81506609,-0.99514066,1.61158230

>  <Name>
ligand

>  <RI>
0

>  <Rbt.Current_Directory>
/home/itssahil/PROJECTS/Mol_Feturizer/New_Systems/rnas/4GPW

>  <Rbt.Executable>
rbdock ($Id: //depot/dev/client3/rdock/2013.1/src/exe/rbdock.cxx#4 $)

>  <Rbt.Library>
libRbt.so (2013.1, Build901 2013/11/27)

>  <Rbt.Parameter_File>
/export/apps/rDock/src/rDock_2013.1_src/data/scripts/dock_solv.prm

>  <Rbt.Receptor>
prm/blind_docking_80.prm

>  <SCORE>
37.1188

>  <SCORE.INTER>
9.44691

>  <SCORE.INTER.CONST>
1

>  <SCORE.INTER.POLAR>
0

>  <SCORE.INTER.ROT>
6

>  <SCORE.INTER.SOLV>
11.4894

>  <SCORE.INTER.VDW>
-5.13187

>  <SCORE.INTER.norm>
0.304739

>  <SCORE.INTRA>
3.99567

>  <SCORE.INTRA.DIHEDRAL>
-8.50614

>  <SCORE.INTRA.DIHEDRAL.0>
19.2558

>  <SCORE.INTRA.POLAR>
0

>  <SCORE.INTRA.POLAR.0>
0

>  <SCORE.INTRA.REPUL>
0.0487599

>  <SCORE.INTRA.REPUL.0>
0

>  <SCORE.INTRA.SOLV>
-0.00965111

>  <SCORE.INTRA.SOLV.lig_0>
-64.5929

>  <SCORE.INTRA.VDW>
8.00976

>  <SCORE.INTRA.VDW.0>
-4.40538

>  <SCORE.INTRA.norm>
0.128893

>  <SCORE.RESTR>
23.6762

>  <SCORE.RESTR.CAVITY>
23.6762

>  <SCORE.RESTR.norm>
0.763748

>  <SCORE.SYSTEM>
0

>  <SCORE.SYSTEM.CONST>
0

>  <SCORE.SYSTEM.DIHEDRAL>
0

>  <SCORE.SYSTEM.SOLV>
0

>  <SCORE.SYSTEM.norm>
0

>  <SCORE.heavy>
31

>  <SCORE.norm>
1.19738

>  <RMSD>
13.722

$$$$
ligand
 OpenBabel11021811493D
libRbt.so/2013.1/901 2013/11/27
 31 33  0  0  0  0  0  0  0  0999 V2000
  -31.8572  -13.9337   -8.9113 C   0  0  2  0  0  0  0  0  0  0  0  0
  -33.1249  -14.3722   -9.3774 O   0  0  0  0  0  0  0  0  0  0  0  0
  -36.9267  -12.8140  -10.5147 C   0  0  2  0  0  0  0  0  0  0  0  0
  -38.0998  -12.0011  -10.5019 N   0  0  0  0  0  0  0  0  0  0  0  0
  -36.0821   -9.8422  -12.1980 C   0  0  2  0  0  0  0  0  0  0  0  0
  -31.3270  -15.0377   -7.9051 C   0  0  2  0  0  0  0  0  0  0  0  0
  -31.2281  -16.3258   -8.6071 N   0  0  0  0  0  0  0  0  0  0  0  0
  -36.8158  -13.5579   -9.1132 C   0  0  0  0  0  0  0  0  0  0  0  0
  -34.7219   -9.0817  -12.0576 C   0  0  2  0  0  0  0  0  0  0  0  0
  -33.8153   -9.6352  -12.9820 O   0  0  0  0  0  0  0  0  0  0  0  0
  -32.3014  -15.1436   -6.6657 C   0  0  0  0  0  0  0  0  0  0  0  0
  -35.5087  -14.4721   -9.1284 C   0  0  2  0  0  0  0  0  0  0  0  0
  -35.3893  -15.1781   -7.8343 N   0  0  0  0  0  0  0  0  0  0  0  0
  -34.1909   -9.2268  -10.5709 C   0  0  1  0  0  0  0  0  0  0  0  0
  -32.8784   -8.5029  -10.4168 N   0  0  0  0  0  0  0  0  0  0  0  0
  -32.8227  -13.7268   -6.1829 C   0  0  0  0  0  0  0  0  0  0  0  0
  -34.2397  -13.5518   -9.3559 C   0  0  2  0  0  0  0  0  0  0  0  0
  -35.2775   -8.5731   -9.5513 C   0  0  1  0  0  0  0  0  0  0  0  0
  -35.4960   -7.1957   -9.7797 O   0  0  0  0  0  0  0  0  0  0  0  0
  -32.6363  -12.6203   -6.9376 C   0  0  2  0  0  0  0  0  0  0  0  0
  -31.9644  -12.6555   -8.2010 O   0  0  0  0  0  0  0  0  0  0  0  0
  -34.3757  -12.8043  -10.7453 C   0  0  2  0  0  0  0  0  0  0  0  0
  -33.2264  -11.9636  -10.9406 O   0  0  0  0  0  0  0  0  0  0  0  0
  -36.6388   -9.3255   -9.7239 C   0  0  0  0  0  0  0  0  0  0  0  0
  -37.0756   -9.2987  -11.1874 O   0  0  0  0  0  0  0  0  0  0  0  0
  -33.1228  -11.2382   -6.5037 C   0  0  0  0  0  0  0  0  0  0  0  0
  -31.9941  -10.3505   -6.5024 O   0  0  0  0  0  0  0  0  0  0  0  0
  -35.6699  -11.8975  -10.7355 C   0  0  1  0  0  0  0  0  0  0  0  0
  -35.7631  -11.2575  -11.9966 O   0  0  0  0  0  0  0  0  0  0  0  0
  -34.8939   -8.6608   -8.0586 C   0  0  0  0  0  0  0  0  0  0  0  0
  -32.8386   -7.1060  -10.8953 C   0  0  0  0  0  0  0  0  0  0  0  0
  1  2  1  1  0  0  0
  1  6  1  0  0  0  0
  1 21  1  0  0  0  0
  3  4  1  1  0  0  0
  3  8  1  0  0  0  0
  3 28  1  0  0  0  0
  5  9  1  0  0  0  0
  5 25  1  0  0  0  0
  5 29  1  1  0  0  0
  6  7  1  6  0  0  0
  6 11  1  0  0  0  0
  8 12  1  0  0  0  0
  9 10  1  6  0  0  0
  9 14  1  0  0  0  0
 11 16  1  0  0  0  0
 12 13  1  1  0  0  0
 12 17  1  0  0  0  0
 14 15  1  6  0  0  0
 14 18  1  0  0  0  0
 15 31  1  0  0  0  0
 16 20  1  0  0  0  0
 17  2  1  6  0  0  0
 17 22  1  0  0  0  0
 18 19  1  6  0  0  0
 18 24  1  0  0  0  0
 18 30  1  0  0  0  0
 20 21  1  0  0  0  0
 20 26  1  1  0  0  0
 22 23  1  1  0  0  0
 22 28  1  0  0  0  0
 24 25  1  0  0  0  0
 26 27  1  0  0  0  0
 28 29  1  6  0  0  0
M  END
>  <CHROM.1>
129.66412422,84.82929400,50.58391719,-148.22286693,123.92221599,106.27919463
-34.25243532,-11.60758683,-9.49819325,-1.07800404,-0.62971949,-0.21559991

>  <Name>
ligand

>  <RI>
0

>  <Rbt.Current_Directory>
/home/itssahil/PROJECTS/Mol_Feturizer/New_Systems/rnas/4GPW

>  <Rbt.Executable>
rbdock ($Id: //depot/dev/client3/rdock/2013.1/src/exe/rbdock.cxx#4 $)

>  <Rbt.Library>
libRbt.so (2013.1, Build901 2013/11/27)

>  <Rbt.Parameter_File>
/export/apps/rDock/src/rDock_2013.1_src/data/scripts/dock_solv.prm

>  <Rbt.Receptor>
prm/blind_docking_80.prm

>  <SCORE>
29.7261

>  <SCORE.INTER>
6.49834

>  <SCORE.INTER.CONST>
1

>  <SCORE.INTER.POLAR>
0

>  <SCORE.INTER.ROT>
6

>  <SCORE.INTER.SOLV>
14.4268

>  <SCORE.INTER.VDW>
-8.07672

>  <SCORE.INTER.norm>
0.209624

>  <SCORE.INTRA>
3.86931

>  <SCORE.INTRA.DIHEDRAL>
2.13496

>  <SCORE.INTRA.DIHEDRAL.0>
19.2558

>  <SCORE.INTRA.POLAR>
0

>  <SCORE.INTRA.POLAR.0>
0

>  <SCORE.INTRA.REPUL>
0

>  <SCORE.INTRA.REPUL.0>
0

>  <SCORE.INTRA.SOLV>
2.24894

>  <SCORE.INTRA.SOLV.lig_0>
-64.5929

>  <SCORE.INTRA.VDW>
1.67736

>  <SCORE.INTRA.VDW.0>
-4.40538

>  <SCORE.INTRA.norm>
0.124816

>  <SCORE.RESTR>
19.3585

>  <SCORE.RESTR.CAVITY>
19.3585

>  <SCORE.RESTR.norm>
0.624467

>  <SCORE.SYSTEM>
0

>  <SCORE.SYSTEM.CONST>
0

>  <SCORE.SYSTEM.DIHEDRAL>
0

>  <SCORE.SYSTEM.SOLV>
0

>  <SCORE.SYSTEM.norm>
0

>  <SCORE.heavy>
31

>  <SCORE.norm>
0.958907

>  <RMSD>
13.739

$$$$
ligand
 OpenBabel11021811493D
libRbt.so/2013.1/901 2013/11/27
 31 33  0  0  0  0  0  0  0  0999 V2000
  -32.3913  -14.3311   -7.3698 C   0  0  2  0  0  0  0  0  0  0  0  0
  -31.9236  -13.2306   -8.1359 O   0  0  0  0  0  0  0  0  0  0  0  0
  -35.0085  -10.3694   -7.4494 C   0  0  2  0  0  0  0  0  0  0  0  0
  -35.6834   -9.1127   -7.3990 N   0  0  0  0  0  0  0  0  0  0  0  0
  -36.3348   -9.7760  -10.6157 C   0  0  2  0  0  0  0  0  0  0  0  0
  -31.8770  -15.6470   -8.0883 C   0  0  2  0  0  0  0  0  0  0  0  0
  -30.4084  -15.6205   -8.1546 N   0  0  0  0  0  0  0  0  0  0  0  0
  -33.6875  -10.2657   -6.5696 C   0  0  0  0  0  0  0  0  0  0  0  0
  -35.3534   -9.7537  -11.8342 C   0  0  2  0  0  0  0  0  0  0  0  0
  -35.2956  -11.0539  -12.3715 O   0  0  0  0  0  0  0  0  0  0  0  0
  -32.5055  -15.7469   -9.5345 C   0  0  0  0  0  0  0  0  0  0  0  0
  -32.9356  -11.6716   -6.6194 C   0  0  2  0  0  0  0  0  0  0  0  0
  -31.7051  -11.5986   -5.8021 N   0  0  0  0  0  0  0  0  0  0  0  0
  -33.9254   -9.2658  -11.3485 C   0  0  1  0  0  0  0  0  0  0  0  0
  -32.9644   -9.2411  -12.5088 N   0  0  0  0  0  0  0  0  0  0  0  0
  -34.0238  -15.2928   -9.5673 C   0  0  0  0  0  0  0  0  0  0  0  0
  -32.5615  -12.0021   -8.1228 C   0  0  2  0  0  0  0  0  0  0  0  0
  -34.0552   -7.7632  -10.7380 C   0  0  1  0  0  0  0  0  0  0  0  0
  -34.5163   -6.8175  -11.6816 O   0  0  0  0  0  0  0  0  0  0  0  0
  -34.5850  -14.6570   -8.5139 C   0  0  2  0  0  0  0  0  0  0  0  0
  -33.8563  -14.3592   -7.3184 O   0  0  0  0  0  0  0  0  0  0  0  0
  -33.8857  -12.0822   -8.9877 C   0  0  2  0  0  0  0  0  0  0  0  0
  -33.5385  -12.3722  -10.3519 O   0  0  0  0  0  0  0  0  0  0  0  0
  -35.0606   -7.7972   -9.5393 C   0  0  0  0  0  0  0  0  0  0  0  0
  -36.3932   -8.3971   -9.9841 O   0  0  0  0  0  0  0  0  0  0  0  0
  -36.0452  -14.2068   -8.5087 C   0  0  0  0  0  0  0  0  0  0  0  0
  -36.1112  -12.9215   -7.8717 O   0  0  0  0  0  0  0  0  0  0  0  0
  -34.6348  -10.6916   -8.9410 C   0  0  1  0  0  0  0  0  0  0  0  0
  -35.8172  -10.8074   -9.7136 O   0  0  0  0  0  0  0  0  0  0  0  0
  -32.7336   -7.1670  -10.2081 C   0  0  0  0  0  0  0  0  0  0  0  0
  -33.4498   -8.6045  -13.7501 C   0  0  0  0  0  0  0  0  0  0  0  0
  1  2  1  6  0  0  0
  1  6  1  0  0  0  0
  1 21  1  0  0  0  0
  3  4  1  6  0  0  0
  3  8  1  0  0  0  0
  3 28  1  0  0  0  0
  5  9  1  0  0  0  0
  5 25  1  0  0  0  0
  5 29  1  1  0  0  0
  6  7  1  6  0  0  0
  6 11  1  0  0  0  0
  8 12  1  0  0  0  0
  9 10  1  1  0  0  0
  9 14  1  0  0  0  0
 11 16  1  0  0  0  0
 12 13  1  1  0  0  0
 12 17  1  0  0  0  0
 14 15  1  6  0  0  0
 14 18  1  0  0  0  0
 15 31  1  0  0  0  0
 16 20  1  0  0  0  0
 17  2  1  1  0  0  0
 17 22  1  0  0  0  0
 18 19  1  6  0  0  0
 18 24  1  0  0  0  0
 18 30  1  0  0  0  0
 20 21  1  0  0  0  0
 20 26  1  1  0  0  0
 22 23  1  6  0  0  0
 22 28  1  0  0  0  0
 24 25  1  0  0  0  0
 26 27  1  0  0  0  0
 28 29  1  6  0  0  0
M  END
>  <CHROM.1>
155.16401381,71.27079017,47.00117230,43.18905814,-140.55433203,102.25192082
-33.99807169,-11.35911447,-9.30720236,0.54538712,-1.27476453,1.65662732

>  <Name>
ligand

>  <RI>
0

>  <Rbt.Current_Directory>
/home/itssahil/PROJECTS/Mol_Feturizer/New_Systems/rnas/4GPW

>  <Rbt.Executable>
rbdock ($Id: //depot/dev/client3/rdock/2013.1/src/exe/rbdock.cxx#4 $)

>  <Rbt.Library>
libRbt.so (2013.1, Build901 2013/11/27)

>  <Rbt.Parameter_File>
/export/apps/rDock/src/rDock_2013.1_src/data/scripts/dock_solv.prm

>  <Rbt.Receptor>
prm/blind_docking_80.prm

>  <SCORE>
36.7303

>  <SCORE.INTER>
8.41847

>  <SCORE.INTER.CONST>
1

>  <SCORE.INTER.POLAR>
0

>  <SCORE.INTER.ROT>
6

>  <SCORE.INTER.SOLV>
18.4438

>  <SCORE.INTER.VDW>
-8.13562

>  <SCORE.INTER.norm>
0.271564

>  <SCORE.INTRA>
6.93409

>  <SCORE.INTRA.DIHEDRAL>
-6.63009

>  <SCORE.INTRA.DIHEDRAL.0>
19.2558

>  <SCORE.INTRA.POLAR>
0

>  <SCORE.INTRA.POLAR.0>
0

>  <SCORE.INTRA.REPUL>
0

>  <SCORE.INTRA.REPUL.0>
0

>  <SCORE.INTRA.SOLV>
3.83132

>  <SCORE.INTRA.SOLV.lig_0>
-64.5929

>  <SCORE.INTRA.VDW>
8.33347

>  <SCORE.INTRA.VDW.0>
-4.40538

>  <SCORE.INTRA.norm>
0.22368

>  <SCORE.RESTR>
21.3777

>  <SCORE.RESTR.CAVITY>
21.3777

>  <SCORE.RESTR.norm>
0.689603

>  <SCORE.SYSTEM>
0

>  <SCORE.SYSTEM.CONST>
0

>  <SCORE.SYSTEM.DIHEDRAL>
0

>  <SCORE.SYSTEM.SOLV>
0

>  <SCORE.SYSTEM.norm>
0

>  <SCORE.heavy>
31

>  <SCORE.norm>
1.18485

>  <RMSD>
13.747

$$$$
ligand
 OpenBabel11021811493D
libRbt.so/2013.1/901 2013/11/27
 31 33  0  0  0  0  0  0  0  0999 V2000
  -31.9192  -13.8961   -8.9511 C   0  0  2  0  0  0  0  0  0  0  0  0
  -33.1969  -14.3101   -9.4122 O   0  0  0  0  0  0  0  0  0  0  0  0
  -36.9424  -12.6530  -10.5952 C   0  0  2  0  0  0  0  0  0  0  0  0
  -38.0957  -11.8121  -10.5944 N   0  0  0  0  0  0  0  0  0  0  0  0
  -36.0140   -9.6945  -12.2465 C   0  0  2  0  0  0  0  0  0  0  0  0
  -31.3948  -15.0228   -7.9673 C   0  0  2  0  0  0  0  0  0  0  0  0
  -31.3198  -16.3009   -8.6904 N   0  0  0  0  0  0  0  0  0  0  0  0
  -36.8706  -13.4083   -9.1973 C   0  0  0  0  0  0  0  0  0  0  0  0
  -34.6494   -8.9532  -12.0554 C   0  0  2  0  0  0  0  0  0  0  0  0
  -33.7209   -9.5096  -12.9560 O   0  0  0  0  0  0  0  0  0  0  0  0
  -32.3592  -15.1353   -6.7208 C   0  0  0  0  0  0  0  0  0  0  0  0
  -35.5859  -14.3538   -9.1992 C   0  0  2  0  0  0  0  0  0  0  0  0
  -35.5029  -15.0707   -7.9083 N   0  0  0  0  0  0  0  0  0  0  0  0
  -34.1680   -9.1193  -10.5542 C   0  0  1  0  0  0  0  0  0  0  0  0
  -32.8519   -8.4141  -10.3513 N   0  0  0  0  0  0  0  0  0  0  0  0
  -32.8568  -13.7194   -6.2109 C   0  0  0  0  0  0  0  0  0  0  0  0
  -34.2918  -13.4630   -9.4017 C   0  0  2  0  0  0  0  0  0  0  0  0
  -35.2781   -8.4613   -9.5632 C   0  0  1  0  0  0  0  0  0  0  0  0
  -35.4717   -7.0790   -9.7847 O   0  0  0  0  0  0  0  0  0  0  0  0
  -32.6623  -12.6037   -6.9498 C   0  0  2  0  0  0  0  0  0  0  0  0
  -32.0025  -12.6279   -8.2199 O   0  0  0  0  0  0  0  0  0  0  0  0
  -34.3888  -12.7036  -10.7879 C   0  0  2  0  0  0  0  0  0  0  0  0
  -33.2168  -11.8898  -10.9605 O   0  0  0  0  0  0  0  0  0  0  0  0
  -36.6427   -9.1943   -9.7864 C   0  0  0  0  0  0  0  0  0  0  0  0
  -37.0322   -9.1478  -11.2627 O   0  0  0  0  0  0  0  0  0  0  0  0
  -33.1260  -11.2223   -6.4898 C   0  0  0  0  0  0  0  0  0  0  0  0
  -31.9875  -10.3472   -6.4953 O   0  0  0  0  0  0  0  0  0  0  0  0
  -35.6607  -11.7659  -10.7912 C   0  0  1  0  0  0  0  0  0  0  0  0
  -35.7196  -11.1158  -12.0492 O   0  0  0  0  0  0  0  0  0  0  0  0
  -34.9435   -8.5682   -8.0600 C   0  0  0  0  0  0  0  0  0  0  0  0
  -32.7952   -6.9975  -10.7655 C   0  0  0  0  0  0  0  0  0  0  0  0
  1  2  1  1  0  0  0
  1  6  1  0  0  0  0
  1 21  1  0  0  0  0
  3  4  1  1  0  0  0
  3  8  1  0  0  0  0
  3 28  1  0  0  0  0
  5  9  1  0  0  0  0
  5 25  1  0  0  0  0
  5 29  1  1  0  0  0
  6  7  1  6  0  0  0
  6 11  1  0  0  0  0
  8 12  1  0  0  0  0
  9 10  1  6  0  0  0
  9 14  1  0  0  0  0
 11 16  1  0  0  0  0
 12 13  1  1  0  0  0
 12 17  1  0  0  0  0
 14 15  1  6  0  0  0
 14 18  1  0  0  0  0
 15 31  1  0  0  0  0
 16 20  1  0  0  0  0
 17  2  1  6  0  0  0
 17 22  1  0  0  0  0
 18 19  1  6  0  0  0
 18 24  1  0  0  0  0
 18 30  1  0  0  0  0
 20 21  1  0  0  0  0
 20 26  1  1  0  0  0
 22 23  1  1  0  0  0
 22 28  1  0  0  0  0
 24 25  1  0  0  0  0
 26 27  1  0  0  0  0
 28 29  1  6  0  0  0
M  END
>  <CHROM.1>
131.48851976,84.11871312,52.91446543,-149.60977589,124.37368664,105.65983216
-34.26325321,-11.51785685,-9.52620542,-1.09072628,-0.63869526,-0.20880582

>  <Name>
ligand

>  <RI>
0

>  <Rbt.Current_Directory>
/home/itssahil/PROJECTS/Mol_Feturizer/New_Systems/rnas/4GPW

>  <Rbt.Executable>
rbdock ($Id: //depot/dev/client3/rdock/2013.1/src/exe/rbdock.cxx#4 $)

>  <Rbt.Library>
libRbt.so (2013.1, Build901 2013/11/27)

>  <Rbt.Parameter_File>
/export/apps/rDock/src/rDock_2013.1_src/data/scripts/dock_solv.prm

>  <Rbt.Receptor>
prm/blind_docking_80.prm

>  <SCORE>
29.2874

>  <SCORE.INTER>
6.27024

>  <SCORE.INTER.CONST>
1

>  <SCORE.INTER.POLAR>
0

>  <SCORE.INTER.ROT>
6

>  <SCORE.INTER.SOLV>
14.3705

>  <SCORE.INTER.VDW>
-8.21002

>  <SCORE.INTER.norm>
0.202266

>  <SCORE.INTRA>
3.51417

>  <SCORE.INTRA.DIHEDRAL>
1.46159

>  <SCORE.INTRA.DIHEDRAL.0>
19.2558

>  <SCORE.INTRA.POLAR>
0

>  <SCORE.INTRA.POLAR.0>
0

>  <SCORE.INTRA.REPUL>
0

>  <SCORE.INTRA.REPUL.0>
0

>  <SCORE.INTRA.SOLV>
2.11882

>  <SCORE.INTRA.SOLV.lig_0>
-64.5929

>  <SCORE.INTRA.VDW>
1.72397

>  <SCORE.INTRA.VDW.0>
-4.40538

>  <SCORE.INTRA.norm>
0.11336

>  <SCORE.RESTR>
19.503

>  <SCORE.RESTR.CAVITY>
19.503

>  <SCORE.RESTR.norm>
0.62913

>  <SCORE.SYSTEM>
0

>  <SCORE.SYSTEM.CONST>
0

>  <SCORE.SYSTEM.DIHEDRAL>
0

>  <SCORE.SYSTEM.SOLV>
0

>  <SCORE.SYSTEM.norm>
0

>  <SCORE.heavy>
31

>  <SCORE.norm>
0.944756

>  <RMSD>
13.762

$$$$
ligand
 OpenBabel11021811493D
libRbt.so/2013.1/901 2013/11/27
 31 33  0  0  0  0  0  0  0  0999 V2000
  -33.2702  -14.3829   -6.7200 C   0  0  2  0  0  0  0  0  0  0  0  0
  -32.4680  -13.3195   -6.2279 O   0  0  0  0  0  0  0  0  0  0  0  0
  -34.9939   -9.9750   -7.0081 C   0  0  2  0  0  0  0  0  0  0  0  0
  -35.5002   -8.6410   -6.9717 N   0  0  0  0  0  0  0  0  0  0  0  0
  -32.9895  -10.1380  -10.1221 C   0  0  2  0  0  0  0  0  0  0  0  0
  -32.7155  -15.7190   -6.0724 C   0  0  2  0  0  0  0  0  0  0  0  0
  -32.7941  -15.6165   -4.6077 N   0  0  0  0  0  0  0  0  0  0  0  0
  -34.9308  -10.5291   -5.5185 C   0  0  0  0  0  0  0  0  0  0  0  0
  -33.5407   -9.3884  -11.3800 C   0  0  2  0  0  0  0  0  0  0  0  0
  -33.2592   -8.0171  -11.2286 O   0  0  0  0  0  0  0  0  0  0  0  0
  -31.2267  -15.9628   -6.5420 C   0  0  0  0  0  0  0  0  0  0  0  0
  -34.3714  -12.0223   -5.5581 C   0  0  2  0  0  0  0  0  0  0  0  0
  -34.3097  -12.5593   -4.1815 N   0  0  0  0  0  0  0  0  0  0  0  0
  -35.0999   -9.6473  -11.5034 C   0  0  1  0  0  0  0  0  0  0  0  0
  -35.6502   -8.9295  -12.7086 N   0  0  0  0  0  0  0  0  0  0  0  0
  -31.0061  -15.5972   -8.0685 C   0  0  0  0  0  0  0  0  0  0  0  0
  -32.9210  -12.0118   -6.1948 C   0  0  2  0  0  0  0  0  0  0  0  0
  -35.3626  -11.2439  -11.6739 C   0  0  1  0  0  0  0  0  0  0  0  0
  -34.7605  -11.7861  -12.8319 O   0  0  0  0  0  0  0  0  0  0  0  0
  -31.9433  -14.9154   -8.7653 C   0  0  2  0  0  0  0  0  0  0  0  0
  -33.1775  -14.4881   -8.1796 O   0  0  0  0  0  0  0  0  0  0  0  0
  -32.9992  -11.4395   -7.6693 C   0  0  2  0  0  0  0  0  0  0  0  0
  -31.6790  -11.4232   -8.2372 O   0  0  0  0  0  0  0  0  0  0  0  0
  -34.7811  -11.9814  -10.4221 C   0  0  0  0  0  0  0  0  0  0  0  0
  -33.3099  -11.6176  -10.2306 O   0  0  0  0  0  0  0  0  0  0  0  0
  -31.7664  -14.5476  -10.2379 C   0  0  0  0  0  0  0  0  0  0  0  0
  -32.9845  -13.9380  -10.6926 O   0  0  0  0  0  0  0  0  0  0  0  0
  -33.5535   -9.9601   -7.6355 C   0  0  1  0  0  0  0  0  0  0  0  0
  -33.6207   -9.4892   -8.9705 O   0  0  0  0  0  0  0  0  0  0  0  0
  -36.8493  -11.6433  -11.7888 C   0  0  0  0  0  0  0  0  0  0  0  0
  -37.0020   -8.3512  -12.5681 C   0  0  0  0  0  0  0  0  0  0  0  0
  1  2  1  1  0  0  0
  1  6  1  0  0  0  0
  1 21  1  0  0  0  0
  3  4  1  1  0  0  0
  3  8  1  0  0  0  0
  3 28  1  0  0  0  0
  5  9  1  0  0  0  0
  5 25  1  0  0  0  0
  5 29  1  1  0  0  0
  6  7  1  1  0  0  0
  6 11  1  0  0  0  0
  8 12  1  0  0  0  0
  9 10  1  1  0  0  0
  9 14  1  0  0  0  0
 11 16  1  0  0  0  0
 12 13  1  1  0  0  0
 12 17  1  0  0  0  0
 14 15  1  6  0  0  0
 14 18  1  0  0  0  0
 15 31  1  0  0  0  0
 16 20  1  0  0  0  0
 17  2  1  6  0  0  0
 17 22  1  0  0  0  0
 18 19  1  6  0  0  0
 18 24  1  0  0  0  0
 18 30  1  0  0  0  0
 20 21  1  0  0  0  0
 20 26  1  6  0  0  0
 22 23  1  1  0  0  0
 22 28  1  0  0  0  0
 24 25  1  0  0  0  0
 26 27  1  0  0  0  0
 28 29  1  6  0  0  0
M  END
>  <CHROM.1>
-156.98508624,170.90124156,-143.47754766,47.68017355,175.03232956,-131.58580932
-33.69716700,-11.90449062,-8.77634271,-0.66953059,1.12182636,-1.66493538

>  <Name>
ligand

>  <RI>
0

>  <Rbt.Current_Directory>
/home/itssahil/PROJECTS/Mol_Feturizer/New_Systems/rnas/4GPW

>  <Rbt.Executable>
rbdock ($Id: //depot/dev/client3/rdock/2013.1/src/exe/rbdock.cxx#4 $)

>  <Rbt.Library>
libRbt.so (2013.1, Build901 2013/11/27)

>  <Rbt.Parameter_File>
/export/apps/rDock/src/rDock_2013.1_src/data/scripts/dock_solv.prm

>  <Rbt.Receptor>
prm/blind_docking_80.prm

>  <SCORE>
39.5656

>  <SCORE.INTER>
10.6165

>  <SCORE.INTER.CONST>
1

>  <SCORE.INTER.POLAR>
0

>  <SCORE.INTER.ROT>
6

>  <SCORE.INTER.SOLV>
10.9019

>  <SCORE.INTER.VDW>
-4.15629

>  <SCORE.INTER.norm>
0.342469

>  <SCORE.INTRA>
4.07

>  <SCORE.INTRA.DIHEDRAL>
-4.89617

>  <SCORE.INTRA.DIHEDRAL.0>
19.2558

>  <SCORE.INTRA.POLAR>
0

>  <SCORE.INTRA.POLAR.0>
0

>  <SCORE.INTRA.REPUL>
0.0326626

>  <SCORE.INTRA.REPUL.0>
0

>  <SCORE.INTRA.SOLV>
0.407229

>  <SCORE.INTRA.SOLV.lig_0>
-64.5929

>  <SCORE.INTRA.VDW>
6.15116

>  <SCORE.INTRA.VDW.0>
-4.40538

>  <SCORE.INTRA.norm>
0.13129

>  <SCORE.RESTR>
24.8791

>  <SCORE.RESTR.CAVITY>
24.8791

>  <SCORE.RESTR.norm>
0.802551

>  <SCORE.SYSTEM>
0

>  <SCORE.SYSTEM.CONST>
0

>  <SCORE.SYSTEM.DIHEDRAL>
0

>  <SCORE.SYSTEM.SOLV>
0

>  <SCORE.SYSTEM.norm>
0

>  <SCORE.heavy>
31

>  <SCORE.norm>
1.27631

>  <RMSD>
13.791

$$$$
ligand
 OpenBabel11021811493D
libRbt.so/2013.1/901 2013/11/27
 31 33  0  0  0  0  0  0  0  0999 V2000
  -32.1943  -13.8781   -9.0093 C   0  0  2  0  0  0  0  0  0  0  0  0
  -33.5518  -14.2933   -8.9753 O   0  0  0  0  0  0  0  0  0  0  0  0
  -37.1261  -12.5524  -10.5143 C   0  0  2  0  0  0  0  0  0  0  0  0
  -38.2304  -11.6583  -10.6498 N   0  0  0  0  0  0  0  0  0  0  0  0
  -35.9935   -9.7918  -12.3284 C   0  0  2  0  0  0  0  0  0  0  0  0
  -31.3518  -14.9882   -8.2542 C   0  0  2  0  0  0  0  0  0  0  0  0
  -31.5381  -16.2809   -8.9296 N   0  0  0  0  0  0  0  0  0  0  0  0
  -37.1778  -13.1980   -9.0615 C   0  0  0  0  0  0  0  0  0  0  0  0
  -34.6211   -9.0627  -12.1469 C   0  0  2  0  0  0  0  0  0  0  0  0
  -33.6718   -9.7114  -12.9599 O   0  0  0  0  0  0  0  0  0  0  0  0
  -31.8076  -15.0698   -6.7435 C   0  0  0  0  0  0  0  0  0  0  0  0
  -35.9481  -14.2026   -8.9109 C   0  0  2  0  0  0  0  0  0  0  0  0
  -35.9804  -14.8190   -7.5669 N   0  0  0  0  0  0  0  0  0  0  0  0
  -34.2006   -9.1091  -10.6191 C   0  0  1  0  0  0  0  0  0  0  0  0
  -32.8778   -8.4141  -10.4248 N   0  0  0  0  0  0  0  0  0  0  0  0
  -32.0923  -13.6409   -6.1193 C   0  0  0  0  0  0  0  0  0  0  0  0
  -34.5982  -13.3952   -9.0980 C   0  0  2  0  0  0  0  0  0  0  0  0
  -35.3325   -8.3481   -9.7320 C   0  0  1  0  0  0  0  0  0  0  0  0
  -35.4869   -6.9864  -10.0771 O   0  0  0  0  0  0  0  0  0  0  0  0
  -32.1759  -12.5414   -6.9021 C   0  0  2  0  0  0  0  0  0  0  0  0
  -32.0128  -12.5951   -8.3232 O   0  0  0  0  0  0  0  0  0  0  0  0
  -34.5720  -12.7434  -10.5410 C   0  0  2  0  0  0  0  0  0  0  0  0
  -33.3496  -12.0044  -10.7002 O   0  0  0  0  0  0  0  0  0  0  0  0
  -36.7035   -9.0716   -9.9462 C   0  0  0  0  0  0  0  0  0  0  0  0
  -37.0358   -9.1440  -11.4354 O   0  0  0  0  0  0  0  0  0  0  0  0
  -32.4467  -11.1483   -6.3358 C   0  0  0  0  0  0  0  0  0  0  0  0
  -33.6105  -10.6210   -6.9914 O   0  0  0  0  0  0  0  0  0  0  0  0
  -35.7891  -11.7475  -10.6954 C   0  0  1  0  0  0  0  0  0  0  0  0
  -35.7384  -11.1963  -12.0001 O   0  0  0  0  0  0  0  0  0  0  0  0
  -35.0573   -8.3326   -8.2131 C   0  0  0  0  0  0  0  0  0  0  0  0
  -32.7740   -7.0395  -10.9551 C   0  0  0  0  0  0  0  0  0  0  0  0
  1  2  1  1  0  0  0
  1  6  1  0  0  0  0
  1 21  1  0  0  0  0
  3  4  1  1  0  0  0
  3  8  1  0  0  0  0
  3 28  1  0  0  0  0
  5  9  1  0  0  0  0
  5 25  1  0  0  0  0
  5 29  1  1  0  0  0
  6  7  1  6  0  0  0
  6 11  1  0  0  0  0
  8 12  1  0  0  0  0
  9 10  1  6  0  0  0
  9 14  1  0  0  0  0
 11 16  1  0  0  0  0
 12 13  1  1  0  0  0
 12 17  1  0  0  0  0
 14 15  1  6  0  0  0
 14 18  1  0  0  0  0
 15 31  1  0  0  0  0
 16 20  1  0  0  0  0
 17  2  1  6  0  0  0
 17 22  1  0  0  0  0
 18 19  1  6  0  0  0
 18 24  1  0  0  0  0
 18 30  1  0  0  0  0
 20 21  1  0  0  0  0
 20 26  1  1  0  0  0
 22 23  1  1  0  0  0
 22 28  1  0  0  0  0
 24 25  1  0  0  0  0
 26 27  1  0  0  0  0
 28 29  1  6  0  0  0
M  END
>  <CHROM.1>
156.50089664,86.53304787,52.89726047,-176.04074859,-123.85080811,103.21283853
-34.34653538,-11.48968150,-9.53456175,-1.10386322,-0.52526089,-0.28489905

>  <Name>
ligand

>  <RI>
0

>  <Rbt.Current_Directory>
/home/itssahil/PROJECTS/Mol_Feturizer/New_Systems/rnas/4GPW

>  <Rbt.Executable>
rbdock ($Id: //depot/dev/client3/rdock/2013.1/src/exe/rbdock.cxx#4 $)

>  <Rbt.Library>
libRbt.so (2013.1, Build901 2013/11/27)

>  <Rbt.Parameter_File>
/export/apps/rDock/src/rDock_2013.1_src/data/scripts/dock_solv.prm

>  <Rbt.Receptor>
prm/blind_docking_80.prm

>  <SCORE>
24.8305

>  <SCORE.INTER>
5.09998

>  <SCORE.INTER.CONST>
1

>  <SCORE.INTER.POLAR>
0

>  <SCORE.INTER.ROT>
6

>  <SCORE.INTER.SOLV>
13.7019

>  <SCORE.INTER.VDW>
-8.76732

>  <SCORE.INTER.norm>
0.164516

>  <SCORE.INTRA>
-0.317635

>  <SCORE.INTRA.DIHEDRAL>
-6.19355

>  <SCORE.INTRA.DIHEDRAL.0>
19.2558

>  <SCORE.INTRA.POLAR>
0

>  <SCORE.INTRA.POLAR.0>
0

>  <SCORE.INTRA.REPUL>
0

>  <SCORE.INTRA.REPUL.0>
0

>  <SCORE.INTRA.SOLV>
0.714149

>  <SCORE.INTRA.SOLV.lig_0>
-64.5929

>  <SCORE.INTRA.VDW>
2.42207

>  <SCORE.INTRA.VDW.0>
-4.40538

>  <SCORE.INTRA.norm>
-0.0102463

>  <SCORE.RESTR>
20.0482

>  <SCORE.RESTR.CAVITY>
20.0482

>  <SCORE.RESTR.norm>
0.646716

>  <SCORE.SYSTEM>
0

>  <SCORE.SYSTEM.CONST>
0

>  <SCORE.SYSTEM.DIHEDRAL>
0

>  <SCORE.SYSTEM.SOLV>
0

>  <SCORE.SYSTEM.norm>
0

>  <SCORE.heavy>
31

>  <SCORE.norm>
0.800985

>  <RMSD>
13.828

$$$$
ligand
 OpenBabel11021811493D
libRbt.so/2013.1/901 2013/11/27
 31 33  0  0  0  0  0  0  0  0999 V2000
  -32.9654  -14.2932   -6.2439 C   0  0  2  0  0  0  0  0  0  0  0  0
  -32.1307  -13.1553   -6.0855 O   0  0  0  0  0  0  0  0  0  0  0  0
  -34.7951   -9.9437   -6.9577 C   0  0  2  0  0  0  0  0  0  0  0  0
  -35.3548   -8.6307   -6.9623 N   0  0  0  0  0  0  0  0  0  0  0  0
  -33.1577  -10.3078  -10.1108 C   0  0  2  0  0  0  0  0  0  0  0  0
  -32.0425  -15.5710   -6.0773 C   0  0  2  0  0  0  0  0  0  0  0  0
  -31.4127  -15.5440   -4.7490 N   0  0  0  0  0  0  0  0  0  0  0  0
  -34.6995  -10.4436   -5.4507 C   0  0  0  0  0  0  0  0  0  0  0  0
  -33.5969   -9.4674  -11.3555 C   0  0  2  0  0  0  0  0  0  0  0  0
  -32.9212   -8.2330  -11.3087 O   0  0  0  0  0  0  0  0  0  0  0  0
  -30.9507  -15.5943   -7.2192 C   0  0  0  0  0  0  0  0  0  0  0  0
  -34.0804  -11.9136   -5.4443 C   0  0  2  0  0  0  0  0  0  0  0  0
  -33.9876  -12.4003   -4.0508 N   0  0  0  0  0  0  0  0  0  0  0  0
  -35.1691   -9.2664  -11.3242 C   0  0  1  0  0  0  0  0  0  0  0  0
  -35.6111   -8.4553  -12.5147 N   0  0  0  0  0  0  0  0  0  0  0  0
  -31.5313  -15.1362   -8.6212 C   0  0  0  0  0  0  0  0  0  0  0  0
  -32.6361  -11.8666   -6.0930 C   0  0  2  0  0  0  0  0  0  0  0  0
  -35.8933  -10.7224  -11.3787 C   0  0  1  0  0  0  0  0  0  0  0  0
  -35.5927  -11.4494  -12.5528 O   0  0  0  0  0  0  0  0  0  0  0  0
  -32.7486  -14.5549   -8.7161 C   0  0  2  0  0  0  0  0  0  0  0  0
  -33.5802  -14.3211   -7.5747 O   0  0  0  0  0  0  0  0  0  0  0  0
  -32.7474  -11.3486   -7.5853 C   0  0  2  0  0  0  0  0  0  0  0  0
  -31.4329  -11.2987   -8.1643 O   0  0  0  0  0  0  0  0  0  0  0  0
  -35.4224  -11.5600  -10.1436 C   0  0  0  0  0  0  0  0  0  0  0  0
  -33.8971  -11.6333  -10.1052 O   0  0  0  0  0  0  0  0  0  0  0  0
  -33.3414  -14.1027  -10.0499 C   0  0  0  0  0  0  0  0  0  0  0  0
  -34.7669  -14.2608   -9.9786 O   0  0  0  0  0  0  0  0  0  0  0  0
  -33.3609   -9.8923   -7.5970 C   0  0  1  0  0  0  0  0  0  0  0  0
  -33.4563   -9.4705   -8.9466 O   0  0  0  0  0  0  0  0  0  0  0  0
  -37.4358  -10.6764  -11.3374 C   0  0  0  0  0  0  0  0  0  0  0  0
  -35.0339   -8.8362  -13.8199 C   0  0  0  0  0  0  0  0  0  0  0  0
  1  2  1  6  0  0  0
  1  6  1  0  0  0  0
  1 21  1  0  0  0  0
  3  4  1  1  0  0  0
  3  8  1  0  0  0  0
  3 28  1  0  0  0  0
  5  9  1  0  0  0  0
  5 25  1  0  0  0  0
  5 29  1  1  0  0  0
  6  7  1  1  0  0  0
  6 11  1  0  0  0  0
  8 12  1  0  0  0  0
  9 10  1  1  0  0  0
  9 14  1  0  0  0  0
 11 16  1  0  0  0  0
 12 13  1  1  0  0  0
 12 17  1  0  0  0  0
 14 15  1  6  0  0  0
 14 18  1  0  0  0  0
 15 31  1  0  0  0  0
 16 20  1  0  0  0  0
 17  2  1  6  0  0  0
 17 22  1  0  0  0  0
 18 19  1  6  0  0  0
 18 24  1  0  0  0  0
 18 30  1  0  0  0  0
 20 21  1  0  0  0  0
 20 26  1  6  0  0  0
 22 23  1  1  0  0  0
 22 28  1  0  0  0  0
 24 25  1  0  0  0  0
 26 27  1  0  0  0  0
 28 29  1  6  0  0  0
M  END
>  <CHROM.1>
-176.07186693,172.43899312,45.41198048,33.31339255,147.53309968,-112.73838221
-33.73470339,-11.74992254,-8.70987152,-0.33558116,1.18978294,-2.08700448

>  <Name>
ligand

>  <RI>
0

>  <Rbt.Current_Directory>
/home/itssahil/PROJECTS/Mol_Feturizer/New_Systems/rnas/4GPW

>  <Rbt.Executable>
rbdock ($Id: //depot/dev/client3/rdock/2013.1/src/exe/rbdock.cxx#4 $)

>  <Rbt.Library>
libRbt.so (2013.1, Build901 2013/11/27)

>  <Rbt.Parameter_File>
/export/apps/rDock/src/rDock_2013.1_src/data/scripts/dock_solv.prm

>  <Rbt.Receptor>
prm/blind_docking_80.prm

>  <SCORE>
36.5468

>  <SCORE.INTER>
7.34728

>  <SCORE.INTER.CONST>
1

>  <SCORE.INTER.POLAR>
0

>  <SCORE.INTER.ROT>
6

>  <SCORE.INTER.SOLV>
9.60276

>  <SCORE.INTER.VDW>
-5.90273

>  <SCORE.INTER.norm>
0.237009

>  <SCORE.INTRA>
4.21972

>  <SCORE.INTRA.DIHEDRAL>
-6.30227

>  <SCORE.INTRA.DIHEDRAL.0>
19.2558

>  <SCORE.INTRA.POLAR>
0

>  <SCORE.INTRA.POLAR.0>
0

>  <SCORE.INTRA.REPUL>
0

>  <SCORE.INTRA.REPUL.0>
0

>  <SCORE.INTRA.SOLV>
-0.376271

>  <SCORE.INTRA.SOLV.lig_0>
-64.5929

>  <SCORE.INTRA.VDW>
7.55899

>  <SCORE.INTRA.VDW.0>
-4.40538

>  <SCORE.INTRA.norm>
0.13612

>  <SCORE.RESTR>
24.9798

>  <SCORE.RESTR.CAVITY>
24.9798

>  <SCORE.RESTR.norm>
0.805801

>  <SCORE.SYSTEM>
0

>  <SCORE.SYSTEM.CONST>
0

>  <SCORE.SYSTEM.DIHEDRAL>
0

>  <SCORE.SYSTEM.SOLV>
0

>  <SCORE.SYSTEM.norm>
0

>  <SCORE.heavy>
31

>  <SCORE.norm>
1.17893

>  <RMSD>
13.841

$$$$
ligand
 OpenBabel11021811493D
libRbt.so/2013.1/901 2013/11/27
 31 33  0  0  0  0  0  0  0  0999 V2000
  -32.2666  -13.8546   -9.1169 C   0  0  2  0  0  0  0  0  0  0  0  0
  -33.6349  -14.2344   -9.1123 O   0  0  0  0  0  0  0  0  0  0  0  0
  -37.0642  -12.3422  -10.7958 C   0  0  2  0  0  0  0  0  0  0  0  0
  -38.1410  -11.4195  -10.9583 N   0  0  0  0  0  0  0  0  0  0  0  0
  -35.7306   -9.5104  -12.3739 C   0  0  2  0  0  0  0  0  0  0  0  0
  -31.4614  -15.0165   -8.3999 C   0  0  2  0  0  0  0  0  0  0  0  0
  -31.6748  -16.2753   -9.1291 N   0  0  0  0  0  0  0  0  0  0  0  0
  -37.2269  -13.0607   -9.3861 C   0  0  0  0  0  0  0  0  0  0  0  0
  -34.3750   -8.8398  -11.9729 C   0  0  2  0  0  0  0  0  0  0  0  0
  -33.3459   -9.4670  -12.7012 O   0  0  0  0  0  0  0  0  0  0  0  0
  -31.9347  -15.1469   -6.8980 C   0  0  0  0  0  0  0  0  0  0  0  0
  -36.0280  -14.0972   -9.2058 C   0  0  2  0  0  0  0  0  0  0  0  0
  -36.1634  -14.7813   -7.9016 N   0  0  0  0  0  0  0  0  0  0  0  0
  -34.1544   -8.9959  -10.4108 C   0  0  1  0  0  0  0  0  0  0  0  0
  -32.8506   -8.3585  -10.0057 N   0  0  0  0  0  0  0  0  0  0  0  0
  -32.1881  -13.7374   -6.2187 C   0  0  0  0  0  0  0  0  0  0  0  0
  -34.6546  -13.3096   -9.2579 C   0  0  2  0  0  0  0  0  0  0  0  0
  -35.3713   -8.2552   -9.6247 C   0  0  1  0  0  0  0  0  0  0  0  0
  -35.4466   -6.8702   -9.8952 O   0  0  0  0  0  0  0  0  0  0  0  0
  -32.2347  -12.6053   -6.9568 C   0  0  2  0  0  0  0  0  0  0  0  0
  -32.0585  -12.6057   -8.3773 O   0  0  0  0  0  0  0  0  0  0  0  0
  -34.5180  -12.5848  -10.6593 C   0  0  2  0  0  0  0  0  0  0  0  0
  -33.2750  -11.8641  -10.6959 O   0  0  0  0  0  0  0  0  0  0  0  0
  -36.7212   -8.9183  -10.0574 C   0  0  0  0  0  0  0  0  0  0  0  0
  -36.8621   -8.8860  -11.5781 O   0  0  0  0  0  0  0  0  0  0  0  0
  -32.4745  -11.2295   -6.3367 C   0  0  0  0  0  0  0  0  0  0  0  0
  -33.5790  -10.6198   -7.0227 O   0  0  0  0  0  0  0  0  0  0  0  0
  -35.7042  -11.5570  -10.8429 C   0  0  1  0  0  0  0  0  0  0  0  0
  -35.5543  -10.9404  -12.1101 O   0  0  0  0  0  0  0  0  0  0  0  0
  -35.2922   -8.3443   -8.0856 C   0  0  0  0  0  0  0  0  0  0  0  0
  -32.7128   -6.9136  -10.2799 C   0  0  0  0  0  0  0  0  0  0  0  0
  1  2  1  1  0  0  0
  1  6  1  0  0  0  0
  1 21  1  0  0  0  0
  3  4  1  1  0  0  0
  3  8  1  0  0  0  0
  3 28  1  0  0  0  0
  5  9  1  0  0  0  0
  5 25  1  0  0  0  0
  5 29  1  1  0  0  0
  6  7  1  6  0  0  0
  6 11  1  0  0  0  0
  8 12  1  0  0  0  0
  9 10  1  6  0  0  0
  9 14  1  0  0  0  0
 11 16  1  0  0  0  0
 12 13  1  1  0  0  0
 12 17  1  0  0  0  0
 14 15  1  1  0  0  0
 14 18  1  0  0  0  0
 15 31  1  0  0  0  0
 16 20  1  0  0  0  0
 17  2  1  6  0  0  0
 17 22  1  0  0  0  0
 18 19  1  6  0  0  0
 18 24  1  0  0  0  0
 18 30  1  0  0  0  0
 20 21  1  0  0  0  0
 20 26  1  1  0  0  0
 22 23  1  1  0  0  0
 22 28  1  0  0  0  0
 24 25  1  0  0  0  0
 26 27  1  0  0  0  0
 28 29  1  6  0  0  0
M  END
>  <CHROM.1>
158.95874495,82.38866634,60.12087822,179.89915652,-126.45255306,104.76118218
-34.33338253,-11.39408493,-9.56964237,-1.10604445,-0.58061642,-0.21006621

>  <Name>
ligand

>  <RI>
0

>  <Rbt.Current_Directory>
/home/itssahil/PROJECTS/Mol_Feturizer/New_Systems/rnas/4GPW

>  <Rbt.Executable>
rbdock ($Id: //depot/dev/client3/rdock/2013.1/src/exe/rbdock.cxx#4 $)

>  <Rbt.Library>
libRbt.so (2013.1, Build901 2013/11/27)

>  <Rbt.Parameter_File>
/export/apps/rDock/src/rDock_2013.1_src/data/scripts/dock_solv.prm

>  <Rbt.Receptor>
prm/blind_docking_80.prm

>  <SCORE>
26.1423

>  <SCORE.INTER>
6.85321

>  <SCORE.INTER.CONST>
1

>  <SCORE.INTER.POLAR>
0

>  <SCORE.INTER.ROT>
6

>  <SCORE.INTER.SOLV>
13.9661

>  <SCORE.INTER.VDW>
-7.68655

>  <SCORE.INTER.norm>
0.221071

>  <SCORE.INTRA>
-0.266347

>  <SCORE.INTRA.DIHEDRAL>
-7.23229

>  <SCORE.INTRA.DIHEDRAL.0>
19.2558

>  <SCORE.INTRA.POLAR>
0

>  <SCORE.INTRA.POLAR.0>
0

>  <SCORE.INTRA.REPUL>
0

>  <SCORE.INTRA.REPUL.0>
0

>  <SCORE.INTRA.SOLV>
0.790849

>  <SCORE.INTRA.SOLV.lig_0>
-64.5929

>  <SCORE.INTRA.VDW>
2.95437

>  <SCORE.INTRA.VDW.0>
-4.40538

>  <SCORE.INTRA.norm>
-0.00859183

>  <SCORE.RESTR>
19.5554

>  <SCORE.RESTR.CAVITY>
19.5554

>  <SCORE.RESTR.norm>
0.63082

>  <SCORE.SYSTEM>
0

>  <SCORE.SYSTEM.CONST>
0

>  <SCORE.SYSTEM.DIHEDRAL>
0

>  <SCORE.SYSTEM.SOLV>
0

>  <SCORE.SYSTEM.norm>
0

>  <SCORE.heavy>
31

>  <SCORE.norm>
0.843299

>  <RMSD>
13.841

$$$$
ligand
 OpenBabel11021811493D
libRbt.so/2013.1/901 2013/11/27
 31 33  0  0  0  0  0  0  0  0999 V2000
  -32.9022  -14.9010   -7.1263 C   0  0  2  0  0  0  0  0  0  0  0  0
  -32.1431  -13.7911   -6.6699 O   0  0  0  0  0  0  0  0  0  0  0  0
  -34.9043  -10.5676   -7.0694 C   0  0  2  0  0  0  0  0  0  0  0  0
  -35.5327   -9.3059   -6.8445 N   0  0  0  0  0  0  0  0  0  0  0  0
  -34.3598   -8.5336   -9.1238 C   0  0  2  0  0  0  0  0  0  0  0  0
  -31.9240  -15.8117   -7.9784 C   0  0  2  0  0  0  0  0  0  0  0  0
  -30.7991  -16.2379   -7.1329 N   0  0  0  0  0  0  0  0  0  0  0  0
  -34.8967  -11.3762   -5.6997 C   0  0  0  0  0  0  0  0  0  0  0  0
  -35.4372   -9.1601  -10.0698 C   0  0  2  0  0  0  0  0  0  0  0  0
  -36.0208  -10.2538   -9.4021 O   0  0  0  0  0  0  0  0  0  0  0  0
  -31.4102  -15.0102   -9.2395 C   0  0  0  0  0  0  0  0  0  0  0  0
  -34.2008  -12.7893   -5.9510 C   0  0  2  0  0  0  0  0  0  0  0  0
  -34.1880  -13.5607   -4.6892 N   0  0  0  0  0  0  0  0  0  0  0  0
  -34.7472   -9.6118  -11.4237 C   0  0  1  0  0  0  0  0  0  0  0  0
  -35.7695  -10.2217  -12.3476 N   0  0  0  0  0  0  0  0  0  0  0  0
  -32.5485  -14.1270   -9.9003 C   0  0  0  0  0  0  0  0  0  0  0  0
  -32.7159  -12.5504   -6.4482 C   0  0  2  0  0  0  0  0  0  0  0  0
  -34.0913   -8.3103  -12.1471 C   0  0  1  0  0  0  0  0  0  0  0  0
  -35.0431   -7.3197  -12.4786 O   0  0  0  0  0  0  0  0  0  0  0  0
  -33.7245  -13.9163   -9.2668 C   0  0  2  0  0  0  0  0  0  0  0  0
  -34.0144  -14.4704   -7.9793 O   0  0  0  0  0  0  0  0  0  0  0  0
  -32.7413  -11.7279   -7.8012 C   0  0  2  0  0  0  0  0  0  0  0  0
  -31.3911  -11.5061   -8.2412 O   0  0  0  0  0  0  0  0  0  0  0  0
  -33.0372   -7.6793  -11.1778 C   0  0  0  0  0  0  0  0  0  0  0  0
  -33.6792   -7.3728   -9.8260 O   0  0  0  0  0  0  0  0  0  0  0  0
  -34.8450  -13.0730   -9.8736 C   0  0  0  0  0  0  0  0  0  0  0  0
  -35.9109  -12.9948   -8.9145 O   0  0  0  0  0  0  0  0  0  0  0  0
  -33.4305  -10.3270   -7.5575 C   0  0  1  0  0  0  0  0  0  0  0  0
  -33.4456   -9.6284   -8.7905 O   0  0  0  0  0  0  0  0  0  0  0  0
  -33.3665   -8.6096  -13.4769 C   0  0  0  0  0  0  0  0  0  0  0  0
  -36.2926  -11.5487  -11.9639 C   0  0  0  0  0  0  0  0  0  0  0  0
  1  2  1  6  0  0  0
  1  6  1  0  0  0  0
  1 21  1  0  0  0  0
  3  4  1  1  0  0  0
  3  8  1  0  0  0  0
  3 28  1  0  0  0  0
  5  9  1  0  0  0  0
  5 25  1  0  0  0  0
  5 29  1  6  0  0  0
  6  7  1  1  0  0  0
  6 11  1  0  0  0  0
  8 12  1  0  0  0  0
  9 10  1  1  0  0  0
  9 14  1  0  0  0  0
 11 16  1  0  0  0  0
 12 13  1  1  0  0  0
 12 17  1  0  0  0  0
 14 15  1  6  0  0  0
 14 18  1  0  0  0  0
 15 31  1  0  0  0  0
 16 20  1  0  0  0  0
 17  2  1  6  0  0  0
 17 22  1  0  0  0  0
 18 19  1  6  0  0  0
 18 24  1  0  0  0  0
 18 30  1  0  0  0  0
 20 21  1  0  0  0  0
 20 26  1  6  0  0  0
 22 23  1  1  0  0  0
 22 28  1  0  0  0  0
 24 25  1  0  0  0  0
 26 27  1  0  0  0  0
 28 29  1  6  0  0  0
M  END
>  <CHROM.1>
149.91598752,-103.35579538,-71.07717076,32.80149656,-176.86143995,39.83442390
-33.86524854,-11.47266303,-8.94902254,-0.78722201,1.20126783,-1.37599349

>  <Name>
ligand

>  <RI>
0

>  <Rbt.Current_Directory>
/home/itssahil/PROJECTS/Mol_Feturizer/New_Systems/rnas/4GPW

>  <Rbt.Executable>
rbdock ($Id: //depot/dev/client3/rdock/2013.1/src/exe/rbdock.cxx#4 $)

>  <Rbt.Library>
libRbt.so (2013.1, Build901 2013/11/27)

>  <Rbt.Parameter_File>
/export/apps/rDock/src/rDock_2013.1_src/data/scripts/dock_solv.prm

>  <Rbt.Receptor>
prm/blind_docking_80.prm

>  <SCORE>
35.3694

>  <SCORE.INTER>
6.03935

>  <SCORE.INTER.CONST>
1

>  <SCORE.INTER.POLAR>
0

>  <SCORE.INTER.ROT>
6

>  <SCORE.INTER.SOLV>
11.312

>  <SCORE.INTER.VDW>
-7.34443

>  <SCORE.INTER.norm>
0.194818

>  <SCORE.INTRA>
7.92773

>  <SCORE.INTRA.DIHEDRAL>
-1.13098

>  <SCORE.INTRA.DIHEDRAL.0>
19.2558

>  <SCORE.INTRA.POLAR>
0

>  <SCORE.INTRA.POLAR.0>
0

>  <SCORE.INTRA.REPUL>
0

>  <SCORE.INTRA.REPUL.0>
0

>  <SCORE.INTRA.SOLV>
2.84443

>  <SCORE.INTRA.SOLV.lig_0>
-64.5929

>  <SCORE.INTRA.VDW>
7.071

>  <SCORE.INTRA.VDW.0>
-4.40538

>  <SCORE.INTRA.norm>
0.255733

>  <SCORE.RESTR>
21.4023

>  <SCORE.RESTR.CAVITY>
21.4023

>  <SCORE.RESTR.norm>
0.690396

>  <SCORE.SYSTEM>
0

>  <SCORE.SYSTEM.CONST>
0

>  <SCORE.SYSTEM.DIHEDRAL>
0

>  <SCORE.SYSTEM.SOLV>
0

>  <SCORE.SYSTEM.norm>
0

>  <SCORE.heavy>
31

>  <SCORE.norm>
1.14095

>  <RMSD>
13.853

$$$$
ligand
 OpenBabel11021811493D
libRbt.so/2013.1/901 2013/11/27
 31 33  0  0  0  0  0  0  0  0999 V2000
  -33.5136  -14.0375   -9.4432 C   0  0  2  0  0  0  0  0  0  0  0  0
  -33.4578  -13.4283   -8.1617 O   0  0  0  0  0  0  0  0  0  0  0  0
  -33.3619   -9.4260   -6.6963 C   0  0  2  0  0  0  0  0  0  0  0  0
  -32.9074   -8.0917   -6.4724 N   0  0  0  0  0  0  0  0  0  0  0  0
  -34.5551   -7.9027   -9.8633 C   0  0  2  0  0  0  0  0  0  0  0  0
  -34.9633  -14.6596   -9.5971 C   0  0  2  0  0  0  0  0  0  0  0  0
  -35.9655  -13.5922   -9.4625 N   0  0  0  0  0  0  0  0  0  0  0  0
  -32.2374  -10.4312   -6.1911 C   0  0  0  0  0  0  0  0  0  0  0  0
  -35.8440   -8.2229  -10.6905 C   0  0  2  0  0  0  0  0  0  0  0  0
  -36.9605   -8.0010   -9.8617 O   0  0  0  0  0  0  0  0  0  0  0  0
  -35.1826  -15.7806   -8.5054 C   0  0  0  0  0  0  0  0  0  0  0  0
  -32.7468  -11.9230   -6.4345 C   0  0  2  0  0  0  0  0  0  0  0  0
  -31.7168  -12.8753   -5.9660 N   0  0  0  0  0  0  0  0  0  0  0  0
  -35.7862   -9.7262  -11.1906 C   0  0  1  0  0  0  0  0  0  0  0  0
  -37.0223  -10.0548  -11.9872 N   0  0  0  0  0  0  0  0  0  0  0  0
  -33.8898  -16.6704   -8.2835 C   0  0  0  0  0  0  0  0  0  0  0  0
  -33.0053  -12.1322   -7.9832 C   0  0  2  0  0  0  0  0  0  0  0  0
  -34.4789   -9.9218  -12.1393 C   0  0  1  0  0  0  0  0  0  0  0  0
  -34.5002   -9.1034  -13.2913 O   0  0  0  0  0  0  0  0  0  0  0  0
  -32.6939  -16.3045   -8.7980 C   0  0  2  0  0  0  0  0  0  0  0  0
  -32.5208  -15.1094   -9.5666 O   0  0  0  0  0  0  0  0  0  0  0  0
  -34.1123  -11.1113   -8.4733 C   0  0  2  0  0  0  0  0  0  0  0  0
  -34.3345  -11.2996   -9.8808 O   0  0  0  0  0  0  0  0  0  0  0  0
  -33.2013   -9.5709  -11.3064 C   0  0  0  0  0  0  0  0  0  0  0  0
  -33.3260   -8.1688  -10.7131 O   0  0  0  0  0  0  0  0  0  0  0  0
  -31.4274  -17.1377   -8.6066 C   0  0  0  0  0  0  0  0  0  0  0  0
  -30.4496  -16.3151   -7.9513 O   0  0  0  0  0  0  0  0  0  0  0  0
  -33.6124   -9.6314   -8.2336 C   0  0  1  0  0  0  0  0  0  0  0  0
  -34.6327   -8.7506   -8.6715 O   0  0  0  0  0  0  0  0  0  0  0  0
  -34.2881  -11.3528  -12.6859 C   0  0  0  0  0  0  0  0  0  0  0  0
  -37.5417  -11.4313  -11.8557 C   0  0  0  0  0  0  0  0  0  0  0  0
  1  2  1  1  0  0  0
  1  6  1  0  0  0  0
  1 21  1  0  0  0  0
  3  4  1  6  0  0  0
  3  8  1  0  0  0  0
  3 28  1  0  0  0  0
  5  9  1  0  0  0  0
  5 25  1  0  0  0  0
  5 29  1  1  0  0  0
  6  7  1  1  0  0  0
  6 11  1  0  0  0  0
  8 12  1  0  0  0  0
  9 10  1  1  0  0  0
  9 14  1  0  0  0  0
 11 16  1  0  0  0  0
 12 13  1  6  0  0  0
 12 17  1  0  0  0  0
 14 15  1  6  0  0  0
 14 18  1  0  0  0  0
 15 31  1  0  0  0  0
 16 20  1  0  0  0  0
 17  2  1  1  0  0  0
 17 22  1  0  0  0  0
 18 19  1  6  0  0  0
 18 24  1  0  0  0  0
 18 30  1  0  0  0  0
 20 21  1  0  0  0  0
 20 26  1  6  0  0  0
 22 23  1  6  0  0  0
 22 28  1  0  0  0  0
 24 25  1  0  0  0  0
 26 27  1  0  0  0  0
 28 29  1  1  0  0  0
M  END
>  <CHROM.1>
-130.26966923,127.03612142,-145.10924100,-166.27244076,-121.36194856,132.31060664
-34.00544392,-11.68267246,-9.34977121,0.92639241,0.97620244,-2.94328083

>  <Name>
ligand

>  <RI>
0

>  <Rbt.Current_Directory>
/home/itssahil/PROJECTS/Mol_Feturizer/New_Systems/rnas/4GPW

>  <Rbt.Executable>
rbdock ($Id: //depot/dev/client3/rdock/2013.1/src/exe/rbdock.cxx#4 $)

>  <Rbt.Library>
libRbt.so (2013.1, Build901 2013/11/27)

>  <Rbt.Parameter_File>
/export/apps/rDock/src/rDock_2013.1_src/data/scripts/dock_solv.prm

>  <Rbt.Receptor>
prm/blind_docking_80.prm

>  <SCORE>
34.8948

>  <SCORE.INTER>
4.93217

>  <SCORE.INTER.CONST>
1

>  <SCORE.INTER.POLAR>
0

>  <SCORE.INTER.ROT>
6

>  <SCORE.INTER.SOLV>
15.7409

>  <SCORE.INTER.VDW>
-9.55886

>  <SCORE.INTER.norm>
0.159102

>  <SCORE.INTRA>
8.63369

>  <SCORE.INTRA.DIHEDRAL>
4.18919

>  <SCORE.INTRA.DIHEDRAL.0>
19.2558

>  <SCORE.INTRA.POLAR>
0

>  <SCORE.INTRA.POLAR.0>
0

>  <SCORE.INTRA.REPUL>
0

>  <SCORE.INTRA.REPUL.0>
0

>  <SCORE.INTRA.SOLV>
0.687884

>  <SCORE.INTRA.SOLV.lig_0>
-64.5929

>  <SCORE.INTRA.VDW>
6.19516

>  <SCORE.INTRA.VDW.0>
-4.40538

>  <SCORE.INTRA.norm>
0.278506

>  <SCORE.RESTR>
21.3289

>  <SCORE.RESTR.CAVITY>
21.3289

>  <SCORE.RESTR.norm>
0.688029

>  <SCORE.SYSTEM>
0

>  <SCORE.SYSTEM.CONST>
0

>  <SCORE.SYSTEM.DIHEDRAL>
0

>  <SCORE.SYSTEM.SOLV>
0

>  <SCORE.SYSTEM.norm>
0

>  <SCORE.heavy>
31

>  <SCORE.norm>
1.12564

>  <RMSD>
13.894

$$$$
ligand
 OpenBabel11021811493D
libRbt.so/2013.1/901 2013/11/27
 31 33  0  0  0  0  0  0  0  0999 V2000
  -32.4755  -13.6136   -8.9870 C   0  0  2  0  0  0  0  0  0  0  0  0
  -33.8569  -13.9217   -8.8707 O   0  0  0  0  0  0  0  0  0  0  0  0
  -36.8811  -12.2670  -11.3789 C   0  0  2  0  0  0  0  0  0  0  0  0
  -37.9190  -11.3981  -11.8317 N   0  0  0  0  0  0  0  0  0  0  0  0
  -35.1799   -9.4631  -12.7638 C   0  0  2  0  0  0  0  0  0  0  0  0
  -31.6788  -14.7839   -8.2742 C   0  0  2  0  0  0  0  0  0  0  0  0
  -32.0044  -16.0600   -8.9279 N   0  0  0  0  0  0  0  0  0  0  0  0
  -37.3303  -12.9067   -9.9936 C   0  0  0  0  0  0  0  0  0  0  0  0
  -34.0263   -8.8138  -11.9295 C   0  0  2  0  0  0  0  0  0  0  0  0
  -32.8304   -9.4895  -12.2393 O   0  0  0  0  0  0  0  0  0  0  0  0
  -32.0500  -14.8254   -6.7389 C   0  0  0  0  0  0  0  0  0  0  0  0
  -36.1742  -13.8834   -9.4896 C   0  0  2  0  0  0  0  0  0  0  0  0
  -36.5745  -14.4939   -8.2034 N   0  0  0  0  0  0  0  0  0  0  0  0
  -34.3689   -8.9252  -10.3857 C   0  0  1  0  0  0  0  0  0  0  0  0
  -33.2664   -8.3077   -9.5648 N   0  0  0  0  0  0  0  0  0  0  0  0
  -32.1858  -13.3769   -6.1097 C   0  0  0  0  0  0  0  0  0  0  0  0
  -34.8429  -13.0474   -9.2948 C   0  0  2  0  0  0  0  0  0  0  0  0
  -35.7570   -8.1297  -10.0895 C   0  0  1  0  0  0  0  0  0  0  0  0
  -35.6856   -6.7526  -10.3989 O   0  0  0  0  0  0  0  0  0  0  0  0
  -32.2296  -12.2764   -6.8944 C   0  0  2  0  0  0  0  0  0  0  0  0
  -32.1550  -12.3467   -8.3221 O   0  0  0  0  0  0  0  0  0  0  0  0
  -34.4212  -12.4020  -10.6781 C   0  0  2  0  0  0  0  0  0  0  0  0
  -33.2187  -11.6370  -10.4920 O   0  0  0  0  0  0  0  0  0  0  0  0
  -36.8938   -8.7725  -10.9518 C   0  0  0  0  0  0  0  0  0  0  0  0
  -36.4954   -8.7855  -12.4264 O   0  0  0  0  0  0  0  0  0  0  0  0
  -32.3577  -10.8648   -6.3236 C   0  0  0  0  0  0  0  0  0  0  0  0
  -33.5333  -10.2629   -6.8874 O   0  0  0  0  0  0  0  0  0  0  0  0
  -35.5638  -11.4338  -11.1820 C   0  0  1  0  0  0  0  0  0  0  0  0
  -35.1558  -10.8878  -12.4246 O   0  0  0  0  0  0  0  0  0  0  0  0
  -36.2217   -8.1712   -8.6180 C   0  0  0  0  0  0  0  0  0  0  0  0
  -32.9075   -6.9125   -9.8908 C   0  0  0  0  0  0  0  0  0  0  0  0
  1  2  1  1  0  0  0
  1  6  1  0  0  0  0
  1 21  1  0  0  0  0
  3  4  1  1  0  0  0
  3  8  1  0  0  0  0
  3 28  1  0  0  0  0
  5  9  1  0  0  0  0
  5 25  1  0  0  0  0
  5 29  1  1  0  0  0
  6  7  1  6  0  0  0
  6 11  1  0  0  0  0
  8 12  1  0  0  0  0
  9 10  1  1  0  0  0
  9 14  1  0  0  0  0
 11 16  1  0  0  0  0
 12 13  1  1  0  0  0
 12 17  1  0  0  0  0
 14 15  1  1  0  0  0
 14 18  1  0  0  0  0
 15 31  1  0  0  0  0
 16 20  1  0  0  0  0
 17  2  1  6  0  0  0
 17 22  1  0  0  0  0
 18 19  1  6  0  0  0
 18 24  1  0  0  0  0
 18 30  1  0  0  0  0
 20 21  1  0  0  0  0
 20 26  1  1  0  0  0
 22 23  1  1  0  0  0
 22 28  1  0  0  0  0
 24 25  1  0  0  0  0
 26 27  1  0  0  0  0
 28 29  1  6  0  0  0
M  END
>  <CHROM.1>
174.67010822,71.61765644,54.65418484,160.45451971,-122.36329320,111.32142246
-34.38046764,-11.21885752,-9.70138714,-1.02737828,-0.70573086,-0.19595098

>  <Name>
ligand

>  <RI>
0

>  <Rbt.Current_Directory>
/home/itssahil/PROJECTS/Mol_Feturizer/New_Systems/rnas/4GPW

>  <Rbt.Executable>
rbdock ($Id: //depot/dev/client3/rdock/2013.1/src/exe/rbdock.cxx#4 $)

>  <Rbt.Library>
libRbt.so (2013.1, Build901 2013/11/27)

>  <Rbt.Parameter_File>
/export/apps/rDock/src/rDock_2013.1_src/data/scripts/dock_solv.prm

>  <Rbt.Receptor>
prm/blind_docking_80.prm

>  <SCORE>
24.727

>  <SCORE.INTER>
4.20781

>  <SCORE.INTER.CONST>
1

>  <SCORE.INTER.POLAR>
0

>  <SCORE.INTER.ROT>
6

>  <SCORE.INTER.SOLV>
12.7881

>  <SCORE.INTER.VDW>
-9.05751

>  <SCORE.INTER.norm>
0.135736

>  <SCORE.INTRA>
1.08982

>  <SCORE.INTRA.DIHEDRAL>
-8.20114

>  <SCORE.INTRA.DIHEDRAL.0>
19.2558

>  <SCORE.INTRA.POLAR>
0

>  <SCORE.INTRA.POLAR.0>
0

>  <SCORE.INTRA.REPUL>
0.0595796

>  <SCORE.INTRA.REPUL.0>
0

>  <SCORE.INTRA.SOLV>
0.81922

>  <SCORE.INTRA.SOLV.lig_0>
-64.5929

>  <SCORE.INTRA.VDW>
4.48288

>  <SCORE.INTRA.VDW.0>
-4.40538

>  <SCORE.INTRA.norm>
0.0351554

>  <SCORE.RESTR>
19.4294

>  <SCORE.RESTR.CAVITY>
19.4294

>  <SCORE.RESTR.norm>
0.626754

>  <SCORE.SYSTEM>
0

>  <SCORE.SYSTEM.CONST>
0

>  <SCORE.SYSTEM.DIHEDRAL>
0

>  <SCORE.SYSTEM.SOLV>
0

>  <SCORE.SYSTEM.norm>
0

>  <SCORE.heavy>
31

>  <SCORE.norm>
0.797645

>  <RMSD>
13.905

$$$$
ligand
 OpenBabel11021811493D
libRbt.so/2013.1/901 2013/11/27
 31 33  0  0  0  0  0  0  0  0999 V2000
  -34.2616  -14.1232   -9.0813 C   0  0  2  0  0  0  0  0  0  0  0  0
  -34.0191  -13.4819   -7.8377 O   0  0  0  0  0  0  0  0  0  0  0  0
  -33.3835   -9.4255   -6.6903 C   0  0  2  0  0  0  0  0  0  0  0  0
  -32.7525   -8.1512   -6.5664 N   0  0  0  0  0  0  0  0  0  0  0  0
  -34.3410   -7.9900   -9.9659 C   0  0  2  0  0  0  0  0  0  0  0  0
  -35.1111  -15.4253   -8.7725 C   0  0  2  0  0  0  0  0  0  0  0  0
  -36.3659  -15.0394   -8.1102 N   0  0  0  0  0  0  0  0  0  0  0  0
  -32.4061  -10.5299   -6.0944 C   0  0  0  0  0  0  0  0  0  0  0  0
  -35.6225   -8.2392  -10.8285 C   0  0  2  0  0  0  0  0  0  0  0  0
  -36.7425   -7.8545  -10.0667 O   0  0  0  0  0  0  0  0  0  0  0  0
  -34.2719  -16.4079   -7.8632 C   0  0  0  0  0  0  0  0  0  0  0  0
  -33.1127  -11.9539   -6.2258 C   0  0  2  0  0  0  0  0  0  0  0  0
  -32.2216  -12.9962   -5.6718 N   0  0  0  0  0  0  0  0  0  0  0  0
  -35.6954   -9.7713  -11.2288 C   0  0  1  0  0  0  0  0  0  0  0  0
  -36.9264  -10.0318  -12.0579 N   0  0  0  0  0  0  0  0  0  0  0  0
  -32.7441  -16.4635   -8.2816 C   0  0  0  0  0  0  0  0  0  0  0  0
  -33.3954  -12.2487   -7.7563 C   0  0  2  0  0  0  0  0  0  0  0  0
  -34.3784  -10.1564  -12.1032 C   0  0  1  0  0  0  0  0  0  0  0  0
  -34.2735   -9.4197  -13.3046 O   0  0  0  0  0  0  0  0  0  0  0  0
  -32.2238  -15.5623   -9.1452 C   0  0  2  0  0  0  0  0  0  0  0  0
  -33.0073  -14.5170   -9.7305 O   0  0  0  0  0  0  0  0  0  0  0  0
  -34.3532  -11.1298   -8.3381 C   0  0  2  0  0  0  0  0  0  0  0  0
  -34.5974  -11.3976   -9.7290 O   0  0  0  0  0  0  0  0  0  0  0  0
  -33.1054   -9.8754  -11.2374 C   0  0  0  0  0  0  0  0  0  0  0  0
  -33.1126   -8.4309  -10.7407 O   0  0  0  0  0  0  0  0  0  0  0  0
  -30.7571  -15.5861   -9.5730 C   0  0  0  0  0  0  0  0  0  0  0  0
  -30.2707  -14.2350   -9.5666 O   0  0  0  0  0  0  0  0  0  0  0  0
  -33.6578   -9.7167   -8.2095 C   0  0  1  0  0  0  0  0  0  0  0  0
  -34.5488   -8.7438   -8.7273 O   0  0  0  0  0  0  0  0  0  0  0  0
  -34.3102  -11.6330  -12.5485 C   0  0  0  0  0  0  0  0  0  0  0  0
  -37.5376  -11.3698  -11.9237 C   0  0  0  0  0  0  0  0  0  0  0  0
  1  2  1  1  0  0  0
  1  6  1  0  0  0  0
  1 21  1  0  0  0  0
  3  4  1  6  0  0  0
  3  8  1  0  0  0  0
  3 28  1  0  0  0  0
  5  9  1  0  0  0  0
  5 25  1  0  0  0  0
  5 29  1  1  0  0  0
  6  7  1  1  0  0  0
  6 11  1  0  0  0  0
  8 12  1  0  0  0  0
  9 10  1  1  0  0  0
  9 14  1  0  0  0  0
 11 16  1  0  0  0  0
 12 13  1  6  0  0  0
 12 17  1  0  0  0  0
 14 15  1  6  0  0  0
 14 18  1  0  0  0  0
 15 31  1  0  0  0  0
 16 20  1  0  0  0  0
 17  2  1  1  0  0  0
 17 22  1  0  0  0  0
 18 19  1  6  0  0  0
 18 24  1  0  0  0  0
 18 30  1  0  0  0  0
 20 21  1  0  0  0  0
 20 26  1  6  0  0  0
 22 23  1  6  0  0  0
 22 28  1  0  0  0  0
 24 25  1  0  0  0  0
 26 27  1  0  0  0  0
 28 29  1  1  0  0  0
M  END
>  <CHROM.1>
-174.47508832,125.04654343,-148.69956385,-171.98951797,-137.19445871,130.87501337
-33.98218849,-11.66324401,-9.32821053,0.87961848,1.05826902,-2.91103361

>  <Name>
ligand

>  <RI>
0

>  <Rbt.Current_Directory>
/home/itssahil/PROJECTS/Mol_Feturizer/New_Systems/rnas/4GPW

>  <Rbt.Executable>
rbdock ($Id: //depot/dev/client3/rdock/2013.1/src/exe/rbdock.cxx#4 $)

>  <Rbt.Library>
libRbt.so (2013.1, Build901 2013/11/27)

>  <Rbt.Parameter_File>
/export/apps/rDock/src/rDock_2013.1_src/data/scripts/dock_solv.prm

>  <Rbt.Receptor>
prm/blind_docking_80.prm

>  <SCORE>
49.988

>  <SCORE.INTER>
25.8532

>  <SCORE.INTER.CONST>
1

>  <SCORE.INTER.POLAR>
0

>  <SCORE.INTER.ROT>
6

>  <SCORE.INTER.SOLV>
14.514

>  <SCORE.INTER.VDW>
4.79745

>  <SCORE.INTER.norm>
0.833973

>  <SCORE.INTRA>
3.57135

>  <SCORE.INTRA.DIHEDRAL>
-2.40195

>  <SCORE.INTRA.DIHEDRAL.0>
19.2558

>  <SCORE.INTRA.POLAR>
0

>  <SCORE.INTRA.POLAR.0>
0

>  <SCORE.INTRA.REPUL>
0

>  <SCORE.INTRA.REPUL.0>
0

>  <SCORE.INTRA.SOLV>
-1.88794

>  <SCORE.INTRA.SOLV.lig_0>
-64.5929

>  <SCORE.INTRA.VDW>
5.7163

>  <SCORE.INTRA.VDW.0>
-4.40538

>  <SCORE.INTRA.norm>
0.115205

>  <SCORE.RESTR>
20.5635

>  <SCORE.RESTR.CAVITY>
20.5635

>  <SCORE.RESTR.norm>
0.663339

>  <SCORE.SYSTEM>
0

>  <SCORE.SYSTEM.CONST>
0

>  <SCORE.SYSTEM.DIHEDRAL>
0

>  <SCORE.SYSTEM.SOLV>
0

>  <SCORE.SYSTEM.norm>
0

>  <SCORE.heavy>
31

>  <SCORE.norm>
1.61252

>  <RMSD>
13.925

$$$$
ligand
 OpenBabel11021811493D
libRbt.so/2013.1/901 2013/11/27
 31 33  0  0  0  0  0  0  0  0999 V2000
  -32.5196  -13.2218   -8.7416 C   0  0  2  0  0  0  0  0  0  0  0  0
  -33.8948  -13.5712   -8.6857 O   0  0  0  0  0  0  0  0  0  0  0  0
  -36.7308  -12.2888  -11.5991 C   0  0  2  0  0  0  0  0  0  0  0  0
  -37.7602  -11.5181  -12.2185 N   0  0  0  0  0  0  0  0  0  0  0  0
  -34.8977   -9.4852  -12.9706 C   0  0  2  0  0  0  0  0  0  0  0  0
  -31.6994  -14.4943   -8.2722 C   0  0  2  0  0  0  0  0  0  0  0  0
  -32.0061  -15.6239   -9.1621 N   0  0  0  0  0  0  0  0  0  0  0  0
  -37.2842  -12.8468  -10.2162 C   0  0  0  0  0  0  0  0  0  0  0  0
  -33.8965   -8.8304  -11.9621 C   0  0  2  0  0  0  0  0  0  0  0  0
  -32.6857   -9.5468  -12.0223 O   0  0  0  0  0  0  0  0  0  0  0  0
  -32.0623  -14.8414   -6.7740 C   0  0  0  0  0  0  0  0  0  0  0  0
  -36.1372  -13.7140   -9.5259 C   0  0  2  0  0  0  0  0  0  0  0  0
  -36.6336  -14.2476   -8.2389 N   0  0  0  0  0  0  0  0  0  0  0  0
  -34.5189   -8.8703  -10.5047 C   0  0  1  0  0  0  0  0  0  0  0  0
  -33.5665   -8.2465   -9.5176 N   0  0  0  0  0  0  0  0  0  0  0  0
  -32.2199  -13.5463   -5.8739 C   0  0  0  0  0  0  0  0  0  0  0  0
  -34.8758  -12.7901   -9.2721 C   0  0  2  0  0  0  0  0  0  0  0  0
  -35.9122   -8.0302  -10.4975 C   0  0  1  0  0  0  0  0  0  0  0  0
  -35.7427   -6.6690  -10.8375 O   0  0  0  0  0  0  0  0  0  0  0  0
  -32.2864  -12.3148   -6.4285 C   0  0  2  0  0  0  0  0  0  0  0  0
  -32.2177  -12.1036   -7.8426 O   0  0  0  0  0  0  0  0  0  0  0  0
  -34.3501  -12.2278  -10.6561 C   0  0  2  0  0  0  0  0  0  0  0  0
  -33.2123  -11.3826  -10.4177 O   0  0  0  0  0  0  0  0  0  0  0  0
  -36.8917   -8.6801  -11.5306 C   0  0  0  0  0  0  0  0  0  0  0  0
  -36.2310   -8.7630  -12.9054 O   0  0  0  0  0  0  0  0  0  0  0  0
  -32.4360  -11.0443   -5.5928 C   0  0  0  0  0  0  0  0  0  0  0  0
  -33.7115  -10.4595   -5.8984 O   0  0  0  0  0  0  0  0  0  0  0  0
  -35.4834  -11.3682  -11.3444 C   0  0  1  0  0  0  0  0  0  0  0  0
  -34.9805  -10.8951  -12.5821 O   0  0  0  0  0  0  0  0  0  0  0  0
  -36.6393   -8.0004   -9.1361 C   0  0  0  0  0  0  0  0  0  0  0  0
  -33.8223   -8.5279   -8.0903 C   0  0  0  0  0  0  0  0  0  0  0  0
  1  2  1  1  0  0  0
  1  6  1  0  0  0  0
  1 21  1  0  0  0  0
  3  4  1  1  0  0  0
  3  8  1  0  0  0  0
  3 28  1  0  0  0  0
  5  9  1  0  0  0  0
  5 25  1  0  0  0  0
  5 29  1  1  0  0  0
  6  7  1  6  0  0  0
  6 11  1  0  0  0  0
  8 12  1  0  0  0  0
  9 10  1  1  0  0  0
  9 14  1  0  0  0  0
 11 16  1  0  0  0  0
 12 13  1  1  0  0  0
 12 17  1  0  0  0  0
 14 15  1  1  0  0  0
 14 18  1  0  0  0  0
 15 31  1  0  0  0  0
 16 20  1  0  0  0  0
 17  2  1  6  0  0  0
 17 22  1  0  0  0  0
 18 19  1  6  0  0  0
 18 24  1  0  0  0  0
 18 30  1  0  0  0  0
 20 21  1  0  0  0  0
 20 26  1  1  0  0  0
 22 23  1  1  0  0  0
 22 28  1  0  0  0  0
 24 25  1  0  0  0  0
 26 27  1  0  0  0  0
 28 29  1  6  0  0  0
M  END
>  <CHROM.1>
-167.12030059,63.71334782,-163.94725221,157.76112770,-114.74303015,118.93233873
-34.41666202,-11.18860675,-9.65284227,0.77316268,0.91479729,3.08207496

>  <Name>
ligand

>  <RI>
0

>  <Rbt.Current_Directory>
/home/itssahil/PROJECTS/Mol_Feturizer/New_Systems/rnas/4GPW

>  <Rbt.Executable>
rbdock ($Id: //depot/dev/client3/rdock/2013.1/src/exe/rbdock.cxx#4 $)

>  <Rbt.Library>
libRbt.so (2013.1, Build901 2013/11/27)

>  <Rbt.Parameter_File>
/export/apps/rDock/src/rDock_2013.1_src/data/scripts/dock_solv.prm

>  <Rbt.Receptor>
prm/blind_docking_80.prm

>  <SCORE>
25.8895

>  <SCORE.INTER>
4.81818

>  <SCORE.INTER.CONST>
1

>  <SCORE.INTER.POLAR>
0

>  <SCORE.INTER.ROT>
6

>  <SCORE.INTER.SOLV>
12.4829

>  <SCORE.INTER.VDW>
-8.54885

>  <SCORE.INTER.norm>
0.155425

>  <SCORE.INTRA>
1.8739

>  <SCORE.INTRA.DIHEDRAL>
-7.11754

>  <SCORE.INTRA.DIHEDRAL.0>
19.2558

>  <SCORE.INTRA.POLAR>
0

>  <SCORE.INTRA.POLAR.0>
0

>  <SCORE.INTRA.REPUL>
0

>  <SCORE.INTRA.REPUL.0>
0

>  <SCORE.INTRA.SOLV>
0.274172

>  <SCORE.INTRA.SOLV.lig_0>
-64.5929

>  <SCORE.INTRA.VDW>
5.29559

>  <SCORE.INTRA.VDW.0>
-4.40538

>  <SCORE.INTRA.norm>
0.0604485

>  <SCORE.RESTR>
19.1974

>  <SCORE.RESTR.CAVITY>
19.1974

>  <SCORE.RESTR.norm>
0.619272

>  <SCORE.SYSTEM>
0

>  <SCORE.SYSTEM.CONST>
0

>  <SCORE.SYSTEM.DIHEDRAL>
0

>  <SCORE.SYSTEM.SOLV>
0

>  <SCORE.SYSTEM.norm>
0

>  <SCORE.heavy>
31

>  <SCORE.norm>
0.835146

>  <RMSD>
13.972

$$$$
ligand
 OpenBabel11021811493D
libRbt.so/2013.1/901 2013/11/27
 31 33  0  0  0  0  0  0  0  0999 V2000
  -32.5117  -13.2465   -8.7820 C   0  0  2  0  0  0  0  0  0  0  0  0
  -33.8888  -13.5862   -8.7119 O   0  0  0  0  0  0  0  0  0  0  0  0
  -36.7393  -12.2771  -11.5991 C   0  0  2  0  0  0  0  0  0  0  0  0
  -37.7695  -11.4988  -12.2075 N   0  0  0  0  0  0  0  0  0  0  0  0
  -34.9134   -9.4759  -12.9744 C   0  0  2  0  0  0  0  0  0  0  0  0
  -31.6973  -14.5097   -8.2788 C   0  0  2  0  0  0  0  0  0  0  0  0
  -32.0132  -15.6625   -9.1350 N   0  0  0  0  0  0  0  0  0  0  0  0
  -37.2855  -12.8392  -10.2150 C   0  0  0  0  0  0  0  0  0  0  0  0
  -33.9156   -8.8175  -11.9649 C   0  0  2  0  0  0  0  0  0  0  0  0
  -32.7014   -9.5281  -12.0258 O   0  0  0  0  0  0  0  0  0  0  0  0
  -32.0573  -14.8116   -6.7702 C   0  0  0  0  0  0  0  0  0  0  0  0
  -36.1376  -13.7149   -9.5369 C   0  0  2  0  0  0  0  0  0  0  0  0
  -36.6274  -14.2525   -8.2491 N   0  0  0  0  0  0  0  0  0  0  0  0
  -34.5381   -8.8623  -10.5076 C   0  0  1  0  0  0  0  0  0  0  0  0
  -33.5888   -8.2352   -9.5196 N   0  0  0  0  0  0  0  0  0  0  0  0
  -32.2047  -13.4904   -5.9071 C   0  0  0  0  0  0  0  0  0  0  0  0
  -34.8703  -12.7979   -9.2877 C   0  0  2  0  0  0  0  0  0  0  0  0
  -35.9354   -8.0288  -10.4997 C   0  0  1  0  0  0  0  0  0  0  0  0
  -35.7722   -6.6664  -10.8379 O   0  0  0  0  0  0  0  0  0  0  0  0
  -32.2660  -12.2749   -6.4966 C   0  0  2  0  0  0  0  0  0  0  0  0
  -32.2006  -12.1047   -7.9163 O   0  0  0  0  0  0  0  0  0  0  0  0
  -34.3518  -12.2314  -10.6726 C   0  0  2  0  0  0  0  0  0  0  0  0
  -33.2085  -11.3924  -10.4382 O   0  0  0  0  0  0  0  0  0  0  0  0
  -36.9116   -8.6821  -11.5338 C   0  0  0  0  0  0  0  0  0  0  0  0
  -36.2502   -8.7600  -12.9086 O   0  0  0  0  0  0  0  0  0  0  0  0
  -32.4057  -10.9801   -5.6972 C   0  0  0  0  0  0  0  0  0  0  0  0
  -33.7139  -10.4431   -5.9470 O   0  0  0  0  0  0  0  0  0  0  0  0
  -35.4860  -11.3634  -11.3488 C   0  0  1  0  0  0  0  0  0  0  0  0
  -34.9896  -10.8866  -12.5877 O   0  0  0  0  0  0  0  0  0  0  0  0
  -36.6629   -8.0042   -9.1384 C   0  0  0  0  0  0  0  0  0  0  0  0
  -33.8464   -8.5157   -8.0925 C   0  0  0  0  0  0  0  0  0  0  0  0
  1  2  1  1  0  0  0
  1  6  1  0  0  0  0
  1 21  1  0  0  0  0
  3  4  1  1  0  0  0
  3  8  1  0  0  0  0
  3 28  1  0  0  0  0
  5  9  1  0  0  0  0
  5 25  1  0  0  0  0
  5 29  1  1  0  0  0
  6  7  1  6  0  0  0
  6 11  1  0  0  0  0
  8 12  1  0  0  0  0
  9 10  1  1  0  0  0
  9 14  1  0  0  0  0
 11 16  1  0  0  0  0
 12 13  1  1  0  0  0
 12 17  1  0  0  0  0
 14 15  1  1  0  0  0
 14 18  1  0  0  0  0
 15 31  1  0  0  0  0
 16 20  1  0  0  0  0
 17  2  1  6  0  0  0
 17 22  1  0  0  0  0
 18 19  1  6  0  0  0
 18 24  1  0  0  0  0
 18 30  1  0  0  0  0
 20 21  1  0  0  0  0
 20 26  1  1  0  0  0
 22 23  1  1  0  0  0
 22 28  1  0  0  0  0
 24 25  1  0  0  0  0
 26 27  1  0  0  0  0
 28 29  1  6  0  0  0
M  END
>  <CHROM.1>
-168.84493373,63.46933579,-164.15850857,157.41552350,-110.98125841,118.39827982
-34.42173960,-11.18186576,-9.66827158,0.77516855,0.90555616,3.08536491

>  <Name>
ligand

>  <RI>
0

>  <Rbt.Current_Directory>
/home/itssahil/PROJECTS/Mol_Feturizer/New_Systems/rnas/4GPW

>  <Rbt.Executable>
rbdock ($Id: //depot/dev/client3/rdock/2013.1/src/exe/rbdock.cxx#4 $)

>  <Rbt.Library>
libRbt.so (2013.1, Build901 2013/11/27)

>  <Rbt.Parameter_File>
/export/apps/rDock/src/rDock_2013.1_src/data/scripts/dock_solv.prm

>  <Rbt.Receptor>
prm/blind_docking_80.prm

>  <SCORE>
25.8688

>  <SCORE.INTER>
4.61107

>  <SCORE.INTER.CONST>
1

>  <SCORE.INTER.POLAR>
0

>  <SCORE.INTER.ROT>
6

>  <SCORE.INTER.SOLV>
12.492

>  <SCORE.INTER.VDW>
-8.68997

>  <SCORE.INTER.norm>
0.148744

>  <SCORE.INTRA>
2.01202

>  <SCORE.INTRA.DIHEDRAL>
-7.2004

>  <SCORE.INTRA.DIHEDRAL.0>
19.2558

>  <SCORE.INTRA.POLAR>
0

>  <SCORE.INTRA.POLAR.0>
0

>  <SCORE.INTRA.REPUL>
0

>  <SCORE.INTRA.REPUL.0>
0

>  <SCORE.INTRA.SOLV>
0.301628

>  <SCORE.INTRA.SOLV.lig_0>
-64.5929

>  <SCORE.INTRA.VDW>
5.46141

>  <SCORE.INTRA.VDW.0>
-4.40538

>  <SCORE.INTRA.norm>
0.0649039

>  <SCORE.RESTR>
19.2457

>  <SCORE.RESTR.CAVITY>
19.2457

>  <SCORE.RESTR.norm>
0.62083

>  <SCORE.SYSTEM>
0

>  <SCORE.SYSTEM.CONST>
0

>  <SCORE.SYSTEM.DIHEDRAL>
0

>  <SCORE.SYSTEM.SOLV>
0

>  <SCORE.SYSTEM.norm>
0

>  <SCORE.heavy>
31

>  <SCORE.norm>
0.834478

>  <RMSD>
13.973

$$$$
ligand
 OpenBabel11021811493D
libRbt.so/2013.1/901 2013/11/27
 31 33  0  0  0  0  0  0  0  0999 V2000
  -32.4607  -11.8757   -5.2786 C   0  0  2  0  0  0  0  0  0  0  0  0
  -33.3950  -12.9057   -5.5665 O   0  0  0  0  0  0  0  0  0  0  0  0
  -32.1040  -14.0809   -9.4558 C   0  0  2  0  0  0  0  0  0  0  0  0
  -32.0073  -14.8327  -10.6652 N   0  0  0  0  0  0  0  0  0  0  0  0
  -35.1826  -12.4111  -10.9493 C   0  0  2  0  0  0  0  0  0  0  0  0
  -32.9736  -11.1373   -3.9732 C   0  0  2  0  0  0  0  0  0  0  0  0
  -33.0645  -12.1071   -2.8719 N   0  0  0  0  0  0  0  0  0  0  0  0
  -31.7679  -15.0454   -8.2366 C   0  0  0  0  0  0  0  0  0  0  0  0
  -34.9473  -11.5691  -12.2469 C   0  0  2  0  0  0  0  0  0  0  0  0
  -34.0600  -12.2829  -13.0751 O   0  0  0  0  0  0  0  0  0  0  0  0
  -34.3775  -10.4688   -4.2540 C   0  0  0  0  0  0  0  0  0  0  0  0
  -31.8690  -14.2050   -6.8846 C   0  0  2  0  0  0  0  0  0  0  0  0
  -31.5544  -15.0831   -5.7369 N   0  0  0  0  0  0  0  0  0  0  0  0
  -34.3555  -10.1523  -11.8526 C   0  0  1  0  0  0  0  0  0  0  0  0
  -34.1186   -9.3272  -13.0911 N   0  0  0  0  0  0  0  0  0  0  0  0
  -34.4582   -9.8128   -5.6947 C   0  0  0  0  0  0  0  0  0  0  0  0
  -33.3415  -13.6395   -6.7391 C   0  0  2  0  0  0  0  0  0  0  0  0
  -35.4206   -9.3775  -10.8974 C   0  0  1  0  0  0  0  0  0  0  0  0
  -36.6650   -9.1454  -11.5259 O   0  0  0  0  0  0  0  0  0  0  0  0
  -33.5083  -10.0552   -6.6261 C   0  0  2  0  0  0  0  0  0  0  0  0
  -32.3842  -10.9050   -6.3748 O   0  0  0  0  0  0  0  0  0  0  0  0
  -33.6662  -12.6978   -7.9701 C   0  0  2  0  0  0  0  0  0  0  0  0
  -35.0067  -12.1966   -7.8370 O   0  0  0  0  0  0  0  0  0  0  0  0
  -35.6663  -10.2450   -9.6183 C   0  0  0  0  0  0  0  0  0  0  0  0
  -36.1055  -11.6541  -10.0118 O   0  0  0  0  0  0  0  0  0  0  0  0
  -33.5518   -9.4391   -8.0238 C   0  0  0  0  0  0  0  0  0  0  0  0
  -33.5143   -8.0107   -7.8806 O   0  0  0  0  0  0  0  0  0  0  0  0
  -33.5668  -13.5259   -9.3123 C   0  0  1  0  0  0  0  0  0  0  0  0
  -33.8505  -12.6480  -10.3881 O   0  0  0  0  0  0  0  0  0  0  0  0
  -34.9625   -7.9823  -10.4212 C   0  0  0  0  0  0  0  0  0  0  0  0
  -33.0001   -8.3642  -13.0346 C   0  0  0  0  0  0  0  0  0  0  0  0
  1  2  1  6  0  0  0
  1  6  1  0  0  0  0
  1 21  1  0  0  0  0
  3  4  1  6  0  0  0
  3  8  1  0  0  0  0
  3 28  1  0  0  0  0
  5  9  1  0  0  0  0
  5 25  1  0  0  0  0
  5 29  1  1  0  0  0
  6  7  1  1  0  0  0
  6 11  1  0  0  0  0
  8 12  1  0  0  0  0
  9 10  1  6  0  0  0
  9 14  1  0  0  0  0
 11 16  1  0  0  0  0
 12 13  1  1  0  0  0
 12 17  1  0  0  0  0
 14 15  1  6  0  0  0
 14 18  1  0  0  0  0
 15 31  1  0  0  0  0
 16 20  1  0  0  0  0
 17  2  1  1  0  0  0
 17 22  1  0  0  0  0
 18 19  1  6  0  0  0
 18 24  1  0  0  0  0
 18 30  1  0  0  0  0
 20 21  1  0  0  0  0
 20 26  1  1  0  0  0
 22 23  1  1  0  0  0
 22 28  1  0  0  0  0
 24 25  1  0  0  0  0
 26 27  1  0  0  0  0
 28 29  1  6  0  0  0
M  END
>  <CHROM.1>
171.70263016,-170.71415574,-149.14706624,52.20871476,60.49965076,151.19421403
-33.79441718,-11.48563515,-8.62545855,0.82303785,-1.18343888,1.21701592

>  <Name>
ligand

>  <RI>
0

>  <Rbt.Current_Directory>
/home/itssahil/PROJECTS/Mol_Feturizer/New_Systems/rnas/4GPW

>  <Rbt.Executable>
rbdock ($Id: //depot/dev/client3/rdock/2013.1/src/exe/rbdock.cxx#4 $)

>  <Rbt.Library>
libRbt.so (2013.1, Build901 2013/11/27)

>  <Rbt.Parameter_File>
/export/apps/rDock/src/rDock_2013.1_src/data/scripts/dock_solv.prm

>  <Rbt.Receptor>
prm/blind_docking_80.prm

>  <SCORE>
41.0599

>  <SCORE.INTER>
17.7517

>  <SCORE.INTER.CONST>
1

>  <SCORE.INTER.POLAR>
0

>  <SCORE.INTER.ROT>
6

>  <SCORE.INTER.SOLV>
18.9849

>  <SCORE.INTER.VDW>
-2.09385

>  <SCORE.INTER.norm>
0.572634

>  <SCORE.INTRA>
0.686228

>  <SCORE.INTRA.DIHEDRAL>
-10.5987

>  <SCORE.INTRA.DIHEDRAL.0>
19.2558

>  <SCORE.INTRA.POLAR>
0

>  <SCORE.INTRA.POLAR.0>
0

>  <SCORE.INTRA.REPUL>
0

>  <SCORE.INTRA.REPUL.0>
0

>  <SCORE.INTRA.SOLV>
-1.7576

>  <SCORE.INTRA.SOLV.lig_0>
-64.5929

>  <SCORE.INTRA.VDW>
6.8644

>  <SCORE.INTRA.VDW.0>
-4.40538

>  <SCORE.INTRA.norm>
0.0221364

>  <SCORE.RESTR>
22.622

>  <SCORE.RESTR.CAVITY>
22.622

>  <SCORE.RESTR.norm>
0.729741

>  <SCORE.SYSTEM>
0

>  <SCORE.SYSTEM.CONST>
0

>  <SCORE.SYSTEM.DIHEDRAL>
0

>  <SCORE.SYSTEM.SOLV>
0

>  <SCORE.SYSTEM.norm>
0

>  <SCORE.heavy>
31

>  <SCORE.norm>
1.32451

>  <RMSD>
14.019

$$$$
ligand
 OpenBabel11021811493D
libRbt.so/2013.1/901 2013/11/27
 31 33  0  0  0  0  0  0  0  0999 V2000
  -33.8601  -13.5299   -6.4541 C   0  0  2  0  0  0  0  0  0  0  0  0
  -33.0382  -12.4063   -6.1739 O   0  0  0  0  0  0  0  0  0  0  0  0
  -34.9886   -9.3777   -8.4539 C   0  0  2  0  0  0  0  0  0  0  0  0
  -35.3474   -8.0806   -8.9294 N   0  0  0  0  0  0  0  0  0  0  0  0
  -33.2928  -10.7441  -11.0095 C   0  0  2  0  0  0  0  0  0  0  0  0
  -33.2295  -14.7667   -5.6893 C   0  0  2  0  0  0  0  0  0  0  0  0
  -33.1864  -14.4750   -4.2488 N   0  0  0  0  0  0  0  0  0  0  0  0
  -35.2820   -9.4389   -6.8918 C   0  0  0  0  0  0  0  0  0  0  0  0
  -34.0640  -10.2424  -12.2751 C   0  0  2  0  0  0  0  0  0  0  0  0
  -33.3758   -9.1278  -12.7917 O   0  0  0  0  0  0  0  0  0  0  0  0
  -31.7813  -15.0597   -6.2494 C   0  0  0  0  0  0  0  0  0  0  0  0
  -34.8879  -10.8902   -6.3601 C   0  0  2  0  0  0  0  0  0  0  0  0
  -35.1584  -10.9705   -4.9083 N   0  0  0  0  0  0  0  0  0  0  0  0
  -35.5495   -9.8662  -11.8692 C   0  0  1  0  0  0  0  0  0  0  0  0
  -36.3079   -9.3769  -13.0758 N   0  0  0  0  0  0  0  0  0  0  0  0
  -31.6964  -14.8944   -7.8235 C   0  0  0  0  0  0  0  0  0  0  0  0
  -33.3472  -11.1373   -6.6328 C   0  0  2  0  0  0  0  0  0  0  0  0
  -36.2915  -11.1888  -11.2796 C   0  0  1  0  0  0  0  0  0  0  0  0
  -36.3734  -12.2444  -12.2157 O   0  0  0  0  0  0  0  0  0  0  0  0
  -32.7007  -14.3153   -8.5196 C   0  0  2  0  0  0  0  0  0  0  0  0
  -33.8886  -13.8235   -7.8904 O   0  0  0  0  0  0  0  0  0  0  0  0
  -33.0696  -11.0534   -8.1896 C   0  0  2  0  0  0  0  0  0  0  0  0
  -31.6687  -11.2683   -8.4289 O   0  0  0  0  0  0  0  0  0  0  0  0
  -35.4929  -11.6942  -10.0322 C   0  0  0  0  0  0  0  0  0  0  0  0
  -34.0281  -11.9237  -10.4001 O   0  0  0  0  0  0  0  0  0  0  0  0
  -32.6547  -14.1410  -10.0370 C   0  0  0  0  0  0  0  0  0  0  0  0
  -31.3610  -14.5653  -10.4936 O   0  0  0  0  0  0  0  0  0  0  0  0
  -33.4591   -9.6172   -8.7214 C   0  0  1  0  0  0  0  0  0  0  0  0
  -33.2093   -9.5864  -10.1161 O   0  0  0  0  0  0  0  0  0  0  0  0
  -37.7494  -10.9610  -10.8261 C   0  0  0  0  0  0  0  0  0  0  0  0
  -36.0239   -7.9952  -13.5141 C   0  0  0  0  0  0  0  0  0  0  0  0
  1  2  1  6  0  0  0
  1  6  1  0  0  0  0
  1 21  1  0  0  0  0
  3  4  1  1  0  0  0
  3  8  1  0  0  0  0
  3 28  1  0  0  0  0
  5  9  1  0  0  0  0
  5 25  1  0  0  0  0
  5 29  1  1  0  0  0
  6  7  1  1  0  0  0
  6 11  1  0  0  0  0
  8 12  1  0  0  0  0
  9 10  1  1  0  0  0
  9 14  1  0  0  0  0
 11 16  1  0  0  0  0
 12 13  1  1  0  0  0
 12 17  1  0  0  0  0
 14 15  1  6  0  0  0
 14 18  1  0  0  0  0
 15 31  1  0  0  0  0
 16 20  1  0  0  0  0
 17  2  1  6  0  0  0
 17 22  1  0  0  0  0
 18 19  1  6  0  0  0
 18 24  1  0  0  0  0
 18 30  1  0  0  0  0
 20 21  1  0  0  0  0
 20 26  1  6  0  0  0
 22 23  1  1  0  0  0
 22 28  1  0  0  0  0
 24 25  1  0  0  0  0
 26 27  1  0  0  0  0
 28 29  1  6  0  0  0
M  END
>  <CHROM.1>
-176.49506429,135.43562016,-77.15347827,45.47201202,-5.48939472,-88.24995190
-34.05886570,-11.57993476,-9.09250531,0.85706076,-1.01262248,1.57872412

>  <Name>
ligand

>  <RI>
0

>  <Rbt.Current_Directory>
/home/itssahil/PROJECTS/Mol_Feturizer/New_Systems/rnas/4GPW

>  <Rbt.Executable>
rbdock ($Id: //depot/dev/client3/rdock/2013.1/src/exe/rbdock.cxx#4 $)

>  <Rbt.Library>
libRbt.so (2013.1, Build901 2013/11/27)

>  <Rbt.Parameter_File>
/export/apps/rDock/src/rDock_2013.1_src/data/scripts/dock_solv.prm

>  <Rbt.Receptor>
prm/blind_docking_80.prm

>  <SCORE>
36.3682

>  <SCORE.INTER>
10.1597

>  <SCORE.INTER.CONST>
1

>  <SCORE.INTER.POLAR>
0

>  <SCORE.INTER.ROT>
6

>  <SCORE.INTER.SOLV>
11.4439

>  <SCORE.INTER.VDW>
-4.64151

>  <SCORE.INTER.norm>
0.327732

>  <SCORE.INTRA>
3.14764

>  <SCORE.INTRA.DIHEDRAL>
-6.89126

>  <SCORE.INTRA.DIHEDRAL.0>
19.2558

>  <SCORE.INTRA.POLAR>
0

>  <SCORE.INTRA.POLAR.0>
0

>  <SCORE.INTRA.REPUL>
0.0487089

>  <SCORE.INTRA.REPUL.0>
0

>  <SCORE.INTRA.SOLV>
1.1771

>  <SCORE.INTRA.SOLV.lig_0>
-64.5929

>  <SCORE.INTRA.VDW>
5.76118

>  <SCORE.INTRA.VDW.0>
-4.40538

>  <SCORE.INTRA.norm>
0.101537

>  <SCORE.RESTR>
23.0609

>  <SCORE.RESTR.CAVITY>
23.0609

>  <SCORE.RESTR.norm>
0.743899

>  <SCORE.SYSTEM>
0

>  <SCORE.SYSTEM.CONST>
0

>  <SCORE.SYSTEM.DIHEDRAL>
0

>  <SCORE.SYSTEM.SOLV>
0

>  <SCORE.SYSTEM.norm>
0

>  <SCORE.heavy>
31

>  <SCORE.norm>
1.17317

>  <RMSD>
14.037

$$$$
ligand
 OpenBabel11021811493D
libRbt.so/2013.1/901 2013/11/27
 31 33  0  0  0  0  0  0  0  0999 V2000
  -34.8407  -14.0329   -8.8646 C   0  0  2  0  0  0  0  0  0  0  0  0
  -34.3626  -13.4711   -7.6512 O   0  0  0  0  0  0  0  0  0  0  0  0
  -33.4226   -9.4338   -6.6555 C   0  0  2  0  0  0  0  0  0  0  0  0
  -32.7008   -8.2045   -6.5846 N   0  0  0  0  0  0  0  0  0  0  0  0
  -34.2978   -8.0100   -9.9410 C   0  0  2  0  0  0  0  0  0  0  0  0
  -35.2559  -15.5298   -8.5495 C   0  0  2  0  0  0  0  0  0  0  0  0
  -36.2922  -15.5359   -7.5065 N   0  0  0  0  0  0  0  0  0  0  0  0
  -32.5174  -10.5843   -6.0335 C   0  0  0  0  0  0  0  0  0  0  0  0
  -35.5657   -8.2180  -10.8340 C   0  0  2  0  0  0  0  0  0  0  0  0
  -36.6886   -7.7803  -10.1058 O   0  0  0  0  0  0  0  0  0  0  0  0
  -33.9868  -16.3509   -8.0891 C   0  0  0  0  0  0  0  0  0  0  0  0
  -33.3254  -11.9577   -6.1058 C   0  0  2  0  0  0  0  0  0  0  0  0
  -32.5025  -13.0416   -5.5267 N   0  0  0  0  0  0  0  0  0  0  0  0
  -35.6896   -9.7506  -11.2199 C   0  0  1  0  0  0  0  0  0  0  0  0
  -36.9083   -9.9716  -12.0780 N   0  0  0  0  0  0  0  0  0  0  0  0
  -32.6911  -15.9809   -8.9237 C   0  0  0  0  0  0  0  0  0  0  0  0
  -33.6516  -12.2837   -7.6212 C   0  0  2  0  0  0  0  0  0  0  0  0
  -34.3671  -10.1980  -12.0554 C   0  0  1  0  0  0  0  0  0  0  0  0
  -34.2020   -9.4800  -13.2614 O   0  0  0  0  0  0  0  0  0  0  0  0
  -32.6696  -14.9007   -9.7370 C   0  0  2  0  0  0  0  0  0  0  0  0
  -33.7989  -14.0358   -9.8964 O   0  0  0  0  0  0  0  0  0  0  0  0
  -34.5361  -11.1196   -8.2299 C   0  0  2  0  0  0  0  0  0  0  0  0
  -34.8198  -11.4167   -9.6072 O   0  0  0  0  0  0  0  0  0  0  0  0
  -33.1065   -9.9577  -11.1597 C   0  0  0  0  0  0  0  0  0  0  0  0
  -33.0685   -8.5083  -10.6787 O   0  0  0  0  0  0  0  0  0  0  0  0
  -31.4401  -14.5147  -10.5580 C   0  0  0  0  0  0  0  0  0  0  0  0
  -30.3285  -14.3843   -9.6582 O   0  0  0  0  0  0  0  0  0  0  0  0
  -33.7400   -9.7564   -8.1600 C   0  0  1  0  0  0  0  0  0  0  0  0
  -34.5673   -8.7404   -8.7003 O   0  0  0  0  0  0  0  0  0  0  0  0
  -34.3466  -11.6811  -12.4831 C   0  0  0  0  0  0  0  0  0  0  0  0
  -37.5957  -11.2696  -11.9208 C   0  0  0  0  0  0  0  0  0  0  0  0
  1  2  1  1  0  0  0
  1  6  1  0  0  0  0
  1 21  1  0  0  0  0
  3  4  1  6  0  0  0
  3  8  1  0  0  0  0
  3 28  1  0  0  0  0
  5  9  1  0  0  0  0
  5 25  1  0  0  0  0
  5 29  1  1  0  0  0
  6  7  1  1  0  0  0
  6 11  1  0  0  0  0
  8 12  1  0  0  0  0
  9 10  1  1  0  0  0
  9 14  1  0  0  0  0
 11 16  1  0  0  0  0
 12 13  1  6  0  0  0
 12 17  1  0  0  0  0
 14 15  1  6  0  0  0
 14 18  1  0  0  0  0
 15 31  1  0  0  0  0
 16 20  1  0  0  0  0
 17  2  1  1  0  0  0
 17 22  1  0  0  0  0
 18 19  1  6  0  0  0
 18 24  1  0  0  0  0
 18 30  1  0  0  0  0
 20 21  1  0  0  0  0
 20 26  1  6  0  0  0
 22 23  1  6  0  0  0
 22 28  1  0  0  0  0
 24 25  1  0  0  0  0
 26 27  1  0  0  0  0
 28 29  1  1  0  0  0
M  END
>  <CHROM.1>
165.65433330,124.01597214,-147.21752480,178.47730759,-55.14050063,128.36619082
-34.10454522,-11.60544245,-9.34180867,0.86834791,1.15599246,-2.88977915

>  <Name>
ligand

>  <RI>
0

>  <Rbt.Current_Directory>
/home/itssahil/PROJECTS/Mol_Feturizer/New_Systems/rnas/4GPW

>  <Rbt.Executable>
rbdock ($Id: //depot/dev/client3/rdock/2013.1/src/exe/rbdock.cxx#4 $)

>  <Rbt.Library>
libRbt.so (2013.1, Build901 2013/11/27)

>  <Rbt.Parameter_File>
/export/apps/rDock/src/rDock_2013.1_src/data/scripts/dock_solv.prm

>  <Rbt.Receptor>
prm/blind_docking_80.prm

>  <SCORE>
37.1639

>  <SCORE.INTER>
12.9506

>  <SCORE.INTER.CONST>
1

>  <SCORE.INTER.POLAR>
0

>  <SCORE.INTER.ROT>
6

>  <SCORE.INTER.SOLV>
13.4178

>  <SCORE.INTER.VDW>
-3.43888

>  <SCORE.INTER.norm>
0.417761

>  <SCORE.INTRA>
3.42303

>  <SCORE.INTRA.DIHEDRAL>
-0.0398141

>  <SCORE.INTRA.DIHEDRAL.0>
19.2558

>  <SCORE.INTRA.POLAR>
0

>  <SCORE.INTRA.POLAR.0>
0

>  <SCORE.INTRA.REPUL>
0

>  <SCORE.INTRA.REPUL.0>
0

>  <SCORE.INTRA.SOLV>
-2.19575

>  <SCORE.INTRA.SOLV.lig_0>
-64.5929

>  <SCORE.INTRA.VDW>
4.54081

>  <SCORE.INTRA.VDW.0>
-4.40538

>  <SCORE.INTRA.norm>
0.11042

>  <SCORE.RESTR>
20.7903

>  <SCORE.RESTR.CAVITY>
20.7903

>  <SCORE.RESTR.norm>
0.670655

>  <SCORE.SYSTEM>
0

>  <SCORE.SYSTEM.CONST>
0

>  <SCORE.SYSTEM.DIHEDRAL>
0

>  <SCORE.SYSTEM.SOLV>
0

>  <SCORE.SYSTEM.norm>
0

>  <SCORE.heavy>
31

>  <SCORE.norm>
1.19884

>  <RMSD>
14.066

$$$$
ligand
 OpenBabel11021811493D
libRbt.so/2013.1/901 2013/11/27
 31 33  0  0  0  0  0  0  0  0999 V2000
  -32.7396  -13.9403   -7.1879 C   0  0  2  0  0  0  0  0  0  0  0  0
  -31.7612  -12.9249   -7.3559 O   0  0  0  0  0  0  0  0  0  0  0  0
  -33.9820   -9.4904   -6.1530 C   0  0  2  0  0  0  0  0  0  0  0  0
  -34.2820   -8.1299   -5.8425 N   0  0  0  0  0  0  0  0  0  0  0  0
  -34.5526   -8.2082   -9.5699 C   0  0  2  0  0  0  0  0  0  0  0  0
  -32.1859  -15.2399   -7.9067 C   0  0  2  0  0  0  0  0  0  0  0  0
  -30.9026  -15.6207   -7.2984 N   0  0  0  0  0  0  0  0  0  0  0  0
  -32.7828   -9.9654   -5.2222 C   0  0  0  0  0  0  0  0  0  0  0  0
  -35.8457   -8.4109  -10.4272 C   0  0  2  0  0  0  0  0  0  0  0  0
  -36.9591   -8.2740   -9.5761 O   0  0  0  0  0  0  0  0  0  0  0  0
  -32.0177  -14.9646   -9.4535 C   0  0  0  0  0  0  0  0  0  0  0  0
  -32.4508  -11.4878   -5.5633 C   0  0  2  0  0  0  0  0  0  0  0  0
  -31.3402  -11.9517   -4.7038 N   0  0  0  0  0  0  0  0  0  0  0  0
  -35.8080   -9.8448  -11.1022 C   0  0  1  0  0  0  0  0  0  0  0  0
  -37.0485  -10.0601  -11.9302 N   0  0  0  0  0  0  0  0  0  0  0  0
  -33.2063  -14.1003  -10.0472 C   0  0  0  0  0  0  0  0  0  0  0  0
  -32.0299  -11.5938   -7.0867 C   0  0  2  0  0  0  0  0  0  0  0  0
  -34.5035   -9.9438  -12.0695 C   0  0  1  0  0  0  0  0  0  0  0  0
  -34.5139   -8.9943  -13.1162 O   0  0  0  0  0  0  0  0  0  0  0  0
  -34.0904  -13.4781   -9.2347 C   0  0  2  0  0  0  0  0  0  0  0  0
  -34.0129  -13.5603   -7.8077 O   0  0  0  0  0  0  0  0  0  0  0  0
  -33.2270  -11.0990   -7.9977 C   0  0  2  0  0  0  0  0  0  0  0  0
  -32.8349  -11.1883   -9.3776 O   0  0  0  0  0  0  0  0  0  0  0  0
  -33.2213   -9.7113  -11.2029 C   0  0  0  0  0  0  0  0  0  0  0  0
  -33.3272   -8.3879  -10.4472 O   0  0  0  0  0  0  0  0  0  0  0  0
  -35.2493  -12.6388   -9.7707 C   0  0  0  0  0  0  0  0  0  0  0  0
  -36.4196  -12.9547   -9.0008 O   0  0  0  0  0  0  0  0  0  0  0  0
  -33.5602   -9.5910   -7.6630 C   0  0  1  0  0  0  0  0  0  0  0  0
  -34.6416   -9.1905   -8.4869 O   0  0  0  0  0  0  0  0  0  0  0  0
  -34.3319  -11.3023  -12.7823 C   0  0  0  0  0  0  0  0  0  0  0  0
  -37.2614   -9.1213  -13.0505 C   0  0  0  0  0  0  0  0  0  0  0  0
  1  2  1  6  0  0  0
  1  6  1  0  0  0  0
  1 21  1  0  0  0  0
  3  4  1  1  0  0  0
  3  8  1  0  0  0  0
  3 28  1  0  0  0  0
  5  9  1  0  0  0  0
  5 25  1  0  0  0  0
  5 29  1  1  0  0  0
  6  7  1  1  0  0  0
  6 11  1  0  0  0  0
  8 12  1  0  0  0  0
  9 10  1  1  0  0  0
  9 14  1  0  0  0  0
 11 16  1  0  0  0  0
 12 13  1  1  0  0  0
 12 17  1  0  0  0  0
 14 15  1  6  0  0  0
 14 18  1  0  0  0  0
 15 31  1  0  0  0  0
 16 20  1  0  0  0  0
 17  2  1  6  0  0  0
 17 22  1  0  0  0  0
 18 19  1  6  0  0  0
 18 24  1  0  0  0  0
 18 30  1  0  0  0  0
 20 21  1  0  0  0  0
 20 26  1  6  0  0  0
 22 23  1  6  0  0  0
 22 28  1  0  0  0  0
 24 25  1  0  0  0  0
 26 27  1  0  0  0  0
 28 29  1  6  0  0  0
M  END
>  <CHROM.1>
166.87714710,163.98039564,60.97363748,59.50818598,137.10830262,129.55104055
-33.93233745,-11.12610741,-9.02122838,0.02716487,1.05906142,-2.43788994

>  <Name>
ligand

>  <RI>
0

>  <Rbt.Current_Directory>
/home/itssahil/PROJECTS/Mol_Feturizer/New_Systems/rnas/4GPW

>  <Rbt.Executable>
rbdock ($Id: //depot/dev/client3/rdock/2013.1/src/exe/rbdock.cxx#4 $)

>  <Rbt.Library>
libRbt.so (2013.1, Build901 2013/11/27)

>  <Rbt.Parameter_File>
/export/apps/rDock/src/rDock_2013.1_src/data/scripts/dock_solv.prm

>  <Rbt.Receptor>
prm/blind_docking_80.prm

>  <SCORE>
35.7384

>  <SCORE.INTER>
8.29252

>  <SCORE.INTER.CONST>
1

>  <SCORE.INTER.POLAR>
0

>  <SCORE.INTER.ROT>
6

>  <SCORE.INTER.SOLV>
12.0446

>  <SCORE.INTER.VDW>
-6.08651

>  <SCORE.INTER.norm>
0.267501

>  <SCORE.INTRA>
7.25908

>  <SCORE.INTRA.DIHEDRAL>
-8.4455

>  <SCORE.INTRA.DIHEDRAL.0>
19.2558

>  <SCORE.INTRA.POLAR>
0

>  <SCORE.INTRA.POLAR.0>
0

>  <SCORE.INTRA.REPUL>
0

>  <SCORE.INTRA.REPUL.0>
0

>  <SCORE.INTRA.SOLV>
-1.1802

>  <SCORE.INTRA.SOLV.lig_0>
-64.5929

>  <SCORE.INTRA.VDW>
12.0719

>  <SCORE.INTRA.VDW.0>
-4.40538

>  <SCORE.INTRA.norm>
0.234164

>  <SCORE.RESTR>
20.1868

>  <SCORE.RESTR.CAVITY>
20.1868

>  <SCORE.RESTR.norm>
0.651186

>  <SCORE.SYSTEM>
0

>  <SCORE.SYSTEM.CONST>
0

>  <SCORE.SYSTEM.DIHEDRAL>
0

>  <SCORE.SYSTEM.SOLV>
0

>  <SCORE.SYSTEM.norm>
0

>  <SCORE.heavy>
31

>  <SCORE.norm>
1.15285

>  <RMSD>
14.074

$$$$
ligand
 OpenBabel11021811493D
libRbt.so/2013.1/901 2013/11/27
 31 33  0  0  0  0  0  0  0  0999 V2000
  -32.6887  -13.9071   -7.2596 C   0  0  2  0  0  0  0  0  0  0  0  0
  -31.7890  -12.8346   -7.4984 O   0  0  0  0  0  0  0  0  0  0  0  0
  -34.1170   -9.5182   -6.1732 C   0  0  2  0  0  0  0  0  0  0  0  0
  -34.4489   -8.1895   -5.7711 N   0  0  0  0  0  0  0  0  0  0  0  0
  -34.3858   -8.2300   -9.7273 C   0  0  2  0  0  0  0  0  0  0  0  0
  -32.2427  -15.1032   -8.1992 C   0  0  2  0  0  0  0  0  0  0  0  0
  -30.8575  -15.4793   -7.8804 N   0  0  0  0  0  0  0  0  0  0  0  0
  -32.9846  -10.0689   -5.2014 C   0  0  0  0  0  0  0  0  0  0  0  0
  -35.6539   -8.4574  -10.6153 C   0  0  2  0  0  0  0  0  0  0  0  0
  -36.7861   -8.0998   -9.8584 O   0  0  0  0  0  0  0  0  0  0  0  0
  -32.3762  -14.6719   -9.7134 C   0  0  0  0  0  0  0  0  0  0  0  0
  -32.6174  -11.5563   -5.6453 C   0  0  2  0  0  0  0  0  0  0  0  0
  -31.5683  -12.0902   -4.7498 N   0  0  0  0  0  0  0  0  0  0  0  0
  -35.7151   -9.9770  -11.0627 C   0  0  1  0  0  0  0  0  0  0  0  0
  -36.9330  -10.2167  -11.9169 N   0  0  0  0  0  0  0  0  0  0  0  0
  -33.6796  -13.8119   -9.9851 C   0  0  0  0  0  0  0  0  0  0  0  0
  -32.0866  -11.5317   -7.1376 C   0  0  2  0  0  0  0  0  0  0  0  0
  -34.3842  -10.3310  -11.9292 C   0  0  1  0  0  0  0  0  0  0  0  0
  -34.2651   -9.5579  -13.1063 O   0  0  0  0  0  0  0  0  0  0  0  0
  -34.4128  -13.3142   -8.9636 C   0  0  2  0  0  0  0  0  0  0  0  0
  -34.0662  -13.5301   -7.5917 O   0  0  0  0  0  0  0  0  0  0  0  0
  -33.2184  -10.9629   -8.0879 C   0  0  2  0  0  0  0  0  0  0  0  0
  -32.7269  -10.9338   -9.4382 O   0  0  0  0  0  0  0  0  0  0  0  0
  -33.1248  -10.0717  -11.0372 C   0  0  0  0  0  0  0  0  0  0  0  0
  -33.1447   -8.6429  -10.4973 O   0  0  0  0  0  0  0  0  0  0  0  0
  -35.6755  -12.4832   -9.1871 C   0  0  0  0  0  0  0  0  0  0  0  0
  -36.2989  -12.9397  -10.3975 O   0  0  0  0  0  0  0  0  0  0  0  0
  -33.5863   -9.4893   -7.6517 C   0  0  1  0  0  0  0  0  0  0  0  0
  -34.6083   -9.0215   -8.5151 O   0  0  0  0  0  0  0  0  0  0  0  0
  -34.3038  -11.7931  -12.4179 C   0  0  0  0  0  0  0  0  0  0  0  0
  -37.0605   -9.3809  -13.1281 C   0  0  0  0  0  0  0  0  0  0  0  0
  1  2  1  6  0  0  0
  1  6  1  0  0  0  0
  1 21  1  0  0  0  0
  3  4  1  1  0  0  0
  3  8  1  0  0  0  0
  3 28  1  0  0  0  0
  5  9  1  0  0  0  0
  5 25  1  0  0  0  0
  5 29  1  1  0  0  0
  6  7  1  1  0  0  0
  6 11  1  0  0  0  0
  8 12  1  0  0  0  0
  9 10  1  1  0  0  0
  9 14  1  0  0  0  0
 11 16  1  0  0  0  0
 12 13  1  1  0  0  0
 12 17  1  0  0  0  0
 14 15  1  6  0  0  0
 14 18  1  0  0  0  0
 15 31  1  0  0  0  0
 16 20  1  0  0  0  0
 17  2  1  6  0  0  0
 17 22  1  0  0  0  0
 18 19  1  6  0  0  0
 18 24  1  0  0  0  0
 18 30  1  0  0  0  0
 20 21  1  0  0  0  0
 20 26  1  1  0  0  0
 22 23  1  6  0  0  0
 22 28  1  0  0  0  0
 24 25  1  0  0  0  0
 26 27  1  0  0  0  0
 28 29  1  6  0  0  0
M  END
>  <CHROM.1>
161.85815364,157.32835062,56.81520258,47.73103992,31.37615598,147.02632850
-33.95113499,-11.15358000,-9.08847811,-0.03931192,1.05984406,-2.42774596

>  <Name>
ligand

>  <RI>
0

>  <Rbt.Current_Directory>
/home/itssahil/PROJECTS/Mol_Feturizer/New_Systems/rnas/4GPW

>  <Rbt.Executable>
rbdock ($Id: //depot/dev/client3/rdock/2013.1/src/exe/rbdock.cxx#4 $)

>  <Rbt.Library>
libRbt.so (2013.1, Build901 2013/11/27)

>  <Rbt.Parameter_File>
/export/apps/rDock/src/rDock_2013.1_src/data/scripts/dock_solv.prm

>  <Rbt.Receptor>
prm/blind_docking_80.prm

>  <SCORE>
38.4957

>  <SCORE.INTER>
4.33956

>  <SCORE.INTER.CONST>
1

>  <SCORE.INTER.POLAR>
0

>  <SCORE.INTER.ROT>
6

>  <SCORE.INTER.SOLV>
13.1042

>  <SCORE.INTER.VDW>
-9.07502

>  <SCORE.INTER.norm>
0.139986

>  <SCORE.INTRA>
16.0849

>  <SCORE.INTRA.DIHEDRAL>
-7.90117

>  <SCORE.INTRA.DIHEDRAL.0>
19.2558

>  <SCORE.INTRA.POLAR>
0

>  <SCORE.INTRA.POLAR.0>
0

>  <SCORE.INTRA.REPUL>
0

>  <SCORE.INTRA.REPUL.0>
0

>  <SCORE.INTRA.SOLV>
-0.107297

>  <SCORE.INTRA.SOLV.lig_0>
-64.5929

>  <SCORE.INTRA.VDW>
20.0892

>  <SCORE.INTRA.VDW.0>
-4.40538

>  <SCORE.INTRA.norm>
0.518869

>  <SCORE.RESTR>
18.0712

>  <SCORE.RESTR.CAVITY>
18.0712

>  <SCORE.RESTR.norm>
0.582942

>  <SCORE.SYSTEM>
0

>  <SCORE.SYSTEM.CONST>
0

>  <SCORE.SYSTEM.DIHEDRAL>
0

>  <SCORE.SYSTEM.SOLV>
0

>  <SCORE.SYSTEM.norm>
0

>  <SCORE.heavy>
31

>  <SCORE.norm>
1.2418

>  <RMSD>
14.091

$$$$
ligand
 OpenBabel11021811493D
libRbt.so/2013.1/901 2013/11/27
 31 33  0  0  0  0  0  0  0  0999 V2000
  -32.6392  -14.2923   -7.4747 C   0  0  2  0  0  0  0  0  0  0  0  0
  -31.6936  -13.2330   -7.4534 O   0  0  0  0  0  0  0  0  0  0  0  0
  -34.0687  -10.0957   -5.8131 C   0  0  2  0  0  0  0  0  0  0  0  0
  -34.4238   -8.8118   -5.3004 N   0  0  0  0  0  0  0  0  0  0  0  0
  -34.5398   -8.2814   -8.9928 C   0  0  2  0  0  0  0  0  0  0  0  0
  -32.0541  -15.4158   -8.4275 C   0  0  2  0  0  0  0  0  0  0  0  0
  -30.7537  -15.8632   -7.9073 N   0  0  0  0  0  0  0  0  0  0  0  0
  -32.8948  -10.6871   -4.9175 C   0  0  0  0  0  0  0  0  0  0  0  0
  -35.8532   -8.2959   -9.8430 C   0  0  2  0  0  0  0  0  0  0  0  0
  -36.9469   -8.2792   -8.9562 O   0  0  0  0  0  0  0  0  0  0  0  0
  -31.9103  -14.8499   -9.8957 C   0  0  0  0  0  0  0  0  0  0  0  0
  -32.5015  -12.1249   -5.4852 C   0  0  2  0  0  0  0  0  0  0  0  0
  -31.4135  -12.6960   -4.6621 N   0  0  0  0  0  0  0  0  0  0  0  0
  -35.8715   -9.5906  -10.7577 C   0  0  1  0  0  0  0  0  0  0  0  0
  -37.1322   -9.6241  -11.5824 N   0  0  0  0  0  0  0  0  0  0  0  0
  -33.1305  -13.9274  -10.3110 C   0  0  0  0  0  0  0  0  0  0  0  0
  -32.0148  -11.9707   -6.9847 C   0  0  2  0  0  0  0  0  0  0  0  0
  -34.5877   -9.5550  -11.7565 C   0  0  1  0  0  0  0  0  0  0  0  0
  -34.5869   -8.4375  -12.6217 O   0  0  0  0  0  0  0  0  0  0  0  0
  -34.0244  -13.4970   -9.3921 C   0  0  2  0  0  0  0  0  0  0  0  0
  -33.9297  -13.8430   -8.0064 O   0  0  0  0  0  0  0  0  0  0  0  0
  -33.1881  -11.3628   -7.8575 C   0  0  2  0  0  0  0  0  0  0  0  0
  -32.7366  -11.2161   -9.2141 O   0  0  0  0  0  0  0  0  0  0  0  0
  -33.2841   -9.5123  -10.8917 C   0  0  0  0  0  0  0  0  0  0  0  0
  -33.3359   -8.3388   -9.9153 O   0  0  0  0  0  0  0  0  0  0  0  0
  -35.2135  -12.6089   -9.7557 C   0  0  0  0  0  0  0  0  0  0  0  0
  -36.3420  -13.0376   -8.9778 O   0  0  0  0  0  0  0  0  0  0  0  0
  -33.5819   -9.9382   -7.2985 C   0  0  1  0  0  0  0  0  0  0  0  0
  -34.6402   -9.4347   -8.0954 O   0  0  0  0  0  0  0  0  0  0  0  0
  -34.4705  -10.7724  -12.6984 C   0  0  0  0  0  0  0  0  0  0  0  0
  -37.6202  -10.9597  -11.9821 C   0  0  0  0  0  0  0  0  0  0  0  0
  1  2  1  6  0  0  0
  1  6  1  0  0  0  0
  1 21  1  0  0  0  0
  3  4  1  1  0  0  0
  3  8  1  0  0  0  0
  3 28  1  0  0  0  0
  5  9  1  0  0  0  0
  5 25  1  0  0  0  0
  5 29  1  1  0  0  0
  6  7  1  1  0  0  0
  6 11  1  0  0  0  0
  8 12  1  0  0  0  0
  9 10  1  1  0  0  0
  9 14  1  0  0  0  0
 11 16  1  0  0  0  0
 12 13  1  1  0  0  0
 12 17  1  0  0  0  0
 14 15  1  6  0  0  0
 14 18  1  0  0  0  0
 15 31  1  0  0  0  0
 16 20  1  0  0  0  0
 17  2  1  6  0  0  0
 17 22  1  0  0  0  0
 18 19  1  6  0  0  0
 18 24  1  0  0  0  0
 18 30  1  0  0  0  0
 20 21  1  0  0  0  0
 20 26  1  6  0  0  0
 22 23  1  6  0  0  0
 22 28  1  0  0  0  0
 24 25  1  0  0  0  0
 26 27  1  0  0  0  0
 28 29  1  6  0  0  0
M  END
>  <CHROM.1>
164.35997720,169.16837052,-152.42172105,58.34525990,141.35431223,129.11359517
-33.94161550,-11.29215346,-8.84878122,0.01409709,1.03148195,-2.29635991

>  <Name>
ligand

>  <RI>
0

>  <Rbt.Current_Directory>
/home/itssahil/PROJECTS/Mol_Feturizer/New_Systems/rnas/4GPW

>  <Rbt.Executable>
rbdock ($Id: //depot/dev/client3/rdock/2013.1/src/exe/rbdock.cxx#4 $)

>  <Rbt.Library>
libRbt.so (2013.1, Build901 2013/11/27)

>  <Rbt.Parameter_File>
/export/apps/rDock/src/rDock_2013.1_src/data/scripts/dock_solv.prm

>  <Rbt.Receptor>
prm/blind_docking_80.prm

>  <SCORE>
31.122

>  <SCORE.INTER>
7.03018

>  <SCORE.INTER.CONST>
1

>  <SCORE.INTER.POLAR>
0

>  <SCORE.INTER.ROT>
6

>  <SCORE.INTER.SOLV>
11.5287

>  <SCORE.INTER.VDW>
-6.75611

>  <SCORE.INTER.norm>
0.22678

>  <SCORE.INTRA>
3.46558

>  <SCORE.INTRA.DIHEDRAL>
-7.9979

>  <SCORE.INTRA.DIHEDRAL.0>
19.2558

>  <SCORE.INTRA.POLAR>
0

>  <SCORE.INTRA.POLAR.0>
0

>  <SCORE.INTRA.REPUL>
0

>  <SCORE.INTRA.REPUL.0>
0

>  <SCORE.INTRA.SOLV>
-1.43537

>  <SCORE.INTRA.SOLV.lig_0>
-64.5929

>  <SCORE.INTRA.VDW>
8.18221

>  <SCORE.INTRA.VDW.0>
-4.40538

>  <SCORE.INTRA.norm>
0.111793

>  <SCORE.RESTR>
20.6263

>  <SCORE.RESTR.CAVITY>
20.6263

>  <SCORE.RESTR.norm>
0.665363

>  <SCORE.SYSTEM>
0

>  <SCORE.SYSTEM.CONST>
0

>  <SCORE.SYSTEM.DIHEDRAL>
0

>  <SCORE.SYSTEM.SOLV>
0

>  <SCORE.SYSTEM.norm>
0

>  <SCORE.heavy>
31

>  <SCORE.norm>
1.00394

>  <RMSD>
14.093

$$$$
ligand
 OpenBabel11021811493D
libRbt.so/2013.1/901 2013/11/27
 31 33  0  0  0  0  0  0  0  0999 V2000
  -32.7281  -14.5233   -7.4757 C   0  0  2  0  0  0  0  0  0  0  0  0
  -31.8337  -13.4409   -7.2641 O   0  0  0  0  0  0  0  0  0  0  0  0
  -34.4980  -10.4360   -5.8333 C   0  0  2  0  0  0  0  0  0  0  0  0
  -34.9523   -9.2300   -5.2198 N   0  0  0  0  0  0  0  0  0  0  0  0
  -33.7851   -8.4979   -9.0636 C   0  0  2  0  0  0  0  0  0  0  0  0
  -32.0478  -15.4853   -8.5360 C   0  0  2  0  0  0  0  0  0  0  0  0
  -30.7548  -15.9480   -8.0109 N   0  0  0  0  0  0  0  0  0  0  0  0
  -33.6602  -11.2601   -4.7614 C   0  0  0  0  0  0  0  0  0  0  0  0
  -35.0163   -7.8802   -9.8058 C   0  0  2  0  0  0  0  0  0  0  0  0
  -35.8219   -7.2325   -8.8497 O   0  0  0  0  0  0  0  0  0  0  0  0
  -31.8598  -14.7222   -9.9068 C   0  0  0  0  0  0  0  0  0  0  0  0
  -33.1574  -12.6114   -5.4436 C   0  0  2  0  0  0  0  0  0  0  0  0
  -32.3795  -13.3966   -4.4609 N   0  0  0  0  0  0  0  0  0  0  0  0
  -35.8138   -9.0323  -10.5473 C   0  0  1  0  0  0  0  0  0  0  0  0
  -37.0066   -8.4567  -11.2659 N   0  0  0  0  0  0  0  0  0  0  0  0
  -33.0994  -13.8000  -10.2611 C   0  0  0  0  0  0  0  0  0  0  0  0
  -32.2433  -12.2515   -6.6862 C   0  0  2  0  0  0  0  0  0  0  0  0
  -34.8343   -9.7429  -11.6350 C   0  0  1  0  0  0  0  0  0  0  0  0
  -34.3711   -8.8536  -12.6309 O   0  0  0  0  0  0  0  0  0  0  0  0
  -34.0548  -13.5317   -9.3424 C   0  0  2  0  0  0  0  0  0  0  0  0
  -34.0108  -14.0568   -8.0115 O   0  0  0  0  0  0  0  0  0  0  0  0
  -33.0868  -11.4151   -7.7335 C   0  0  2  0  0  0  0  0  0  0  0  0
  -32.2489  -11.0833   -8.8532 O   0  0  0  0  0  0  0  0  0  0  0  0
  -33.5952  -10.3306  -10.8811 C   0  0  0  0  0  0  0  0  0  0  0  0
  -32.9114   -9.2403  -10.0582 O   0  0  0  0  0  0  0  0  0  0  0  0
  -35.2642  -12.6495   -9.6484 C   0  0  0  0  0  0  0  0  0  0  0  0
  -36.4309  -13.4865   -9.6673 O   0  0  0  0  0  0  0  0  0  0  0  0
  -33.5878  -10.0752   -7.0621 C   0  0  1  0  0  0  0  0  0  0  0  0
  -34.3470   -9.3632   -8.0239 O   0  0  0  0  0  0  0  0  0  0  0  0
  -35.4806  -10.9023  -12.4230 C   0  0  0  0  0  0  0  0  0  0  0  0
  -36.7227   -7.4449  -12.3039 C   0  0  0  0  0  0  0  0  0  0  0  0
  1  2  1  6  0  0  0
  1  6  1  0  0  0  0
  1 21  1  0  0  0  0
  3  4  1  1  0  0  0
  3  8  1  0  0  0  0
  3 28  1  0  0  0  0
  5  9  1  0  0  0  0
  5 25  1  0  0  0  0
  5 29  1  1  0  0  0
  6  7  1  1  0  0  0
  6 11  1  0  0  0  0
  8 12  1  0  0  0  0
  9 10  1  1  0  0  0
  9 14  1  0  0  0  0
 11 16  1  0  0  0  0
 12 13  1  1  0  0  0
 12 17  1  0  0  0  0
 14 15  1  6  0  0  0
 14 18  1  0  0  0  0
 15 31  1  0  0  0  0
 16 20  1  0  0  0  0
 17  2  1  6  0  0  0
 17 22  1  0  0  0  0
 18 19  1  6  0  0  0
 18 24  1  0  0  0  0
 18 30  1  0  0  0  0
 20 21  1  0  0  0  0
 20 26  1  6  0  0  0
 22 23  1  6  0  0  0
 22 28  1  0  0  0  0
 24 25  1  0  0  0  0
 26 27  1  0  0  0  0
 28 29  1  6  0  0  0
M  END
>  <CHROM.1>
162.41527697,-176.64301771,60.15659479,44.04151736,110.68340393,158.98624141
-33.93841934,-11.28022216,-8.80198826,-0.13254216,1.13407039,-2.03222899

>  <Name>
ligand

>  <RI>
0

>  <Rbt.Current_Directory>
/home/itssahil/PROJECTS/Mol_Feturizer/New_Systems/rnas/4GPW

>  <Rbt.Executable>
rbdock ($Id: //depot/dev/client3/rdock/2013.1/src/exe/rbdock.cxx#4 $)

>  <Rbt.Library>
libRbt.so (2013.1, Build901 2013/11/27)

>  <Rbt.Parameter_File>
/export/apps/rDock/src/rDock_2013.1_src/data/scripts/dock_solv.prm

>  <Rbt.Receptor>
prm/blind_docking_80.prm

>  <SCORE>
32.0708

>  <SCORE.INTER>
9.35079

>  <SCORE.INTER.CONST>
1

>  <SCORE.INTER.POLAR>
0

>  <SCORE.INTER.ROT>
6

>  <SCORE.INTER.SOLV>
11.7029

>  <SCORE.INTER.VDW>
-5.2671

>  <SCORE.INTER.norm>
0.301638

>  <SCORE.INTRA>
1.2345

>  <SCORE.INTRA.DIHEDRAL>
-12.8232

>  <SCORE.INTRA.DIHEDRAL.0>
19.2558

>  <SCORE.INTRA.POLAR>
0

>  <SCORE.INTRA.POLAR.0>
0

>  <SCORE.INTRA.REPUL>
0

>  <SCORE.INTRA.REPUL.0>
0

>  <SCORE.INTRA.SOLV>
-1.59159

>  <SCORE.INTRA.SOLV.lig_0>
-64.5929

>  <SCORE.INTRA.VDW>
8.44188

>  <SCORE.INTRA.VDW.0>
-4.40538

>  <SCORE.INTRA.norm>
0.0398226

>  <SCORE.RESTR>
21.4855

>  <SCORE.RESTR.CAVITY>
21.4855

>  <SCORE.RESTR.norm>
0.69308

>  <SCORE.SYSTEM>
0

>  <SCORE.SYSTEM.CONST>
0

>  <SCORE.SYSTEM.DIHEDRAL>
0

>  <SCORE.SYSTEM.SOLV>
0

>  <SCORE.SYSTEM.norm>
0

>  <SCORE.heavy>
31

>  <SCORE.norm>
1.03454

>  <RMSD>
14.094

$$$$
ligand
 OpenBabel11021811493D
libRbt.so/2013.1/901 2013/11/27
 31 33  0  0  0  0  0  0  0  0999 V2000
  -32.7306  -14.0097   -7.0518 C   0  0  2  0  0  0  0  0  0  0  0  0
  -31.7723  -13.0073   -7.3574 O   0  0  0  0  0  0  0  0  0  0  0  0
  -33.8926   -9.5054   -6.1676 C   0  0  2  0  0  0  0  0  0  0  0  0
  -34.1590   -8.1325   -5.8822 N   0  0  0  0  0  0  0  0  0  0  0  0
  -34.5630   -8.2928   -9.5885 C   0  0  2  0  0  0  0  0  0  0  0  0
  -32.3405  -15.2948   -7.8937 C   0  0  2  0  0  0  0  0  0  0  0  0
  -30.9807  -15.7187   -7.5289 N   0  0  0  0  0  0  0  0  0  0  0  0
  -32.6696   -9.9775   -5.2669 C   0  0  0  0  0  0  0  0  0  0  0  0
  -35.8527   -8.5427  -10.4385 C   0  0  2  0  0  0  0  0  0  0  0  0
  -36.9675   -8.4121   -9.5883 O   0  0  0  0  0  0  0  0  0  0  0  0
  -32.4360  -14.9718   -9.4374 C   0  0  0  0  0  0  0  0  0  0  0  0
  -32.3749  -11.5136   -5.5798 C   0  0  2  0  0  0  0  0  0  0  0  0
  -31.2428  -11.9749   -4.7475 N   0  0  0  0  0  0  0  0  0  0  0  0
  -35.7842   -9.9897  -11.0824 C   0  0  1  0  0  0  0  0  0  0  0  0
  -37.0208  -10.2504  -11.9030 N   0  0  0  0  0  0  0  0  0  0  0  0
  -33.6886  -14.0669   -9.7901 C   0  0  0  0  0  0  0  0  0  0  0  0
  -32.0094  -11.6654   -7.1136 C   0  0  2  0  0  0  0  0  0  0  0  0
  -34.4793  -10.0807  -12.0500 C   0  0  1  0  0  0  0  0  0  0  0  0
  -34.5124   -9.1546  -13.1170 O   0  0  0  0  0  0  0  0  0  0  0  0
  -34.4038  -13.4558   -8.8185 C   0  0  2  0  0  0  0  0  0  0  0  0
  -34.0826  -13.5863   -7.4298 O   0  0  0  0  0  0  0  0  0  0  0  0
  -33.2294  -11.1730   -7.9951 C   0  0  2  0  0  0  0  0  0  0  0  0
  -32.8873  -11.3039   -9.3850 O   0  0  0  0  0  0  0  0  0  0  0  0
  -33.2012   -9.8010  -11.1913 C   0  0  0  0  0  0  0  0  0  0  0  0
  -33.3353   -8.4642  -10.4643 O   0  0  0  0  0  0  0  0  0  0  0  0
  -35.6178  -12.5784   -9.1204 C   0  0  0  0  0  0  0  0  0  0  0  0
  -36.0912  -12.9123  -10.4344 O   0  0  0  0  0  0  0  0  0  0  0  0
  -33.5256   -9.6514   -7.6882 C   0  0  1  0  0  0  0  0  0  0  0  0
  -34.6284   -9.2530   -8.4844 O   0  0  0  0  0  0  0  0  0  0  0  0
  -34.2786  -11.4502  -12.7336 C   0  0  0  0  0  0  0  0  0  0  0  0
  -37.2781   -9.3165  -13.0180 C   0  0  0  0  0  0  0  0  0  0  0  0
  1  2  1  6  0  0  0
  1  6  1  0  0  0  0
  1 21  1  0  0  0  0
  3  4  1  6  0  0  0
  3  8  1  0  0  0  0
  3 28  1  0  0  0  0
  5  9  1  0  0  0  0
  5 25  1  0  0  0  0
  5 29  1  1  0  0  0
  6  7  1  1  0  0  0
  6 11  1  0  0  0  0
  8 12  1  0  0  0  0
  9 10  1  1  0  0  0
  9 14  1  0  0  0  0
 11 16  1  0  0  0  0
 12 13  1  1  0  0  0
 12 17  1  0  0  0  0
 14 15  1  6  0  0  0
 14 18  1  0  0  0  0
 15 31  1  0  0  0  0
 16 20  1  0  0  0  0
 17  2  1  1  0  0  0
 17 22  1  0  0  0  0
 18 19  1  6  0  0  0
 18 24  1  0  0  0  0
 18 30  1  0  0  0  0
 20 21  1  0  0  0  0
 20 26  1  1  0  0  0
 22 23  1  6  0  0  0
 22 28  1  0  0  0  0
 24 25  1  0  0  0  0
 26 27  1  0  0  0  0
 28 29  1  6  0  0  0
M  END
>  <CHROM.1>
161.05310649,161.33075046,59.18589001,55.51903721,19.81703799,129.08125843
-33.96116664,-11.19564770,-9.02434446,0.09164368,1.05695533,-2.55885618

>  <Name>
ligand

>  <RI>
0

>  <Rbt.Current_Directory>
/home/itssahil/PROJECTS/Mol_Feturizer/New_Systems/rnas/4GPW

>  <Rbt.Executable>
rbdock ($Id: //depot/dev/client3/rdock/2013.1/src/exe/rbdock.cxx#4 $)

>  <Rbt.Library>
libRbt.so (2013.1, Build901 2013/11/27)

>  <Rbt.Parameter_File>
/export/apps/rDock/src/rDock_2013.1_src/data/scripts/dock_solv.prm

>  <Rbt.Receptor>
prm/blind_docking_80.prm

>  <SCORE>
36.8816

>  <SCORE.INTER>
7.56055

>  <SCORE.INTER.CONST>
1

>  <SCORE.INTER.POLAR>
0

>  <SCORE.INTER.ROT>
6

>  <SCORE.INTER.SOLV>
11.944

>  <SCORE.INTER.VDW>
-6.54098

>  <SCORE.INTER.norm>
0.243889

>  <SCORE.INTRA>
9.67774

>  <SCORE.INTRA.DIHEDRAL>
-6.98871

>  <SCORE.INTRA.DIHEDRAL.0>
19.2558

>  <SCORE.INTRA.POLAR>
0

>  <SCORE.INTRA.POLAR.0>
0

>  <SCORE.INTRA.REPUL>
0

>  <SCORE.INTRA.REPUL.0>
0

>  <SCORE.INTRA.SOLV>
-0.210541

>  <SCORE.INTRA.SOLV.lig_0>
-64.5929

>  <SCORE.INTRA.VDW>
13.2774

>  <SCORE.INTRA.VDW.0>
-4.40538

>  <SCORE.INTRA.norm>
0.312185

>  <SCORE.RESTR>
19.6433

>  <SCORE.RESTR.CAVITY>
19.6433

>  <SCORE.RESTR.norm>
0.633654

>  <SCORE.SYSTEM>
0

>  <SCORE.SYSTEM.CONST>
0

>  <SCORE.SYSTEM.DIHEDRAL>
0

>  <SCORE.SYSTEM.SOLV>
0

>  <SCORE.SYSTEM.norm>
0

>  <SCORE.heavy>
31

>  <SCORE.norm>
1.18973

>  <RMSD>
14.109

$$$$
ligand
 OpenBabel11021811493D
libRbt.so/2013.1/901 2013/11/27
 31 33  0  0  0  0  0  0  0  0999 V2000
  -32.8992  -13.9528   -6.9323 C   0  0  2  0  0  0  0  0  0  0  0  0
  -31.8662  -13.0284   -7.2407 O   0  0  0  0  0  0  0  0  0  0  0  0
  -33.7802   -9.3515   -6.2448 C   0  0  2  0  0  0  0  0  0  0  0  0
  -33.9754   -7.9498   -6.0594 N   0  0  0  0  0  0  0  0  0  0  0  0
  -34.5674   -8.3453   -9.6917 C   0  0  2  0  0  0  0  0  0  0  0  0
  -32.3946  -15.3822   -7.3958 C   0  0  2  0  0  0  0  0  0  0  0  0
  -31.1482  -15.7091   -6.6876 N   0  0  0  0  0  0  0  0  0  0  0  0
  -32.5366   -9.8063   -5.3635 C   0  0  0  0  0  0  0  0  0  0  0  0
  -35.8588   -8.6542  -10.5193 C   0  0  2  0  0  0  0  0  0  0  0  0
  -36.9700   -8.4945   -9.6693 O   0  0  0  0  0  0  0  0  0  0  0  0
  -32.1734  -15.3895   -8.9603 C   0  0  0  0  0  0  0  0  0  0  0  0
  -32.3213  -11.3740   -5.5643 C   0  0  2  0  0  0  0  0  0  0  0  0
  -31.1712  -11.8193   -4.7481 N   0  0  0  0  0  0  0  0  0  0  0  0
  -35.7757  -10.1312  -11.0892 C   0  0  1  0  0  0  0  0  0  0  0  0
  -37.0138  -10.4488  -11.8872 N   0  0  0  0  0  0  0  0  0  0  0  0
  -33.3009  -14.5886   -9.7347 C   0  0  0  0  0  0  0  0  0  0  0  0
  -32.0355  -11.6622   -7.0955 C   0  0  2  0  0  0  0  0  0  0  0  0
  -34.4756  -10.2550  -12.0597 C   0  0  1  0  0  0  0  0  0  0  0  0
  -34.5271   -9.3849  -13.1721 O   0  0  0  0  0  0  0  0  0  0  0  0
  -34.1722  -13.7941   -9.0728 C   0  0  2  0  0  0  0  0  0  0  0  0
  -34.1353  -13.6290   -7.6515 O   0  0  0  0  0  0  0  0  0  0  0  0
  -33.2742  -11.1858   -7.9594 C   0  0  2  0  0  0  0  0  0  0  0  0
  -33.0041  -11.4408   -9.3479 O   0  0  0  0  0  0  0  0  0  0  0  0
  -33.1961   -9.9160  -11.2248 C   0  0  0  0  0  0  0  0  0  0  0  0
  -33.3429   -8.5457  -10.5658 O   0  0  0  0  0  0  0  0  0  0  0  0
  -35.2728  -13.0092   -9.7852 C   0  0  0  0  0  0  0  0  0  0  0  0
  -35.8549  -12.1009   -8.8374 O   0  0  0  0  0  0  0  0  0  0  0  0
  -33.4921   -9.6330   -7.7633 C   0  0  1  0  0  0  0  0  0  0  0  0
  -34.6137   -9.2488   -8.5398 O   0  0  0  0  0  0  0  0  0  0  0  0
  -34.2616  -11.6549  -12.6741 C   0  0  0  0  0  0  0  0  0  0  0  0
  -37.5398  -11.8235  -11.7640 C   0  0  0  0  0  0  0  0  0  0  0  0
  1  2  1  6  0  0  0
  1  6  1  0  0  0  0
  1 21  1  0  0  0  0
  3  4  1  6  0  0  0
  3  8  1  0  0  0  0
  3 28  1  0  0  0  0
  5  9  1  0  0  0  0
  5 25  1  0  0  0  0
  5 29  1  1  0  0  0
  6  7  1  1  0  0  0
  6 11  1  0  0  0  0
  8 12  1  0  0  0  0
  9 10  1  1  0  0  0
  9 14  1  0  0  0  0
 11 16  1  0  0  0  0
 12 13  1  1  0  0  0
 12 17  1  0  0  0  0
 14 15  1  6  0  0  0
 14 18  1  0  0  0  0
 15 31  1  0  0  0  0
 16 20  1  0  0  0  0
 17  2  1  1  0  0  0
 17 22  1  0  0  0  0
 18 19  1  6  0  0  0
 18 24  1  0  0  0  0
 18 30  1  0  0  0  0
 20 21  1  0  0  0  0
 20 26  1  1  0  0  0
 22 23  1  6  0  0  0
 22 28  1  0  0  0  0
 24 25  1  0  0  0  0
 26 27  1  0  0  0  0
 28 29  1  6  0  0  0
M  END
>  <CHROM.1>
173.03072055,158.75623356,-142.31280510,61.64988836,-170.00187964,126.85560656
-33.92758497,-11.33335808,-8.91875032,0.22036782,1.04173149,-2.70376603

>  <Name>
ligand

>  <RI>
0

>  <Rbt.Current_Directory>
/home/itssahil/PROJECTS/Mol_Feturizer/New_Systems/rnas/4GPW

>  <Rbt.Executable>
rbdock ($Id: //depot/dev/client3/rdock/2013.1/src/exe/rbdock.cxx#4 $)

>  <Rbt.Library>
libRbt.so (2013.1, Build901 2013/11/27)

>  <Rbt.Parameter_File>
/export/apps/rDock/src/rDock_2013.1_src/data/scripts/dock_solv.prm

>  <Rbt.Receptor>
prm/blind_docking_80.prm

>  <SCORE>
31.2185

>  <SCORE.INTER>
6.36999

>  <SCORE.INTER.CONST>
1

>  <SCORE.INTER.POLAR>
0

>  <SCORE.INTER.ROT>
6

>  <SCORE.INTER.SOLV>
11.0307

>  <SCORE.INTER.VDW>
-7.03024

>  <SCORE.INTER.norm>
0.205483

>  <SCORE.INTRA>
4.58578

>  <SCORE.INTRA.DIHEDRAL>
-5.7219

>  <SCORE.INTRA.DIHEDRAL.0>
19.2558

>  <SCORE.INTRA.POLAR>
0

>  <SCORE.INTRA.POLAR.0>
0

>  <SCORE.INTRA.REPUL>
0

>  <SCORE.INTRA.REPUL.0>
0

>  <SCORE.INTRA.SOLV>
0.0705193

>  <SCORE.INTRA.SOLV.lig_0>
-64.5929

>  <SCORE.INTRA.VDW>
7.41147

>  <SCORE.INTRA.VDW.0>
-4.40538

>  <SCORE.INTRA.norm>
0.147928

>  <SCORE.RESTR>
20.2627

>  <SCORE.RESTR.CAVITY>
20.2627

>  <SCORE.RESTR.norm>
0.653637

>  <SCORE.SYSTEM>
0

>  <SCORE.SYSTEM.CONST>
0

>  <SCORE.SYSTEM.DIHEDRAL>
0

>  <SCORE.SYSTEM.SOLV>
0

>  <SCORE.SYSTEM.norm>
0

>  <SCORE.heavy>
31

>  <SCORE.norm>
1.00705

>  <RMSD>
14.113

$$$$
ligand
 OpenBabel11021811493D
libRbt.so/2013.1/901 2013/11/27
 31 33  0  0  0  0  0  0  0  0999 V2000
  -32.6378  -13.8259   -7.4046 C   0  0  2  0  0  0  0  0  0  0  0  0
  -31.8042  -12.7200   -7.7191 O   0  0  0  0  0  0  0  0  0  0  0  0
  -34.1565   -9.4669   -6.2843 C   0  0  2  0  0  0  0  0  0  0  0  0
  -34.4996   -8.1531   -5.8443 N   0  0  0  0  0  0  0  0  0  0  0  0
  -34.4740   -8.1417   -9.8342 C   0  0  2  0  0  0  0  0  0  0  0  0
  -32.2825  -14.9799   -8.4315 C   0  0  2  0  0  0  0  0  0  0  0  0
  -30.8587  -15.3228   -8.3015 N   0  0  0  0  0  0  0  0  0  0  0  0
  -33.0078  -10.0293   -5.3387 C   0  0  0  0  0  0  0  0  0  0  0  0
  -35.7313   -8.4238  -10.7218 C   0  0  2  0  0  0  0  0  0  0  0  0
  -36.8765   -8.0848   -9.9760 O   0  0  0  0  0  0  0  0  0  0  0  0
  -32.6177  -14.5088   -9.9020 C   0  0  0  0  0  0  0  0  0  0  0  0
  -32.6279  -11.5002   -5.8250 C   0  0  2  0  0  0  0  0  0  0  0  0
  -31.5635  -12.0446   -4.9544 N   0  0  0  0  0  0  0  0  0  0  0  0
  -35.7461   -9.9530  -11.1393 C   0  0  1  0  0  0  0  0  0  0  0  0
  -36.9531  -10.2451  -11.9928 N   0  0  0  0  0  0  0  0  0  0  0  0
  -33.9673  -13.6813   -9.9796 C   0  0  0  0  0  0  0  0  0  0  0  0
  -32.1131  -11.4305   -7.3214 C   0  0  2  0  0  0  0  0  0  0  0  0
  -34.4020  -10.2846  -11.9942 C   0  0  1  0  0  0  0  0  0  0  0  0
  -34.3009   -9.5317  -13.1858 O   0  0  0  0  0  0  0  0  0  0  0  0
  -34.5785  -13.2361   -8.8584 C   0  0  2  0  0  0  0  0  0  0  0  0
  -34.0557  -13.4814   -7.5486 O   0  0  0  0  0  0  0  0  0  0  0  0
  -33.2613  -10.8506   -8.2451 C   0  0  2  0  0  0  0  0  0  0  0  0
  -32.7843  -10.7807   -9.5991 O   0  0  0  0  0  0  0  0  0  0  0  0
  -33.1543   -9.9710  -11.1031 C   0  0  0  0  0  0  0  0  0  0  0  0
  -33.2183   -8.5330  -10.5916 O   0  0  0  0  0  0  0  0  0  0  0  0
  -35.8809  -12.4378   -8.8943 C   0  0  0  0  0  0  0  0  0  0  0  0
  -36.4629  -12.5962  -10.1975 O   0  0  0  0  0  0  0  0  0  0  0  0
  -33.6417   -9.3934   -7.7668 C   0  0  1  0  0  0  0  0  0  0  0  0
  -34.6780   -8.9155   -8.6073 O   0  0  0  0  0  0  0  0  0  0  0  0
  -34.2768  -11.7531  -12.4536 C   0  0  0  0  0  0  0  0  0  0  0  0
  -37.1260   -9.4050  -13.1953 C   0  0  0  0  0  0  0  0  0  0  0  0
  1  2  1  6  0  0  0
  1  6  1  0  0  0  0
  1 21  1  0  0  0  0
  3  4  1  1  0  0  0
  3  8  1  0  0  0  0
  3 28  1  0  0  0  0
  5  9  1  0  0  0  0
  5 25  1  0  0  0  0
  5 29  1  1  0  0  0
  6  7  1  6  0  0  0
  6 11  1  0  0  0  0
  8 12  1  0  0  0  0
  9 10  1  1  0  0  0
  9 14  1  0  0  0  0
 11 16  1  0  0  0  0
 12 13  1  1  0  0  0
 12 17  1  0  0  0  0
 14 15  1  6  0  0  0
 14 18  1  0  0  0  0
 15 31  1  0  0  0  0
 16 20  1  0  0  0  0
 17  2  1  6  0  0  0
 17 22  1  0  0  0  0
 18 19  1  6  0  0  0
 18 24  1  0  0  0  0
 18 30  1  0  0  0  0
 20 21  1  0  0  0  0
 20 26  1  1  0  0  0
 22 23  1  6  0  0  0
 22 28  1  0  0  0  0
 24 25  1  0  0  0  0
 26 27  1  0  0  0  0
 28 29  1  6  0  0  0
M  END
>  <CHROM.1>
159.52258797,153.99193613,54.71327004,42.54633632,15.73530313,149.96608783
-34.01382336,-11.07133491,-9.17924945,-0.04643036,1.05199720,-2.41451003

>  <Name>
ligand

>  <RI>
0

>  <Rbt.Current_Directory>
/home/itssahil/PROJECTS/Mol_Feturizer/New_Systems/rnas/4GPW

>  <Rbt.Executable>
rbdock ($Id: //depot/dev/client3/rdock/2013.1/src/exe/rbdock.cxx#4 $)

>  <Rbt.Library>
libRbt.so (2013.1, Build901 2013/11/27)

>  <Rbt.Parameter_File>
/export/apps/rDock/src/rDock_2013.1_src/data/scripts/dock_solv.prm

>  <Rbt.Receptor>
prm/blind_docking_80.prm

>  <SCORE>
40.4964

>  <SCORE.INTER>
6.01227

>  <SCORE.INTER.CONST>
1

>  <SCORE.INTER.POLAR>
0

>  <SCORE.INTER.ROT>
6

>  <SCORE.INTER.SOLV>
17.5803

>  <SCORE.INTER.VDW>
-9.45193

>  <SCORE.INTER.norm>
0.193944

>  <SCORE.INTRA>
17.2455

>  <SCORE.INTRA.DIHEDRAL>
-7.50176

>  <SCORE.INTRA.DIHEDRAL.0>
19.2558

>  <SCORE.INTRA.POLAR>
0

>  <SCORE.INTRA.POLAR.0>
0

>  <SCORE.INTRA.REPUL>
0.010534

>  <SCORE.INTRA.REPUL.0>
0

>  <SCORE.INTRA.SOLV>
0.168944

>  <SCORE.INTRA.SOLV.lig_0>
-64.5929

>  <SCORE.INTRA.VDW>
20.8592

>  <SCORE.INTRA.VDW.0>
-4.40538

>  <SCORE.INTRA.norm>
0.556305

>  <SCORE.RESTR>
17.2387

>  <SCORE.RESTR.CAVITY>
17.2387

>  <SCORE.RESTR.norm>
0.556086

>  <SCORE.SYSTEM>
0

>  <SCORE.SYSTEM.CONST>
0

>  <SCORE.SYSTEM.DIHEDRAL>
0

>  <SCORE.SYSTEM.SOLV>
0

>  <SCORE.SYSTEM.norm>
0

>  <SCORE.heavy>
31

>  <SCORE.norm>
1.30634

>  <RMSD>
14.127

$$$$
ligand
 OpenBabel11021811493D
libRbt.so/2013.1/901 2013/11/27
 31 33  0  0  0  0  0  0  0  0999 V2000
  -32.5246  -14.2893   -7.3671 C   0  0  2  0  0  0  0  0  0  0  0  0
  -31.6554  -13.1778   -7.5270 O   0  0  0  0  0  0  0  0  0  0  0  0
  -34.0265  -10.0635   -5.8377 C   0  0  2  0  0  0  0  0  0  0  0  0
  -34.3850   -8.7813   -5.3233 N   0  0  0  0  0  0  0  0  0  0  0  0
  -34.6261   -8.2639   -8.9945 C   0  0  2  0  0  0  0  0  0  0  0  0
  -32.0694  -15.3873   -8.4158 C   0  0  2  0  0  0  0  0  0  0  0  0
  -30.6696  -15.7547   -8.1559 N   0  0  0  0  0  0  0  0  0  0  0  0
  -32.8177  -10.6312   -4.9737 C   0  0  0  0  0  0  0  0  0  0  0  0
  -35.9463   -8.3196   -9.8326 C   0  0  2  0  0  0  0  0  0  0  0  0
  -37.0313   -8.3504   -8.9356 O   0  0  0  0  0  0  0  0  0  0  0  0
  -32.2432  -14.8290   -9.8837 C   0  0  0  0  0  0  0  0  0  0  0  0
  -32.4203  -12.0673   -5.5430 C   0  0  2  0  0  0  0  0  0  0  0  0
  -31.2998  -12.6164   -4.7492 N   0  0  0  0  0  0  0  0  0  0  0  0
  -35.9260   -9.6064  -10.7583 C   0  0  1  0  0  0  0  0  0  0  0  0
  -37.1924   -9.6793  -11.5715 N   0  0  0  0  0  0  0  0  0  0  0  0
  -33.5717  -13.9817  -10.0556 C   0  0  0  0  0  0  0  0  0  0  0  0
  -31.9810  -11.9168   -7.0575 C   0  0  2  0  0  0  0  0  0  0  0  0
  -34.6539   -9.5154  -11.7686 C   0  0  1  0  0  0  0  0  0  0  0  0
  -34.7023   -8.3915  -12.6240 O   0  0  0  0  0  0  0  0  0  0  0  0
  -34.2959  -13.5936   -8.9815 C   0  0  2  0  0  0  0  0  0  0  0  0
  -33.9169  -13.9196   -7.6402 O   0  0  0  0  0  0  0  0  0  0  0  0
  -33.1887  -11.3326   -7.8988 C   0  0  2  0  0  0  0  0  0  0  0  0
  -32.7802  -11.1891   -9.2693 O   0  0  0  0  0  0  0  0  0  0  0  0
  -33.3445   -9.4322  -10.9156 C   0  0  0  0  0  0  0  0  0  0  0  0
  -33.4298   -8.2695   -9.9286 O   0  0  0  0  0  0  0  0  0  0  0  0
  -35.5820  -12.7784   -9.1087 C   0  0  0  0  0  0  0  0  0  0  0  0
  -36.0079  -12.8320  -10.4791 O   0  0  0  0  0  0  0  0  0  0  0  0
  -33.5867   -9.9098   -7.3381 C   0  0  1  0  0  0  0  0  0  0  0  0
  -34.6757   -9.4276   -8.1063 O   0  0  0  0  0  0  0  0  0  0  0  0
  -34.5013  -10.7199  -12.7221 C   0  0  0  0  0  0  0  0  0  0  0  0
  -37.6417  -11.0294  -11.9677 C   0  0  0  0  0  0  0  0  0  0  0  0
  1  2  1  6  0  0  0
  1  6  1  0  0  0  0
  1 21  1  0  0  0  0
  3  4  1  1  0  0  0
  3  8  1  0  0  0  0
  3 28  1  0  0  0  0
  5  9  1  0  0  0  0
  5 25  1  0  0  0  0
  5 29  1  1  0  0  0
  6  7  1  1  0  0  0
  6 11  1  0  0  0  0
  8 12  1  0  0  0  0
  9 10  1  1  0  0  0
  9 14  1  0  0  0  0
 11 16  1  0  0  0  0
 12 13  1  1  0  0  0
 12 17  1  0  0  0  0
 14 15  1  6  0  0  0
 14 18  1  0  0  0  0
 15 31  1  0  0  0  0
 16 20  1  0  0  0  0
 17  2  1  6  0  0  0
 17 22  1  0  0  0  0
 18 19  1  6  0  0  0
 18 24  1  0  0  0  0
 18 30  1  0  0  0  0
 20 21  1  0  0  0  0
 20 26  1  6  0  0  0
 22 23  1  6  0  0  0
 22 28  1  0  0  0  0
 24 25  1  0  0  0  0
 26 27  1  0  0  0  0
 28 29  1  6  0  0  0
M  END
>  <CHROM.1>
161.32789587,168.22663067,-151.88500046,50.60981591,14.55101797,127.87467869
-33.98260987,-11.27561506,-8.87117294,0.08010910,1.01814948,-2.39793696

>  <Name>
ligand

>  <RI>
0

>  <Rbt.Current_Directory>
/home/itssahil/PROJECTS/Mol_Feturizer/New_Systems/rnas/4GPW

>  <Rbt.Executable>
rbdock ($Id: //depot/dev/client3/rdock/2013.1/src/exe/rbdock.cxx#4 $)

>  <Rbt.Library>
libRbt.so (2013.1, Build901 2013/11/27)

>  <Rbt.Parameter_File>
/export/apps/rDock/src/rDock_2013.1_src/data/scripts/dock_solv.prm

>  <Rbt.Receptor>
prm/blind_docking_80.prm

>  <SCORE>
30.5233

>  <SCORE.INTER>
6.11504

>  <SCORE.INTER.CONST>
1

>  <SCORE.INTER.POLAR>
0

>  <SCORE.INTER.ROT>
6

>  <SCORE.INTER.SOLV>
11.9919

>  <SCORE.INTER.VDW>
-7.5206

>  <SCORE.INTER.norm>
0.197259

>  <SCORE.INTRA>
3.622

>  <SCORE.INTRA.DIHEDRAL>
-7.19786

>  <SCORE.INTRA.DIHEDRAL.0>
19.2558

>  <SCORE.INTRA.POLAR>
0

>  <SCORE.INTRA.POLAR.0>
0

>  <SCORE.INTRA.REPUL>
0

>  <SCORE.INTRA.REPUL.0>
0

>  <SCORE.INTRA.SOLV>
-0.675613

>  <SCORE.INTRA.SOLV.lig_0>
-64.5929

>  <SCORE.INTRA.VDW>
7.55874

>  <SCORE.INTRA.VDW.0>
-4.40538

>  <SCORE.INTRA.norm>
0.116839

>  <SCORE.RESTR>
20.7863

>  <SCORE.RESTR.CAVITY>
20.7863

>  <SCORE.RESTR.norm>
0.670526

>  <SCORE.SYSTEM>
0

>  <SCORE.SYSTEM.CONST>
0

>  <SCORE.SYSTEM.DIHEDRAL>
0

>  <SCORE.SYSTEM.SOLV>
0

>  <SCORE.SYSTEM.norm>
0

>  <SCORE.heavy>
31

>  <SCORE.norm>
0.984624

>  <RMSD>
14.135

$$$$
ligand
 OpenBabel11021811493D
libRbt.so/2013.1/901 2013/11/27
 31 33  0  0  0  0  0  0  0  0999 V2000
  -32.5687  -14.1178   -7.2684 C   0  0  2  0  0  0  0  0  0  0  0  0
  -31.6889  -13.0260   -7.4929 O   0  0  0  0  0  0  0  0  0  0  0  0
  -34.0212   -9.7954   -5.9767 C   0  0  2  0  0  0  0  0  0  0  0  0
  -34.3624   -8.4840   -5.5283 N   0  0  0  0  0  0  0  0  0  0  0  0
  -34.5725   -8.1333   -9.2109 C   0  0  2  0  0  0  0  0  0  0  0  0
  -32.1125  -15.2864   -8.2372 C   0  0  2  0  0  0  0  0  0  0  0  0
  -30.7184  -15.6463   -7.9395 N   0  0  0  0  0  0  0  0  0  0  0  0
  -32.8281  -10.3395   -5.0763 C   0  0  0  0  0  0  0  0  0  0  0  0
  -35.9023   -8.1854  -10.0339 C   0  0  2  0  0  0  0  0  0  0  0  0
  -36.9784   -8.1535   -9.1262 O   0  0  0  0  0  0  0  0  0  0  0  0
  -32.2677  -14.8257   -9.7406 C   0  0  0  0  0  0  0  0  0  0  0  0
  -32.4501  -11.8078   -5.5717 C   0  0  2  0  0  0  0  0  0  0  0  0
  -31.3445  -12.3353   -4.7430 N   0  0  0  0  0  0  0  0  0  0  0  0
  -35.9253   -9.5062  -10.9102 C   0  0  1  0  0  0  0  0  0  0  0  0
  -37.2015   -9.5760  -11.7082 N   0  0  0  0  0  0  0  0  0  0  0  0
  -33.5876  -13.9817   -9.9818 C   0  0  0  0  0  0  0  0  0  0  0  0
  -31.9974  -11.7386   -7.0881 C   0  0  2  0  0  0  0  0  0  0  0  0
  -34.6618   -9.4872  -11.9352 C   0  0  1  0  0  0  0  0  0  0  0  0
  -34.6897   -8.3954  -12.8321 O   0  0  0  0  0  0  0  0  0  0  0  0
  -34.3187  -13.5176   -8.9432 C   0  0  2  0  0  0  0  0  0  0  0  0
  -33.9553  -13.7566   -7.5795 O   0  0  0  0  0  0  0  0  0  0  0  0
  -33.1892  -11.1769   -7.9666 C   0  0  2  0  0  0  0  0  0  0  0  0
  -32.7684  -11.1072   -9.3392 O   0  0  0  0  0  0  0  0  0  0  0  0
  -33.3419   -9.4067  -11.0982 C   0  0  0  0  0  0  0  0  0  0  0  0
  -33.3865   -8.2057  -10.1553 O   0  0  0  0  0  0  0  0  0  0  0  0
  -35.5969  -12.7030   -9.1371 C   0  0  0  0  0  0  0  0  0  0  0  0
  -35.8470  -12.5985  -10.5474 O   0  0  0  0  0  0  0  0  0  0  0  0
  -33.5679   -9.7222   -7.4791 C   0  0  1  0  0  0  0  0  0  0  0  0
  -34.6433   -9.2609   -8.2787 O   0  0  0  0  0  0  0  0  0  0  0  0
  -34.5507  -10.7304  -12.8436 C   0  0  0  0  0  0  0  0  0  0  0  0
  -37.7182  -10.9279  -12.0038 C   0  0  0  0  0  0  0  0  0  0  0  0
  1  2  1  6  0  0  0
  1  6  1  0  0  0  0
  1 21  1  0  0  0  0
  3  4  1  1  0  0  0
  3  8  1  0  0  0  0
  3 28  1  0  0  0  0
  5  9  1  0  0  0  0
  5 25  1  0  0  0  0
  5 29  1  1  0  0  0
  6  7  1  1  0  0  0
  6 11  1  0  0  0  0
  8 12  1  0  0  0  0
  9 10  1  1  0  0  0
  9 14  1  0  0  0  0
 11 16  1  0  0  0  0
 12 13  1  1  0  0  0
 12 17  1  0  0  0  0
 14 15  1  6  0  0  0
 14 18  1  0  0  0  0
 15 31  1  0  0  0  0
 16 20  1  0  0  0  0
 17  2  1  6  0  0  0
 17 22  1  0  0  0  0
 18 19  1  6  0  0  0
 18 24  1  0  0  0  0
 18 30  1  0  0  0  0
 20 21  1  0  0  0  0
 20 26  1  6  0  0  0
 22 23  1  6  0  0  0
 22 28  1  0  0  0  0
 24 25  1  0  0  0  0
 26 27  1  0  0  0  0
 28 29  1  6  0  0  0
M  END
>  <CHROM.1>
162.61263422,169.82801060,-149.59124661,49.66028977,2.02236579,127.13436972
-33.98390376,-11.14332655,-8.93821758,0.09995696,1.03080474,-2.45169084

>  <Name>
ligand

>  <RI>
0

>  <Rbt.Current_Directory>
/home/itssahil/PROJECTS/Mol_Feturizer/New_Systems/rnas/4GPW

>  <Rbt.Executable>
rbdock ($Id: //depot/dev/client3/rdock/2013.1/src/exe/rbdock.cxx#4 $)

>  <Rbt.Library>
libRbt.so (2013.1, Build901 2013/11/27)

>  <Rbt.Parameter_File>
/export/apps/rDock/src/rDock_2013.1_src/data/scripts/dock_solv.prm

>  <Rbt.Receptor>
prm/blind_docking_80.prm

>  <SCORE>
29.2873

>  <SCORE.INTER>
6.16546

>  <SCORE.INTER.CONST>
1

>  <SCORE.INTER.POLAR>
0

>  <SCORE.INTER.ROT>
6

>  <SCORE.INTER.SOLV>
11.8498

>  <SCORE.INTER.VDW>
-7.43964

>  <SCORE.INTER.norm>
0.198886

>  <SCORE.INTRA>
1.93277

>  <SCORE.INTRA.DIHEDRAL>
-7.6035

>  <SCORE.INTRA.DIHEDRAL.0>
19.2558

>  <SCORE.INTRA.POLAR>
0

>  <SCORE.INTRA.POLAR.0>
0

>  <SCORE.INTRA.REPUL>
0

>  <SCORE.INTRA.REPUL.0>
0

>  <SCORE.INTRA.SOLV>
-0.598127

>  <SCORE.INTRA.SOLV.lig_0>
-64.5929

>  <SCORE.INTRA.VDW>
6.03359

>  <SCORE.INTRA.VDW.0>
-4.40538

>  <SCORE.INTRA.norm>
0.0623475

>  <SCORE.RESTR>
21.189

>  <SCORE.RESTR.CAVITY>
21.189

>  <SCORE.RESTR.norm>
0.683517

>  <SCORE.SYSTEM>
0

>  <SCORE.SYSTEM.CONST>
0

>  <SCORE.SYSTEM.DIHEDRAL>
0

>  <SCORE.SYSTEM.SOLV>
0

>  <SCORE.SYSTEM.norm>
0

>  <SCORE.heavy>
31

>  <SCORE.norm>
0.94475

>  <RMSD>
14.149

$$$$
ligand
 OpenBabel11021811493D
libRbt.so/2013.1/901 2013/11/27
 31 33  0  0  0  0  0  0  0  0999 V2000
  -33.5077   -8.8319   -9.5582 C   0  0  2  0  0  0  0  0  0  0  0  0
  -34.4062   -9.4631   -8.6577 O   0  0  0  0  0  0  0  0  0  0  0  0
  -31.8847  -12.0377   -6.3800 C   0  0  2  0  0  0  0  0  0  0  0  0
  -31.4762  -13.1393   -5.5695 N   0  0  0  0  0  0  0  0  0  0  0  0
  -31.4630  -14.6645   -8.8662 C   0  0  2  0  0  0  0  0  0  0  0  0
  -34.1095   -7.4028   -9.8868 C   0  0  2  0  0  0  0  0  0  0  0  0
  -34.2498   -6.6377   -8.6391 N   0  0  0  0  0  0  0  0  0  0  0  0
  -33.0299  -11.2458   -5.6109 C   0  0  0  0  0  0  0  0  0  0  0  0
  -32.7298  -14.7700   -9.7785 C   0  0  2  0  0  0  0  0  0  0  0  0
  -32.6013  -13.8248  -10.8143 O   0  0  0  0  0  0  0  0  0  0  0  0
  -35.5050   -7.5639  -10.6101 C   0  0  0  0  0  0  0  0  0  0  0  0
  -33.4827  -10.0103   -6.5124 C   0  0  2  0  0  0  0  0  0  0  0  0
  -34.5450   -9.2561   -5.8124 N   0  0  0  0  0  0  0  0  0  0  0  0
  -34.0268  -14.4995   -8.9080 C   0  0  1  0  0  0  0  0  0  0  0  0
  -35.2585  -14.5934   -9.7710 N   0  0  0  0  0  0  0  0  0  0  0  0
  -35.5106   -8.7547  -11.6562 C   0  0  0  0  0  0  0  0  0  0  0  0
  -34.0340  -10.5558   -7.8936 C   0  0  2  0  0  0  0  0  0  0  0  0
  -34.1205  -15.6182   -7.7303 C   0  0  1  0  0  0  0  0  0  0  0  0
  -34.2219  -16.9385   -8.2241 O   0  0  0  0  0  0  0  0  0  0  0  0
  -34.5030   -9.6559  -11.6931 C   0  0  2  0  0  0  0  0  0  0  0  0
  -33.3821   -9.5929  -10.8053 O   0  0  0  0  0  0  0  0  0  0  0  0
  -32.8880  -11.3576   -8.6363 C   0  0  2  0  0  0  0  0  0  0  0  0
  -33.3978  -11.8581   -9.8835 O   0  0  0  0  0  0  0  0  0  0  0  0
  -32.8343  -15.5186   -6.8444 C   0  0  0  0  0  0  0  0  0  0  0  0
  -31.5837  -15.6434   -7.7126 O   0  0  0  0  0  0  0  0  0  0  0  0
  -34.4734  -10.8149  -12.6885 C   0  0  0  0  0  0  0  0  0  0  0  0
  -34.9220  -11.9968  -12.0073 O   0  0  0  0  0  0  0  0  0  0  0  0
  -32.4354  -12.5826   -7.7467 C   0  0  1  0  0  0  0  0  0  0  0  0
  -31.4032  -13.2651   -8.4376 O   0  0  0  0  0  0  0  0  0  0  0  0
  -35.3350  -15.4634   -6.7900 C   0  0  0  0  0  0  0  0  0  0  0  0
  -36.2475  -13.5061   -9.6246 C   0  0  0  0  0  0  0  0  0  0  0  0
  1  2  1  1  0  0  0
  1  6  1  0  0  0  0
  1 21  1  0  0  0  0
  3  4  1  1  0  0  0
  3  8  1  0  0  0  0
  3 28  1  0  0  0  0
  5  9  1  0  0  0  0
  5 25  1  0  0  0  0
  5 29  1  1  0  0  0
  6  7  1  1  0  0  0
  6 11  1  0  0  0  0
  8 12  1  0  0  0  0
  9 10  1  6  0  0  0
  9 14  1  0  0  0  0
 11 16  1  0  0  0  0
 12 13  1  1  0  0  0
 12 17  1  0  0  0  0
 14 15  1  6  0  0  0
 14 18  1  0  0  0  0
 15 31  1  0  0  0  0
 16 20  1  0  0  0  0
 17  2  1  6  0  0  0
 17 22  1  0  0  0  0
 18 19  1  6  0  0  0
 18 24  1  0  0  0  0
 18 30  1  0  0  0  0
 20 21  1  0  0  0  0
 20 26  1  6  0  0  0
 22 23  1  6  0  0  0
 22 28  1  0  0  0  0
 24 25  1  0  0  0  0
 26 27  1  0  0  0  0
 28 29  1  6  0  0  0
M  END
>  <CHROM.1>
-162.52699992,57.29823052,-133.12694022,91.33846935,-99.80528191,121.88807717
-33.66791294,-12.00757492,-8.86246427,-2.15598769,1.20999612,-2.91209890

>  <Name>
ligand

>  <RI>
0

>  <Rbt.Current_Directory>
/home/itssahil/PROJECTS/Mol_Feturizer/New_Systems/rnas/4GPW

>  <Rbt.Executable>
rbdock ($Id: //depot/dev/client3/rdock/2013.1/src/exe/rbdock.cxx#4 $)

>  <Rbt.Library>
libRbt.so (2013.1, Build901 2013/11/27)

>  <Rbt.Parameter_File>
/export/apps/rDock/src/rDock_2013.1_src/data/scripts/dock_solv.prm

>  <Rbt.Receptor>
prm/blind_docking_80.prm

>  <SCORE>
32.3636

>  <SCORE.INTER>
7.62245

>  <SCORE.INTER.CONST>
1

>  <SCORE.INTER.POLAR>
0

>  <SCORE.INTER.ROT>
6

>  <SCORE.INTER.SOLV>
15.0133

>  <SCORE.INTER.VDW>
-7.5228

>  <SCORE.INTER.norm>
0.245886

>  <SCORE.INTRA>
4.38865

>  <SCORE.INTRA.DIHEDRAL>
-3.5572

>  <SCORE.INTRA.DIHEDRAL.0>
19.2558

>  <SCORE.INTRA.POLAR>
0

>  <SCORE.INTRA.POLAR.0>
0

>  <SCORE.INTRA.REPUL>
0.0104264

>  <SCORE.INTRA.REPUL.0>
0

>  <SCORE.INTRA.SOLV>
2.998

>  <SCORE.INTRA.SOLV.lig_0>
-64.5929

>  <SCORE.INTRA.VDW>
4.61611

>  <SCORE.INTRA.VDW.0>
-4.40538

>  <SCORE.INTRA.norm>
0.141569

>  <SCORE.RESTR>
20.3525

>  <SCORE.RESTR.CAVITY>
20.3525

>  <SCORE.RESTR.norm>
0.656531

>  <SCORE.SYSTEM>
0

>  <SCORE.SYSTEM.CONST>
0

>  <SCORE.SYSTEM.DIHEDRAL>
0

>  <SCORE.SYSTEM.SOLV>
0

>  <SCORE.SYSTEM.norm>
0

>  <SCORE.heavy>
31

>  <SCORE.norm>
1.04399

>  <RMSD>
14.887

$$$$
ligand
 OpenBabel11021811493D
libRbt.so/2013.1/901 2013/11/27
 31 33  0  0  0  0  0  0  0  0999 V2000
  -33.5006   -9.2450  -11.1798 C   0  0  2  0  0  0  0  0  0  0  0  0
  -34.6121   -8.8028  -10.4147 O   0  0  0  0  0  0  0  0  0  0  0  0
  -33.1134   -9.3518   -6.4615 C   0  0  2  0  0  0  0  0  0  0  0  0
  -33.0670   -9.3578   -5.0350 N   0  0  0  0  0  0  0  0  0  0  0  0
  -32.7443  -12.0696   -5.8865 C   0  0  2  0  0  0  0  0  0  0  0  0
  -33.9118   -9.1244  -12.7058 C   0  0  2  0  0  0  0  0  0  0  0  0
  -34.2525   -7.7262  -13.0068 N   0  0  0  0  0  0  0  0  0  0  0  0
  -33.4032   -7.8655   -6.9484 C   0  0  0  0  0  0  0  0  0  0  0  0
  -31.8422  -12.6069   -7.0465 C   0  0  2  0  0  0  0  0  0  0  0  0
  -31.7037  -11.5818   -8.0019 O   0  0  0  0  0  0  0  0  0  0  0  0
  -35.1331  -10.0805  -13.0074 C   0  0  0  0  0  0  0  0  0  0  0  0
  -33.4486   -7.8559   -8.5428 C   0  0  2  0  0  0  0  0  0  0  0  0
  -33.7120   -6.4801   -9.0173 N   0  0  0  0  0  0  0  0  0  0  0  0
  -32.5128  -13.8973   -7.6776 C   0  0  1  0  0  0  0  0  0  0  0  0
  -31.6593  -14.4279   -8.8003 N   0  0  0  0  0  0  0  0  0  0  0  0
  -35.0087  -11.4745  -12.2634 C   0  0  0  0  0  0  0  0  0  0  0  0
  -34.6055   -8.8217   -9.0305 C   0  0  2  0  0  0  0  0  0  0  0  0
  -32.6477  -15.0427   -6.5299 C   0  0  1  0  0  0  0  0  0  0  0  0
  -31.4024  -15.4434   -5.9951 O   0  0  0  0  0  0  0  0  0  0  0  0
  -34.0859  -11.6682  -11.2940 C   0  0  2  0  0  0  0  0  0  0  0  0
  -33.1740  -10.6437  -10.8847 O   0  0  0  0  0  0  0  0  0  0  0  0
  -34.3116  -10.2920   -8.5209 C   0  0  2  0  0  0  0  0  0  0  0  0
  -35.3699  -11.1608   -8.9581 O   0  0  0  0  0  0  0  0  0  0  0  0
  -33.5286  -14.4802   -5.3652 C   0  0  0  0  0  0  0  0  0  0  0  0
  -32.9495  -13.1625   -4.8535 O   0  0  0  0  0  0  0  0  0  0  0  0
  -33.9353  -12.9983  -10.5569 C   0  0  0  0  0  0  0  0  0  0  0  0
  -32.7271  -13.6251  -11.0145 O   0  0  0  0  0  0  0  0  0  0  0  0
  -34.2650  -10.3067   -6.9414 C   0  0  1  0  0  0  0  0  0  0  0  0
  -33.9876  -11.6330   -6.5260 O   0  0  0  0  0  0  0  0  0  0  0  0
  -33.3045  -16.3563   -7.0051 C   0  0  0  0  0  0  0  0  0  0  0  0
  -32.1476  -15.6467   -9.4770 C   0  0  0  0  0  0  0  0  0  0  0  0
  1  2  1  1  0  0  0
  1  6  1  0  0  0  0
  1 21  1  0  0  0  0
  3  4  1  1  0  0  0
  3  8  1  0  0  0  0
  3 28  1  0  0  0  0
  5  9  1  0  0  0  0
  5 25  1  0  0  0  0
  5 29  1  6  0  0  0
  6  7  1  1  0  0  0
  6 11  1  0  0  0  0
  8 12  1  0  0  0  0
  9 10  1  6  0  0  0
  9 14  1  0  0  0  0
 11 16  1  0  0  0  0
 12 13  1  1  0  0  0
 12 17  1  0  0  0  0
 14 15  1  6  0  0  0
 14 18  1  0  0  0  0
 15 31  1  0  0  0  0
 16 20  1  0  0  0  0
 17  2  1  6  0  0  0
 17 22  1  0  0  0  0
 18 19  1  1  0  0  0
 18 24  1  0  0  0  0
 18 30  1  0  0  0  0
 20 21  1  0  0  0  0
 20 26  1  6  0  0  0
 22 23  1  1  0  0  0
 22 28  1  0  0  0  0
 24 25  1  0  0  0  0
 26 27  1  0  0  0  0
 28 29  1  6  0  0  0
M  END
>  <CHROM.1>
177.75216409,-94.59593545,179.14348046,62.19287297,107.56736733,-6.59787206
-33.41383146,-11.44439137,-8.67150289,3.11016658,-1.33759843,0.87217934

>  <Name>
ligand

>  <RI>
0

>  <Rbt.Current_Directory>
/home/itssahil/PROJECTS/Mol_Feturizer/New_Systems/rnas/4GPW

>  <Rbt.Executable>
rbdock ($Id: //depot/dev/client3/rdock/2013.1/src/exe/rbdock.cxx#4 $)

>  <Rbt.Library>
libRbt.so (2013.1, Build901 2013/11/27)

>  <Rbt.Parameter_File>
/export/apps/rDock/src/rDock_2013.1_src/data/scripts/dock_solv.prm

>  <Rbt.Receptor>
prm/blind_docking_80.prm

>  <SCORE>
39.2925

>  <SCORE.INTER>
5.95273

>  <SCORE.INTER.CONST>
1

>  <SCORE.INTER.POLAR>
0

>  <SCORE.INTER.ROT>
6

>  <SCORE.INTER.SOLV>
11.5668

>  <SCORE.INTER.VDW>
-7.48711

>  <SCORE.INTER.norm>
0.192024

>  <SCORE.INTRA>
12.1664

>  <SCORE.INTRA.DIHEDRAL>
-5.88466

>  <SCORE.INTRA.DIHEDRAL.0>
19.2558

>  <SCORE.INTRA.POLAR>
0

>  <SCORE.INTRA.POLAR.0>
0

>  <SCORE.INTRA.REPUL>
0.549611

>  <SCORE.INTRA.REPUL.0>
0

>  <SCORE.INTRA.SOLV>
1.67892

>  <SCORE.INTRA.SOLV.lig_0>
-64.5929

>  <SCORE.INTRA.VDW>
11.5212

>  <SCORE.INTRA.VDW.0>
-4.40538

>  <SCORE.INTRA.norm>
0.392464

>  <SCORE.RESTR>
21.1734

>  <SCORE.RESTR.CAVITY>
21.1734

>  <SCORE.RESTR.norm>
0.683013

>  <SCORE.SYSTEM>
0

>  <SCORE.SYSTEM.CONST>
0

>  <SCORE.SYSTEM.DIHEDRAL>
0

>  <SCORE.SYSTEM.SOLV>
0

>  <SCORE.SYSTEM.norm>
0

>  <SCORE.heavy>
31

>  <SCORE.norm>
1.2675

>  <RMSD>
14.891

$$$$
ligand
 OpenBabel11021811493D
libRbt.so/2013.1/901 2013/11/27
 31 33  0  0  0  0  0  0  0  0999 V2000
  -35.5099   -9.2843  -12.5070 C   0  0  2  0  0  0  0  0  0  0  0  0
  -35.1476  -10.6221  -12.8160 O   0  0  0  0  0  0  0  0  0  0  0  0
  -36.5265  -12.8169   -9.4313 C   0  0  2  0  0  0  0  0  0  0  0  0
  -37.0339  -13.9004   -8.6530 N   0  0  0  0  0  0  0  0  0  0  0  0
  -33.1140  -12.6076   -8.6422 C   0  0  2  0  0  0  0  0  0  0  0  0
  -34.3578   -8.3515  -13.0682 C   0  0  2  0  0  0  0  0  0  0  0  0
  -34.2325   -8.5556  -14.5189 N   0  0  0  0  0  0  0  0  0  0  0  0
  -37.5713  -12.4962  -10.5869 C   0  0  0  0  0  0  0  0  0  0  0  0
  -31.9017  -13.5487   -8.3376 C   0  0  2  0  0  0  0  0  0  0  0  0
  -31.6711  -14.3451   -9.4758 O   0  0  0  0  0  0  0  0  0  0  0  0
  -32.9985   -8.6795  -12.3326 C   0  0  0  0  0  0  0  0  0  0  0  0
  -37.0089  -11.2809  -11.4536 C   0  0  2  0  0  0  0  0  0  0  0  0
  -37.9693  -10.9624  -12.5323 N   0  0  0  0  0  0  0  0  0  0  0  0
  -32.2343  -14.4383   -7.0684 C   0  0  1  0  0  0  0  0  0  0  0  0
  -31.0784  -15.3550   -6.7612 N   0  0  0  0  0  0  0  0  0  0  0  0
  -33.1989   -8.9528  -10.7842 C   0  0  0  0  0  0  0  0  0  0  0  0
  -35.6161  -11.6984  -12.0821 C   0  0  2  0  0  0  0  0  0  0  0  0
  -32.4918  -13.4661   -5.7894 C   0  0  1  0  0  0  0  0  0  0  0  0
  -31.3688  -12.6752   -5.4570 O   0  0  0  0  0  0  0  0  0  0  0  0
  -34.4330   -9.1315  -10.2610 C   0  0  2  0  0  0  0  0  0  0  0  0
  -35.6206   -9.0839  -11.0587 O   0  0  0  0  0  0  0  0  0  0  0  0
  -34.5946  -12.0329  -10.9192 C   0  0  2  0  0  0  0  0  0  0  0  0
  -33.3366  -12.4205  -11.4963 O   0  0  0  0  0  0  0  0  0  0  0  0
  -33.6881  -12.5130   -6.1204 C   0  0  0  0  0  0  0  0  0  0  0  0
  -33.4186  -11.7590   -7.4212 O   0  0  0  0  0  0  0  0  0  0  0  0
  -34.6648   -9.3946   -8.7738 C   0  0  0  0  0  0  0  0  0  0  0  0
  -33.9251   -8.4146   -8.0290 O   0  0  0  0  0  0  0  0  0  0  0  0
  -35.1478  -13.2362  -10.0570 C   0  0  1  0  0  0  0  0  0  0  0  0
  -34.2148  -13.4960   -9.0223 O   0  0  0  0  0  0  0  0  0  0  0  0
  -32.8453  -14.2040   -4.4803 C   0  0  0  0  0  0  0  0  0  0  0  0
  -30.8766  -16.4896   -7.6851 C   0  0  0  0  0  0  0  0  0  0  0  0
  1  2  1  1  0  0  0
  1  6  1  0  0  0  0
  1 21  1  0  0  0  0
  3  4  1  6  0  0  0
  3  8  1  0  0  0  0
  3 28  1  0  0  0  0
  5  9  1  0  0  0  0
  5 25  1  0  0  0  0
  5 29  1  1  0  0  0
  6  7  1  6  0  0  0
  6 11  1  0  0  0  0
  8 12  1  0  0  0  0
  9 10  1  6  0  0  0
  9 14  1  0  0  0  0
 11 16  1  0  0  0  0
 12 13  1  6  0  0  0
 12 17  1  0  0  0  0
 14 15  1  1  0  0  0
 14 18  1  0  0  0  0
 15 31  1  0  0  0  0
 16 20  1  0  0  0  0
 17  2  1  1  0  0  0
 17 22  1  0  0  0  0
 18 19  1  1  0  0  0
 18 24  1  0  0  0  0
 18 30  1  0  0  0  0
 20 21  1  0  0  0  0
 20 26  1  1  0  0  0
 22 23  1  6  0  0  0
 22 28  1  0  0  0  0
 24 25  1  0  0  0  0
 26 27  1  0  0  0  0
 28 29  1  1  0  0  0
M  END
>  <CHROM.1>
155.26651797,-140.45154099,-72.62873942,26.98489057,49.01627465,-105.16271349
-34.08853596,-11.81776439,-9.57390973,-2.10121673,0.66303714,2.59572569

>  <Name>
ligand

>  <RI>
0

>  <Rbt.Current_Directory>
/home/itssahil/PROJECTS/Mol_Feturizer/New_Systems/rnas/4GPW

>  <Rbt.Executable>
rbdock ($Id: //depot/dev/client3/rdock/2013.1/src/exe/rbdock.cxx#4 $)

>  <Rbt.Library>
libRbt.so (2013.1, Build901 2013/11/27)

>  <Rbt.Parameter_File>
/export/apps/rDock/src/rDock_2013.1_src/data/scripts/dock_solv.prm

>  <Rbt.Receptor>
prm/blind_docking_80.prm

>  <SCORE>
31.1704

>  <SCORE.INTER>
4.59237

>  <SCORE.INTER.CONST>
1

>  <SCORE.INTER.POLAR>
0

>  <SCORE.INTER.ROT>
6

>  <SCORE.INTER.SOLV>
15.1227

>  <SCORE.INTER.VDW>
-9.57932

>  <SCORE.INTER.norm>
0.148141

>  <SCORE.INTRA>
5.51942

>  <SCORE.INTRA.DIHEDRAL>
2.58776

>  <SCORE.INTRA.DIHEDRAL.0>
19.2558

>  <SCORE.INTRA.POLAR>
0

>  <SCORE.INTRA.POLAR.0>
0

>  <SCORE.INTRA.REPUL>
0

>  <SCORE.INTRA.REPUL.0>
0

>  <SCORE.INTRA.SOLV>
-1.17178

>  <SCORE.INTRA.SOLV.lig_0>
-64.5929

>  <SCORE.INTRA.VDW>
4.81142

>  <SCORE.INTRA.VDW.0>
-4.40538

>  <SCORE.INTRA.norm>
0.178046

>  <SCORE.RESTR>
21.0586

>  <SCORE.RESTR.CAVITY>
21.0586

>  <SCORE.RESTR.norm>
0.679308

>  <SCORE.SYSTEM>
0

>  <SCORE.SYSTEM.CONST>
0

>  <SCORE.SYSTEM.DIHEDRAL>
0

>  <SCORE.SYSTEM.SOLV>
0

>  <SCORE.SYSTEM.norm>
0

>  <SCORE.heavy>
31

>  <SCORE.norm>
1.0055

>  <RMSD>
14.945

$$$$
ligand
 OpenBabel11021811493D
libRbt.so/2013.1/901 2013/11/27
 31 33  0  0  0  0  0  0  0  0999 V2000
  -33.3781   -9.6203  -12.1173 C   0  0  2  0  0  0  0  0  0  0  0  0
  -33.5098   -8.6376  -11.1007 O   0  0  0  0  0  0  0  0  0  0  0  0
  -33.5860   -9.2286   -6.8794 C   0  0  2  0  0  0  0  0  0  0  0  0
  -34.0925   -9.5077   -5.5744 N   0  0  0  0  0  0  0  0  0  0  0  0
  -33.6445  -12.8842   -6.9186 C   0  0  2  0  0  0  0  0  0  0  0  0
  -33.5544   -8.8764  -13.5058 C   0  0  2  0  0  0  0  0  0  0  0  0
  -32.5278   -7.8310  -13.6291 N   0  0  0  0  0  0  0  0  0  0  0  0
  -34.3820   -7.9854   -7.4718 C   0  0  0  0  0  0  0  0  0  0  0  0
  -32.4360  -13.8767   -6.8665 C   0  0  2  0  0  0  0  0  0  0  0  0
  -31.4899  -13.3646   -5.9581 O   0  0  0  0  0  0  0  0  0  0  0  0
  -35.0049   -8.2570  -13.5999 C   0  0  0  0  0  0  0  0  0  0  0  0
  -33.8125   -7.6680   -8.9275 C   0  0  2  0  0  0  0  0  0  0  0  0
  -34.5365   -6.5100   -9.4953 N   0  0  0  0  0  0  0  0  0  0  0  0
  -31.8187  -14.0280   -8.3188 C   0  0  1  0  0  0  0  0  0  0  0  0
  -30.6499  -14.9785   -8.2881 N   0  0  0  0  0  0  0  0  0  0  0  0
  -36.1132   -9.2170  -12.9979 C   0  0  0  0  0  0  0  0  0  0  0  0
  -34.0241   -8.9375   -9.8510 C   0  0  2  0  0  0  0  0  0  0  0  0
  -32.9551  -14.6203   -9.3214 C   0  0  1  0  0  0  0  0  0  0  0  0
  -33.4253  -15.8964   -8.9370 O   0  0  0  0  0  0  0  0  0  0  0  0
  -35.7736  -10.3032  -12.2674 C   0  0  2  0  0  0  0  0  0  0  0  0
  -34.4122  -10.6527  -11.9966 O   0  0  0  0  0  0  0  0  0  0  0  0
  -33.2417  -10.1697   -9.2366 C   0  0  2  0  0  0  0  0  0  0  0  0
  -33.4462  -11.3202  -10.0735 O   0  0  0  0  0  0  0  0  0  0  0  0
  -34.1676  -13.6311   -9.3407 C   0  0  0  0  0  0  0  0  0  0  0  0
  -34.6703  -13.3836   -7.9196 O   0  0  0  0  0  0  0  0  0  0  0  0
  -36.8138  -11.2519  -11.6735 C   0  0  0  0  0  0  0  0  0  0  0  0
  -36.1173  -12.2732  -10.9427 O   0  0  0  0  0  0  0  0  0  0  0  0
  -33.8020  -10.4878   -7.7937 C   0  0  1  0  0  0  0  0  0  0  0  0
  -33.0700  -11.5845   -7.2740 O   0  0  0  0  0  0  0  0  0  0  0  0
  -32.4925  -14.8034  -10.7827 C   0  0  0  0  0  0  0  0  0  0  0  0
  -30.9371  -16.3586   -7.8469 C   0  0  0  0  0  0  0  0  0  0  0  0
  1  2  1  1  0  0  0
  1  6  1  0  0  0  0
  1 21  1  0  0  0  0
  3  4  1  1  0  0  0
  3  8  1  0  0  0  0
  3 28  1  0  0  0  0
  5  9  1  0  0  0  0
  5 25  1  0  0  0  0
  5 29  1  6  0  0  0
  6  7  1  1  0  0  0
  6 11  1  0  0  0  0
  8 12  1  0  0  0  0
  9 10  1  1  0  0  0
  9 14  1  0  0  0  0
 11 16  1  0  0  0  0
 12 13  1  6  0  0  0
 12 17  1  0  0  0  0
 14 15  1  1  0  0  0
 14 18  1  0  0  0  0
 15 31  1  0  0  0  0
 16 20  1  0  0  0  0
 17  2  1  6  0  0  0
 17 22  1  0  0  0  0
 18 19  1  1  0  0  0
 18 24  1  0  0  0  0
 18 30  1  0  0  0  0
 20 21  1  0  0  0  0
 20 26  1  6  0  0  0
 22 23  1  6  0  0  0
 22 28  1  0  0  0  0
 24 25  1  0  0  0  0
 26 27  1  0  0  0  0
 28 29  1  1  0  0  0
M  END
>  <CHROM.1>
149.19663821,161.41579370,60.59819937,171.47642711,-178.89336418,123.98417971
-33.67461403,-11.28490815,-9.57292783,2.91525029,-1.26551551,0.73314041

>  <Name>
ligand

>  <RI>
0

>  <Rbt.Current_Directory>
/home/itssahil/PROJECTS/Mol_Feturizer/New_Systems/rnas/4GPW

>  <Rbt.Executable>
rbdock ($Id: //depot/dev/client3/rdock/2013.1/src/exe/rbdock.cxx#4 $)

>  <Rbt.Library>
libRbt.so (2013.1, Build901 2013/11/27)

>  <Rbt.Parameter_File>
/export/apps/rDock/src/rDock_2013.1_src/data/scripts/dock_solv.prm

>  <Rbt.Receptor>
prm/blind_docking_80.prm

>  <SCORE>
60.5949

>  <SCORE.INTER>
34.755

>  <SCORE.INTER.CONST>
1

>  <SCORE.INTER.POLAR>
0

>  <SCORE.INTER.ROT>
6

>  <SCORE.INTER.SOLV>
16.5986

>  <SCORE.INTER.VDW>
10.0371

>  <SCORE.INTER.norm>
1.12113

>  <SCORE.INTRA>
6.78167

>  <SCORE.INTRA.DIHEDRAL>
-2.86289

>  <SCORE.INTRA.DIHEDRAL.0>
19.2558

>  <SCORE.INTRA.POLAR>
0

>  <SCORE.INTRA.POLAR.0>
0

>  <SCORE.INTRA.REPUL>
0

>  <SCORE.INTRA.REPUL.0>
0

>  <SCORE.INTRA.SOLV>
-1.73689

>  <SCORE.INTRA.SOLV.lig_0>
-64.5929

>  <SCORE.INTRA.VDW>
9.08156

>  <SCORE.INTRA.VDW.0>
-4.40538

>  <SCORE.INTRA.norm>
0.218764

>  <SCORE.RESTR>
19.0583

>  <SCORE.RESTR.CAVITY>
19.0583

>  <SCORE.RESTR.norm>
0.614785

>  <SCORE.SYSTEM>
0

>  <SCORE.SYSTEM.CONST>
0

>  <SCORE.SYSTEM.DIHEDRAL>
0

>  <SCORE.SYSTEM.SOLV>
0

>  <SCORE.SYSTEM.norm>
0

>  <SCORE.heavy>
31

>  <SCORE.norm>
1.95468

>  <RMSD>
14.979

$$$$
ligand
 OpenBabel11021811493D
libRbt.so/2013.1/901 2013/11/27
 31 33  0  0  0  0  0  0  0  0999 V2000
  -33.4953   -8.7096  -10.6304 C   0  0  2  0  0  0  0  0  0  0  0  0
  -34.4566   -8.3749   -9.6402 O   0  0  0  0  0  0  0  0  0  0  0  0
  -32.6038   -9.7779   -6.0663 C   0  0  2  0  0  0  0  0  0  0  0  0
  -32.4570  -10.2122   -4.7146 N   0  0  0  0  0  0  0  0  0  0  0  0
  -33.7555  -13.3058   -6.9946 C   0  0  2  0  0  0  0  0  0  0  0  0
  -33.6993   -7.6985  -11.8339 C   0  0  2  0  0  0  0  0  0  0  0  0
  -33.5169   -6.3231  -11.3474 N   0  0  0  0  0  0  0  0  0  0  0  0
  -33.2225   -8.3126   -6.0586 C   0  0  0  0  0  0  0  0  0  0  0  0
  -32.7096  -14.4557   -6.8156 C   0  0  2  0  0  0  0  0  0  0  0  0
  -32.0758  -14.2788   -5.5708 O   0  0  0  0  0  0  0  0  0  0  0  0
  -35.1390   -7.8911  -12.4556 C   0  0  0  0  0  0  0  0  0  0  0  0
  -33.3809   -7.8230   -7.5684 C   0  0  2  0  0  0  0  0  0  0  0  0
  -33.9506   -6.4583   -7.5840 N   0  0  0  0  0  0  0  0  0  0  0  0
  -31.6655  -14.4050   -8.0074 C   0  0  1  0  0  0  0  0  0  0  0  0
  -30.6467  -15.5041   -7.8504 N   0  0  0  0  0  0  0  0  0  0  0  0
  -35.5632   -9.4160  -12.5393 C   0  0  0  0  0  0  0  0  0  0  0  0
  -34.3491   -8.8167   -8.3327 C   0  0  2  0  0  0  0  0  0  0  0  0
  -32.4540  -14.6129   -9.4154 C   0  0  1  0  0  0  0  0  0  0  0  0
  -33.1197  -15.8565   -9.5016 O   0  0  0  0  0  0  0  0  0  0  0  0
  -34.8538  -10.3738  -11.9003 C   0  0  2  0  0  0  0  0  0  0  0  0
  -33.6904  -10.0776  -11.1207 O   0  0  0  0  0  0  0  0  0  0  0  0
  -33.7279  -10.2733   -8.3138 C   0  0  2  0  0  0  0  0  0  0  0  0
  -34.6160  -11.1714   -8.9998 O   0  0  0  0  0  0  0  0  0  0  0  0
  -33.5147  -13.4721   -9.5660 C   0  0  0  0  0  0  0  0  0  0  0  0
  -34.4333  -13.4402   -8.3460 O   0  0  0  0  0  0  0  0  0  0  0  0
  -35.2312  -11.8533  -11.9600 C   0  0  0  0  0  0  0  0  0  0  0  0
  -34.2503  -12.5296  -12.7616 O   0  0  0  0  0  0  0  0  0  0  0  0
  -33.5684  -10.7627   -6.8198 C   0  0  1  0  0  0  0  0  0  0  0  0
  -32.9993  -12.0604   -6.8447 O   0  0  0  0  0  0  0  0  0  0  0  0
  -31.5551  -14.5684  -10.6696 C   0  0  0  0  0  0  0  0  0  0  0  0
  -31.1688  -16.8857   -7.8309 C   0  0  0  0  0  0  0  0  0  0  0  0
  1  2  1  1  0  0  0
  1  6  1  0  0  0  0
  1 21  1  0  0  0  0
  3  4  1  1  0  0  0
  3  8  1  0  0  0  0
  3 28  1  0  0  0  0
  5  9  1  0  0  0  0
  5 25  1  0  0  0  0
  5 29  1  6  0  0  0
  6  7  1  1  0  0  0
  6 11  1  0  0  0  0
  8 12  1  0  0  0  0
  9 10  1  1  0  0  0
  9 14  1  0  0  0  0
 11 16  1  0  0  0  0
 12 13  1  1  0  0  0
 12 17  1  0  0  0  0
 14 15  1  1  0  0  0
 14 18  1  0  0  0  0
 15 31  1  0  0  0  0
 16 20  1  0  0  0  0
 17  2  1  6  0  0  0
 17 22  1  0  0  0  0
 18 19  1  1  0  0  0
 18 24  1  0  0  0  0
 18 30  1  0  0  0  0
 20 21  1  0  0  0  0
 20 26  1  6  0  0  0
 22 23  1  6  0  0  0
 22 28  1  0  0  0  0
 24 25  1  0  0  0  0
 26 27  1  0  0  0  0
 28 29  1  6  0  0  0
M  END
>  <CHROM.1>
-163.14648706,-174.37885962,59.61574234,83.57741130,109.05703521,156.26967439
-33.42015434,-11.33759680,-8.98608628,2.63481739,-1.25004947,0.67528229

>  <Name>
ligand

>  <RI>
0

>  <Rbt.Current_Directory>
/home/itssahil/PROJECTS/Mol_Feturizer/New_Systems/rnas/4GPW

>  <Rbt.Executable>
rbdock ($Id: //depot/dev/client3/rdock/2013.1/src/exe/rbdock.cxx#4 $)

>  <Rbt.Library>
libRbt.so (2013.1, Build901 2013/11/27)

>  <Rbt.Parameter_File>
/export/apps/rDock/src/rDock_2013.1_src/data/scripts/dock_solv.prm

>  <Rbt.Receptor>
prm/blind_docking_80.prm

>  <SCORE>
34.8459

>  <SCORE.INTER>
13.4284

>  <SCORE.INTER.CONST>
1

>  <SCORE.INTER.POLAR>
0

>  <SCORE.INTER.ROT>
6

>  <SCORE.INTER.SOLV>
12.0903

>  <SCORE.INTER.VDW>
-2.67779

>  <SCORE.INTER.norm>
0.433176

>  <SCORE.INTRA>
0.421332

>  <SCORE.INTRA.DIHEDRAL>
-11.095

>  <SCORE.INTRA.DIHEDRAL.0>
19.2558

>  <SCORE.INTRA.POLAR>
0

>  <SCORE.INTRA.POLAR.0>
0

>  <SCORE.INTRA.REPUL>
0

>  <SCORE.INTRA.REPUL.0>
0

>  <SCORE.INTRA.SOLV>
-0.986378

>  <SCORE.INTRA.SOLV.lig_0>
-64.5929

>  <SCORE.INTRA.VDW>
6.46201

>  <SCORE.INTRA.VDW.0>
-4.40538

>  <SCORE.INTRA.norm>
0.0135914

>  <SCORE.RESTR>
20.9962

>  <SCORE.RESTR.CAVITY>
20.9962

>  <SCORE.RESTR.norm>
0.677296

>  <SCORE.SYSTEM>
0

>  <SCORE.SYSTEM.CONST>
0

>  <SCORE.SYSTEM.DIHEDRAL>
0

>  <SCORE.SYSTEM.SOLV>
0

>  <SCORE.SYSTEM.norm>
0

>  <SCORE.heavy>
31

>  <SCORE.norm>
1.12406

>  <RMSD>
15.001

$$$$
ligand
 OpenBabel11021811493D
libRbt.so/2013.1/901 2013/11/27
 31 33  0  0  0  0  0  0  0  0999 V2000
  -35.2864   -9.6345  -12.6734 C   0  0  2  0  0  0  0  0  0  0  0  0
  -34.7182  -10.9335  -12.5933 O   0  0  0  0  0  0  0  0  0  0  0  0
  -36.0908  -12.7863   -9.0075 C   0  0  2  0  0  0  0  0  0  0  0  0
  -36.6509  -13.7686   -8.1365 N   0  0  0  0  0  0  0  0  0  0  0  0
  -32.5369  -12.9999   -8.5531 C   0  0  2  0  0  0  0  0  0  0  0  0
  -34.2248   -8.7091  -13.4006 C   0  0  2  0  0  0  0  0  0  0  0  0
  -33.9382   -9.2563  -14.7348 N   0  0  0  0  0  0  0  0  0  0  0  0
  -37.1690  -12.4292  -10.1211 C   0  0  0  0  0  0  0  0  0  0  0  0
  -32.0132  -13.3810   -7.1288 C   0  0  2  0  0  0  0  0  0  0  0  0
  -31.9832  -14.7858   -7.0367 O   0  0  0  0  0  0  0  0  0  0  0  0
  -32.9080   -8.6214  -12.5317 C   0  0  0  0  0  0  0  0  0  0  0  0
  -36.5470  -11.3266  -11.0914 C   0  0  2  0  0  0  0  0  0  0  0  0
  -37.5368  -10.9757  -12.1329 N   0  0  0  0  0  0  0  0  0  0  0  0
  -32.9693  -12.7509   -6.0325 C   0  0  1  0  0  0  0  0  0  0  0  0
  -32.4825  -13.1105   -4.6526 N   0  0  0  0  0  0  0  0  0  0  0  0
  -33.2128   -8.5162  -10.9798 C   0  0  0  0  0  0  0  0  0  0  0  0
  -35.2417  -11.9149  -11.7691 C   0  0  2  0  0  0  0  0  0  0  0  0
  -32.9644  -11.1314   -6.1891 C   0  0  1  0  0  0  0  0  0  0  0  0
  -31.6862  -10.5584   -6.0015 O   0  0  0  0  0  0  0  0  0  0  0  0
  -34.4545   -8.7449  -10.4954 C   0  0  2  0  0  0  0  0  0  0  0  0
  -35.5579   -9.0892  -11.3397 O   0  0  0  0  0  0  0  0  0  0  0  0
  -34.1876  -12.2830  -10.6461 C   0  0  2  0  0  0  0  0  0  0  0  0
  -33.0102  -12.8253  -11.2669 O   0  0  0  0  0  0  0  0  0  0  0  0
  -33.4636  -10.7679   -7.6271 C   0  0  0  0  0  0  0  0  0  0  0  0
  -32.6208  -11.4895   -8.6771 O   0  0  0  0  0  0  0  0  0  0  0  0
  -34.7859   -8.6505   -9.0067 C   0  0  0  0  0  0  0  0  0  0  0  0
  -33.6811   -8.0149   -8.3453 O   0  0  0  0  0  0  0  0  0  0  0  0
  -34.7995  -13.3749   -9.6815 C   0  0  1  0  0  0  0  0  0  0  0  0
  -33.8341  -13.6672   -8.6860 O   0  0  0  0  0  0  0  0  0  0  0  0
  -33.8727  -10.3849   -5.1887 C   0  0  0  0  0  0  0  0  0  0  0  0
  -33.0719  -14.3198   -4.0426 C   0  0  0  0  0  0  0  0  0  0  0  0
  1  2  1  1  0  0  0
  1  6  1  0  0  0  0
  1 21  1  0  0  0  0
  3  4  1  1  0  0  0
  3  8  1  0  0  0  0
  3 28  1  0  0  0  0
  5  9  1  0  0  0  0
  5 25  1  0  0  0  0
  5 29  1  1  0  0  0
  6  7  1  6  0  0  0
  6 11  1  0  0  0  0
  8 12  1  0  0  0  0
  9 10  1  6  0  0  0
  9 14  1  0  0  0  0
 11 16  1  0  0  0  0
 12 13  1  6  0  0  0
 12 17  1  0  0  0  0
 14 15  1  1  0  0  0
 14 18  1  0  0  0  0
 15 31  1  0  0  0  0
 16 20  1  0  0  0  0
 17  2  1  6  0  0  0
 17 22  1  0  0  0  0
 18 19  1  1  0  0  0
 18 24  1  0  0  0  0
 18 30  1  0  0  0  0
 20 21  1  0  0  0  0
 20 26  1  6  0  0  0
 22 23  1  6  0  0  0
 22 28  1  0  0  0  0
 24 25  1  0  0  0  0
 26 27  1  0  0  0  0
 28 29  1  1  0  0  0
M  END
>  <CHROM.1>
165.66651115,165.40902580,-93.27104293,3.55268953,12.59477317,-114.96843200
-34.08181399,-11.33036082,-9.31877138,2.07849921,-0.98570314,-0.67629744

>  <Name>
ligand

>  <RI>
0

>  <Rbt.Current_Directory>
/home/itssahil/PROJECTS/Mol_Feturizer/New_Systems/rnas/4GPW

>  <Rbt.Executable>
rbdock ($Id: //depot/dev/client3/rdock/2013.1/src/exe/rbdock.cxx#4 $)

>  <Rbt.Library>
libRbt.so (2013.1, Build901 2013/11/27)

>  <Rbt.Parameter_File>
/export/apps/rDock/src/rDock_2013.1_src/data/scripts/dock_solv.prm

>  <Rbt.Receptor>
prm/blind_docking_80.prm

>  <SCORE>
34.9227

>  <SCORE.INTER>
5.52714

>  <SCORE.INTER.CONST>
1

>  <SCORE.INTER.POLAR>
0

>  <SCORE.INTER.ROT>
6

>  <SCORE.INTER.SOLV>
17.3157

>  <SCORE.INTER.VDW>
-9.68715

>  <SCORE.INTER.norm>
0.178295

>  <SCORE.INTRA>
10.4778

>  <SCORE.INTRA.DIHEDRAL>
-0.502337

>  <SCORE.INTRA.DIHEDRAL.0>
19.2558

>  <SCORE.INTRA.POLAR>
0

>  <SCORE.INTRA.POLAR.0>
0

>  <SCORE.INTRA.REPUL>
0

>  <SCORE.INTRA.REPUL.0>
0

>  <SCORE.INTRA.SOLV>
-0.157174

>  <SCORE.INTRA.SOLV.lig_0>
-64.5929

>  <SCORE.INTRA.VDW>
10.8076

>  <SCORE.INTRA.VDW.0>
-4.40538

>  <SCORE.INTRA.norm>
0.337995

>  <SCORE.RESTR>
18.9177

>  <SCORE.RESTR.CAVITY>
18.9177

>  <SCORE.RESTR.norm>
0.61025

>  <SCORE.SYSTEM>
0

>  <SCORE.SYSTEM.CONST>
0

>  <SCORE.SYSTEM.DIHEDRAL>
0

>  <SCORE.SYSTEM.SOLV>
0

>  <SCORE.SYSTEM.norm>
0

>  <SCORE.heavy>
31

>  <SCORE.norm>
1.12654

>  <RMSD>
15.001

$$$$
ligand
 OpenBabel11021811493D
libRbt.so/2013.1/901 2013/11/27
 31 33  0  0  0  0  0  0  0  0999 V2000
  -33.3316   -8.6299  -10.3253 C   0  0  2  0  0  0  0  0  0  0  0  0
  -34.5094   -8.5510   -9.5359 O   0  0  0  0  0  0  0  0  0  0  0  0
  -33.8903  -11.8108   -6.8591 C   0  0  2  0  0  0  0  0  0  0  0  0
  -34.0824  -12.6896   -5.7508 N   0  0  0  0  0  0  0  0  0  0  0  0
  -34.8450  -13.6265   -9.5908 C   0  0  2  0  0  0  0  0  0  0  0  0
  -33.4624   -7.5334  -11.4624 C   0  0  2  0  0  0  0  0  0  0  0  0
  -33.6095   -6.2081  -10.8429 N   0  0  0  0  0  0  0  0  0  0  0  0
  -33.6755  -10.3372   -6.3002 C   0  0  0  0  0  0  0  0  0  0  0  0
  -34.9079  -15.1888   -9.5323 C   0  0  2  0  0  0  0  0  0  0  0  0
  -36.2290  -15.5606   -9.2177 O   0  0  0  0  0  0  0  0  0  0  0  0
  -34.7011   -7.8656  -12.3854 C   0  0  0  0  0  0  0  0  0  0  0  0
  -33.4539   -9.3549   -7.5373 C   0  0  2  0  0  0  0  0  0  0  0  0
  -33.2465   -7.9780   -7.0389 N   0  0  0  0  0  0  0  0  0  0  0  0
  -33.8850  -15.7143   -8.4411 C   0  0  1  0  0  0  0  0  0  0  0  0
  -33.9337  -17.2185   -8.3676 N   0  0  0  0  0  0  0  0  0  0  0  0
  -34.8414   -9.4177  -12.6745 C   0  0  0  0  0  0  0  0  0  0  0  0
  -34.7357   -9.4011   -8.4669 C   0  0  2  0  0  0  0  0  0  0  0  0
  -32.3805  -15.2542   -8.8563 C   0  0  1  0  0  0  0  0  0  0  0  0
  -31.9625  -15.7774  -10.1008 O   0  0  0  0  0  0  0  0  0  0  0  0
  -34.1210  -10.3254  -11.9775 C   0  0  2  0  0  0  0  0  0  0  0  0
  -33.1974   -9.9493  -10.9506 O   0  0  0  0  0  0  0  0  0  0  0  0
  -34.9459  -10.8780   -8.9983 C   0  0  2  0  0  0  0  0  0  0  0  0
  -36.1158  -10.9147   -9.8325 O   0  0  0  0  0  0  0  0  0  0  0  0
  -32.3415  -13.6918   -8.9379 C   0  0  0  0  0  0  0  0  0  0  0  0
  -33.4238  -13.1852   -9.8894 O   0  0  0  0  0  0  0  0  0  0  0  0
  -34.2282  -11.8286  -12.2300 C   0  0  0  0  0  0  0  0  0  0  0  0
  -35.6155  -12.1928  -12.1591 O   0  0  0  0  0  0  0  0  0  0  0  0
  -35.1652  -11.8553   -7.7760 C   0  0  1  0  0  0  0  0  0  0  0  0
  -35.3361  -13.1648   -8.2904 O   0  0  0  0  0  0  0  0  0  0  0  0
  -31.2784  -15.6868   -7.8658 C   0  0  0  0  0  0  0  0  0  0  0  0
  -33.5169  -17.8273   -7.0880 C   0  0  0  0  0  0  0  0  0  0  0  0
  1  2  1  1  0  0  0
  1  6  1  0  0  0  0
  1 21  1  0  0  0  0
  3  4  1  1  0  0  0
  3  8  1  0  0  0  0
  3 28  1  0  0  0  0
  5  9  1  0  0  0  0
  5 25  1  0  0  0  0
  5 29  1  1  0  0  0
  6  7  1  1  0  0  0
  6 11  1  0  0  0  0
  8 12  1  0  0  0  0
  9 10  1  1  0  0  0
  9 14  1  0  0  0  0
 11 16  1  0  0  0  0
 12 13  1  1  0  0  0
 12 17  1  0  0  0  0
 14 15  1  6  0  0  0
 14 18  1  0  0  0  0
 15 31  1  0  0  0  0
 16 20  1  0  0  0  0
 17  2  1  6  0  0  0
 17 22  1  0  0  0  0
 18 19  1  6  0  0  0
 18 24  1  0  0  0  0
 18 30  1  0  0  0  0
 20 21  1  0  0  0  0
 20 26  1  6  0  0  0
 22 23  1  6  0  0  0
 22 28  1  0  0  0  0
 24 25  1  0  0  0  0
 26 27  1  0  0  0  0
 28 29  1  6  0  0  0
M  END
>  <CHROM.1>
178.34608800,164.34791493,-154.97822664,51.38488345,-52.76100071,-94.65103260
-34.04447444,-11.96344245,-9.35334071,-1.98261512,1.39617045,-3.02070287

>  <Name>
ligand

>  <RI>
0

>  <Rbt.Current_Directory>
/home/itssahil/PROJECTS/Mol_Feturizer/New_Systems/rnas/4GPW

>  <Rbt.Executable>
rbdock ($Id: //depot/dev/client3/rdock/2013.1/src/exe/rbdock.cxx#4 $)

>  <Rbt.Library>
libRbt.so (2013.1, Build901 2013/11/27)

>  <Rbt.Parameter_File>
/export/apps/rDock/src/rDock_2013.1_src/data/scripts/dock_solv.prm

>  <Rbt.Receptor>
prm/blind_docking_80.prm

>  <SCORE>
24.7133

>  <SCORE.INTER>
4.16513

>  <SCORE.INTER.CONST>
1

>  <SCORE.INTER.POLAR>
0

>  <SCORE.INTER.ROT>
6

>  <SCORE.INTER.SOLV>
10.9082

>  <SCORE.INTER.VDW>
-8.45931

>  <SCORE.INTER.norm>
0.134359

>  <SCORE.INTRA>
-0.847914

>  <SCORE.INTRA.DIHEDRAL>
-9.28785

>  <SCORE.INTRA.DIHEDRAL.0>
19.2558

>  <SCORE.INTRA.POLAR>
0

>  <SCORE.INTRA.POLAR.0>
0

>  <SCORE.INTRA.REPUL>
0.277487

>  <SCORE.INTRA.REPUL.0>
0

>  <SCORE.INTRA.SOLV>
0.0801616

>  <SCORE.INTRA.SOLV.lig_0>
-64.5929

>  <SCORE.INTRA.VDW>
2.3685

>  <SCORE.INTRA.VDW.0>
-4.40538

>  <SCORE.INTRA.norm>
-0.0273521

>  <SCORE.RESTR>
21.3961

>  <SCORE.RESTR.CAVITY>
21.3961

>  <SCORE.RESTR.norm>
0.690196

>  <SCORE.SYSTEM>
0

>  <SCORE.SYSTEM.CONST>
0

>  <SCORE.SYSTEM.DIHEDRAL>
0

>  <SCORE.SYSTEM.SOLV>
0

>  <SCORE.SYSTEM.norm>
0

>  <SCORE.heavy>
31

>  <SCORE.norm>
0.797203

>  <RMSD>
15.049

$$$$
ligand
 OpenBabel11021811493D
libRbt.so/2013.1/901 2013/11/27
 31 33  0  0  0  0  0  0  0  0999 V2000
  -35.8971   -9.1141  -12.2366 C   0  0  2  0  0  0  0  0  0  0  0  0
  -35.9534  -10.4734  -12.6439 O   0  0  0  0  0  0  0  0  0  0  0  0
  -36.2052  -12.5611   -8.9355 C   0  0  2  0  0  0  0  0  0  0  0  0
  -36.5232  -13.5849   -7.9931 N   0  0  0  0  0  0  0  0  0  0  0  0
  -32.9865  -12.7051   -8.9746 C   0  0  2  0  0  0  0  0  0  0  0  0
  -34.9578   -8.3607  -13.2673 C   0  0  2  0  0  0  0  0  0  0  0  0
  -35.5164   -8.4961  -14.6206 N   0  0  0  0  0  0  0  0  0  0  0  0
  -37.5587  -12.0465   -9.5938 C   0  0  0  0  0  0  0  0  0  0  0  0
  -31.8153  -13.6498   -8.5457 C   0  0  2  0  0  0  0  0  0  0  0  0
  -31.4796  -14.4570   -9.6496 O   0  0  0  0  0  0  0  0  0  0  0  0
  -33.4976   -8.9603  -13.1968 C   0  0  0  0  0  0  0  0  0  0  0  0
  -37.2056  -10.8975  -10.6423 C   0  0  2  0  0  0  0  0  0  0  0  0
  -38.4526  -10.4004  -11.2631 N   0  0  0  0  0  0  0  0  0  0  0  0
  -32.2754  -14.5270   -7.3080 C   0  0  1  0  0  0  0  0  0  0  0  0
  -31.1605  -15.4469   -6.8823 N   0  0  0  0  0  0  0  0  0  0  0  0
  -33.0486   -9.2873  -11.7123 C   0  0  0  0  0  0  0  0  0  0  0  0
  -36.2524  -11.4942  -11.7579 C   0  0  2  0  0  0  0  0  0  0  0  0
  -32.6506  -13.5426   -6.0680 C   0  0  1  0  0  0  0  0  0  0  0  0
  -31.5607  -12.7547   -5.6339 O   0  0  0  0  0  0  0  0  0  0  0  0
  -33.9410   -9.2828  -10.6963 C   0  0  2  0  0  0  0  0  0  0  0  0
  -35.3273   -8.9848  -10.8918 O   0  0  0  0  0  0  0  0  0  0  0  0
  -34.9193  -12.0192  -11.0834 C   0  0  2  0  0  0  0  0  0  0  0  0
  -34.0637  -12.5682  -12.0994 O   0  0  0  0  0  0  0  0  0  0  0  0
  -33.8032  -12.5862   -6.5217 C   0  0  0  0  0  0  0  0  0  0  0  0
  -33.4036  -11.8446   -7.7960 O   0  0  0  0  0  0  0  0  0  0  0  0
  -33.5445   -9.5908   -9.2531 C   0  0  0  0  0  0  0  0  0  0  0  0
  -34.4903   -8.9464   -8.3856 O   0  0  0  0  0  0  0  0  0  0  0  0
  -35.2639  -13.1576  -10.0430 C   0  0  1  0  0  0  0  0  0  0  0  0
  -34.0503  -13.5909   -9.4532 O   0  0  0  0  0  0  0  0  0  0  0  0
  -33.1345  -14.2676   -4.7939 C   0  0  0  0  0  0  0  0  0  0  0  0
  -30.8454  -16.5637   -7.7962 C   0  0  0  0  0  0  0  0  0  0  0  0
  1  2  1  6  0  0  0
  1  6  1  0  0  0  0
  1 21  1  0  0  0  0
  3  4  1  1  0  0  0
  3  8  1  0  0  0  0
  3 28  1  0  0  0  0
  5  9  1  0  0  0  0
  5 25  1  0  0  0  0
  5 29  1  1  0  0  0
  6  7  1  6  0  0  0
  6 11  1  0  0  0  0
  8 12  1  0  0  0  0
  9 10  1  6  0  0  0
  9 14  1  0  0  0  0
 11 16  1  0  0  0  0
 12 13  1  6  0  0  0
 12 17  1  0  0  0  0
 14 15  1  1  0  0  0
 14 18  1  0  0  0  0
 15 31  1  0  0  0  0
 16 20  1  0  0  0  0
 17  2  1  6  0  0  0
 17 22  1  0  0  0  0
 18 19  1  1  0  0  0
 18 24  1  0  0  0  0
 18 30  1  0  0  0  0
 20 21  1  0  0  0  0
 20 26  1  1  0  0  0
 22 23  1  6  0  0  0
 22 28  1  0  0  0  0
 24 25  1  0  0  0  0
 26 27  1  0  0  0  0
 28 29  1  1  0  0  0
M  END
>  <CHROM.1>
155.86465588,-174.63087408,-70.59112633,29.99646250,154.49949543,-73.65549643
-34.21996743,-11.82128917,-9.64999868,-2.01250693,-0.11960966,2.24473523

>  <Name>
ligand

>  <RI>
0

>  <Rbt.Current_Directory>
/home/itssahil/PROJECTS/Mol_Feturizer/New_Systems/rnas/4GPW

>  <Rbt.Executable>
rbdock ($Id: //depot/dev/client3/rdock/2013.1/src/exe/rbdock.cxx#4 $)

>  <Rbt.Library>
libRbt.so (2013.1, Build901 2013/11/27)

>  <Rbt.Parameter_File>
/export/apps/rDock/src/rDock_2013.1_src/data/scripts/dock_solv.prm

>  <Rbt.Receptor>
prm/blind_docking_80.prm

>  <SCORE>
29.8125

>  <SCORE.INTER>
8.33363

>  <SCORE.INTER.CONST>
1

>  <SCORE.INTER.POLAR>
0

>  <SCORE.INTER.ROT>
6

>  <SCORE.INTER.SOLV>
14.5852

>  <SCORE.INTER.VDW>
-6.90598

>  <SCORE.INTER.norm>
0.268827

>  <SCORE.INTRA>
-0.27417

>  <SCORE.INTRA.DIHEDRAL>
-9.15877

>  <SCORE.INTRA.DIHEDRAL.0>
19.2558

>  <SCORE.INTRA.POLAR>
0

>  <SCORE.INTRA.POLAR.0>
0

>  <SCORE.INTRA.REPUL>
0

>  <SCORE.INTRA.REPUL.0>
0

>  <SCORE.INTRA.SOLV>
0.655117

>  <SCORE.INTRA.SOLV.lig_0>
-64.5929

>  <SCORE.INTRA.VDW>
3.97766

>  <SCORE.INTRA.VDW.0>
-4.40538

>  <SCORE.INTRA.norm>
-0.00884418

>  <SCORE.RESTR>
21.753

>  <SCORE.RESTR.CAVITY>
21.753

>  <SCORE.RESTR.norm>
0.70171

>  <SCORE.SYSTEM>
0

>  <SCORE.SYSTEM.CONST>
0

>  <SCORE.SYSTEM.DIHEDRAL>
0

>  <SCORE.SYSTEM.SOLV>
0

>  <SCORE.SYSTEM.norm>
0

>  <SCORE.heavy>
31

>  <SCORE.norm>
0.961693

>  <RMSD>
15.059

$$$$
ligand
 OpenBabel11021811493D
libRbt.so/2013.1/901 2013/11/27
 31 33  0  0  0  0  0  0  0  0999 V2000
  -33.4898   -8.5241  -10.2506 C   0  0  2  0  0  0  0  0  0  0  0  0
  -34.5957   -8.4863   -9.3607 O   0  0  0  0  0  0  0  0  0  0  0  0
  -33.6406  -11.7417   -6.7791 C   0  0  2  0  0  0  0  0  0  0  0  0
  -33.7181  -12.6447   -5.6763 N   0  0  0  0  0  0  0  0  0  0  0  0
  -34.6264  -13.5785   -9.4693 C   0  0  2  0  0  0  0  0  0  0  0  0
  -33.7093   -7.3665  -11.3109 C   0  0  2  0  0  0  0  0  0  0  0  0
  -33.7944   -6.0769  -10.6098 N   0  0  0  0  0  0  0  0  0  0  0  0
  -33.4750  -10.2660   -6.2092 C   0  0  0  0  0  0  0  0  0  0  0  0
  -34.8214  -15.1306   -9.5058 C   0  0  2  0  0  0  0  0  0  0  0  0
  -36.1726  -15.4072   -9.2223 O   0  0  0  0  0  0  0  0  0  0  0  0
  -35.0240   -7.6450  -12.1419 C   0  0  0  0  0  0  0  0  0  0  0  0
  -33.3814   -9.2564   -7.4405 C   0  0  2  0  0  0  0  0  0  0  0  0
  -33.2214   -7.8768   -6.9322 N   0  0  0  0  0  0  0  0  0  0  0  0
  -33.8586  -15.8053   -8.4423 C   0  0  1  0  0  0  0  0  0  0  0  0
  -34.0347  -17.3016   -8.4603 N   0  0  0  0  0  0  0  0  0  0  0  0
  -35.1987   -9.1786  -12.5023 C   0  0  0  0  0  0  0  0  0  0  0  0
  -34.7113   -9.3620   -8.2947 C   0  0  2  0  0  0  0  0  0  0  0  0
  -32.3162  -15.4504   -8.8199 C   0  0  1  0  0  0  0  0  0  0  0  0
  -31.9299  -15.9318  -10.0912 O   0  0  0  0  0  0  0  0  0  0  0  0
  -34.4278  -10.1247  -11.9197 C   0  0  2  0  0  0  0  0  0  0  0  0
  -33.4179   -9.8074  -10.9561 O   0  0  0  0  0  0  0  0  0  0  0  0
  -34.8705  -10.8411   -8.8374 C   0  0  2  0  0  0  0  0  0  0  0  0
  -36.0837  -10.9323   -9.6027 O   0  0  0  0  0  0  0  0  0  0  0  0
  -32.1448  -13.8949   -8.8065 C   0  0  0  0  0  0  0  0  0  0  0  0
  -33.1698  -13.2424   -9.7321 O   0  0  0  0  0  0  0  0  0  0  0  0
  -34.5661  -11.6115  -12.2438 C   0  0  0  0  0  0  0  0  0  0  0  0
  -33.3421  -12.2630  -11.8705 O   0  0  0  0  0  0  0  0  0  0  0  0
  -34.9630  -11.8455   -7.6209 C   0  0  1  0  0  0  0  0  0  0  0  0
  -35.0913  -13.1555   -8.1462 O   0  0  0  0  0  0  0  0  0  0  0  0
  -31.2655  -16.0334   -7.8508 C   0  0  0  0  0  0  0  0  0  0  0  0
  -33.7739  -18.0089   -7.1901 C   0  0  0  0  0  0  0  0  0  0  0  0
  1  2  1  1  0  0  0
  1  6  1  0  0  0  0
  1 21  1  0  0  0  0
  3  4  1  1  0  0  0
  3  8  1  0  0  0  0
  3 28  1  0  0  0  0
  5  9  1  0  0  0  0
  5 25  1  0  0  0  0
  5 29  1  1  0  0  0
  6  7  1  1  0  0  0
  6 11  1  0  0  0  0
  8 12  1  0  0  0  0
  9 10  1  1  0  0  0
  9 14  1  0  0  0  0
 11 16  1  0  0  0  0
 12 13  1  1  0  0  0
 12 17  1  0  0  0  0
 14 15  1  6  0  0  0
 14 18  1  0  0  0  0
 15 31  1  0  0  0  0
 16 20  1  0  0  0  0
 17  2  1  6  0  0  0
 17 22  1  0  0  0  0
 18 19  1  6  0  0  0
 18 24  1  0  0  0  0
 18 30  1  0  0  0  0
 20 21  1  0  0  0  0
 20 26  1  6  0  0  0
 22 23  1  1  0  0  0
 22 28  1  0  0  0  0
 24 25  1  0  0  0  0
 26 27  1  0  0  0  0
 28 29  1  6  0  0  0
M  END
>  <CHROM.1>
-179.21919238,172.75247878,-150.92388909,53.97968449,159.09881416,-93.23235486
-33.96618936,-11.93877504,-9.25646163,2.26451884,-1.42141193,0.43810172

>  <Name>
ligand

>  <RI>
0

>  <Rbt.Current_Directory>
/home/itssahil/PROJECTS/Mol_Feturizer/New_Systems/rnas/4GPW

>  <Rbt.Executable>
rbdock ($Id: //depot/dev/client3/rdock/2013.1/src/exe/rbdock.cxx#4 $)

>  <Rbt.Library>
libRbt.so (2013.1, Build901 2013/11/27)

>  <Rbt.Parameter_File>
/export/apps/rDock/src/rDock_2013.1_src/data/scripts/dock_solv.prm

>  <Rbt.Receptor>
prm/blind_docking_80.prm

>  <SCORE>
26.0816

>  <SCORE.INTER>
4.34649

>  <SCORE.INTER.CONST>
1

>  <SCORE.INTER.POLAR>
0

>  <SCORE.INTER.ROT>
6

>  <SCORE.INTER.SOLV>
10.9341

>  <SCORE.INTER.VDW>
-8.34705

>  <SCORE.INTER.norm>
0.140209

>  <SCORE.INTRA>
-0.744399

>  <SCORE.INTRA.DIHEDRAL>
-10.956

>  <SCORE.INTRA.DIHEDRAL.0>
19.2558

>  <SCORE.INTRA.POLAR>
0

>  <SCORE.INTRA.POLAR.0>
0

>  <SCORE.INTRA.REPUL>
0.384175

>  <SCORE.INTRA.REPUL.0>
0

>  <SCORE.INTRA.SOLV>
-0.00757918

>  <SCORE.INTRA.SOLV.lig_0>
-64.5929

>  <SCORE.INTRA.VDW>
2.8165

>  <SCORE.INTRA.VDW.0>
-4.40538

>  <SCORE.INTRA.norm>
-0.0240129

>  <SCORE.RESTR>
22.4795

>  <SCORE.RESTR.CAVITY>
22.4795

>  <SCORE.RESTR.norm>
0.725144

>  <SCORE.SYSTEM>
0

>  <SCORE.SYSTEM.CONST>
0

>  <SCORE.SYSTEM.DIHEDRAL>
0

>  <SCORE.SYSTEM.SOLV>
0

>  <SCORE.SYSTEM.norm>
0

>  <SCORE.heavy>
31

>  <SCORE.norm>
0.84134

>  <RMSD>
15.079

$$$$
ligand
 OpenBabel11021811493D
libRbt.so/2013.1/901 2013/11/27
 31 33  0  0  0  0  0  0  0  0999 V2000
  -33.4275   -9.3378  -11.1300 C   0  0  2  0  0  0  0  0  0  0  0  0
  -34.5348   -8.9715  -10.3200 O   0  0  0  0  0  0  0  0  0  0  0  0
  -32.7838   -9.0023   -6.4331 C   0  0  2  0  0  0  0  0  0  0  0  0
  -32.6812   -8.9837   -5.0096 N   0  0  0  0  0  0  0  0  0  0  0  0
  -33.4925  -12.5320   -5.6870 C   0  0  2  0  0  0  0  0  0  0  0  0
  -33.8681   -9.1288  -12.6382 C   0  0  2  0  0  0  0  0  0  0  0  0
  -34.2447   -7.7223  -12.8425 N   0  0  0  0  0  0  0  0  0  0  0  0
  -33.5381   -7.6819   -6.8997 C   0  0  0  0  0  0  0  0  0  0  0  0
  -33.0161  -13.8513   -6.3804 C   0  0  2  0  0  0  0  0  0  0  0  0
  -31.6094  -13.8298   -6.4389 O   0  0  0  0  0  0  0  0  0  0  0  0
  -35.0733  -10.0913  -12.9812 C   0  0  0  0  0  0  0  0  0  0  0  0
  -33.6476   -7.6980   -8.4909 C   0  0  2  0  0  0  0  0  0  0  0  0
  -34.3421   -6.4744   -8.9468 N   0  0  0  0  0  0  0  0  0  0  0  0
  -33.6528  -13.9416   -7.8294 C   0  0  1  0  0  0  0  0  0  0  0  0
  -33.2023  -15.2055   -8.5151 N   0  0  0  0  0  0  0  0  0  0  0  0
  -34.9052  -11.5271  -12.3311 C   0  0  0  0  0  0  0  0  0  0  0  0
  -34.4677   -8.9776   -8.9373 C   0  0  2  0  0  0  0  0  0  0  0  0
  -35.2745  -13.9611   -7.6981 C   0  0  1  0  0  0  0  0  0  0  0  0
  -35.7597  -15.0667   -6.9637 O   0  0  0  0  0  0  0  0  0  0  0  0
  -33.9614  -11.7615  -11.3913 C   0  0  2  0  0  0  0  0  0  0  0  0
  -33.0651  -10.7447  -10.9314 O   0  0  0  0  0  0  0  0  0  0  0  0
  -33.7135  -10.2814   -8.4481 C   0  0  2  0  0  0  0  0  0  0  0  0
  -34.4679  -11.4378   -8.8475 O   0  0  0  0  0  0  0  0  0  0  0  0
  -35.7323  -12.6492   -6.9782 C   0  0  0  0  0  0  0  0  0  0  0  0
  -35.0092  -12.5003   -5.6409 O   0  0  0  0  0  0  0  0  0  0  0  0
  -33.7688  -13.1324  -10.7444 C   0  0  0  0  0  0  0  0  0  0  0  0
  -32.4774  -13.6278  -11.1303 O   0  0  0  0  0  0  0  0  0  0  0  0
  -33.6019  -10.2698   -6.8719 C   0  0  1  0  0  0  0  0  0  0  0  0
  -32.9118  -11.4424   -6.4753 O   0  0  0  0  0  0  0  0  0  0  0  0
  -36.0287  -14.0302   -9.0433 C   0  0  0  0  0  0  0  0  0  0  0  0
  -31.7646  -15.2993   -8.8407 C   0  0  0  0  0  0  0  0  0  0  0  0
  1  2  1  1  0  0  0
  1  6  1  0  0  0  0
  1 21  1  0  0  0  0
  3  4  1  1  0  0  0
  3  8  1  0  0  0  0
  3 28  1  0  0  0  0
  5  9  1  0  0  0  0
  5 25  1  0  0  0  0
  5 29  1  6  0  0  0
  6  7  1  1  0  0  0
  6 11  1  0  0  0  0
  8 12  1  0  0  0  0
  9 10  1  6  0  0  0
  9 14  1  0  0  0  0
 11 16  1  0  0  0  0
 12 13  1  1  0  0  0
 12 17  1  0  0  0  0
 14 15  1  1  0  0  0
 14 18  1  0  0  0  0
 15 31  1  0  0  0  0
 16 20  1  0  0  0  0
 17  2  1  6  0  0  0
 17 22  1  0  0  0  0
 18 19  1  1  0  0  0
 18 24  1  0  0  0  0
 18 30  1  0  0  0  0
 20 21  1  0  0  0  0
 20 26  1  6  0  0  0
 22 23  1  1  0  0  0
 22 28  1  0  0  0  0
 24 25  1  0  0  0  0
 26 27  1  0  0  0  0
 28 29  1  6  0  0  0
M  END
>  <CHROM.1>
-176.98506616,136.03485288,-66.26447499,76.00143129,114.65327618,126.92441746
-33.86713401,-11.38070623,-8.76377622,2.09539143,-1.46648602,-0.09508513

>  <Name>
ligand

>  <RI>
0

>  <Rbt.Current_Directory>
/home/itssahil/PROJECTS/Mol_Feturizer/New_Systems/rnas/4GPW

>  <Rbt.Executable>
rbdock ($Id: //depot/dev/client3/rdock/2013.1/src/exe/rbdock.cxx#4 $)

>  <Rbt.Library>
libRbt.so (2013.1, Build901 2013/11/27)

>  <Rbt.Parameter_File>
/export/apps/rDock/src/rDock_2013.1_src/data/scripts/dock_solv.prm

>  <Rbt.Receptor>
prm/blind_docking_80.prm

>  <SCORE>
38.4255

>  <SCORE.INTER>
8.02488

>  <SCORE.INTER.CONST>
1

>  <SCORE.INTER.POLAR>
0

>  <SCORE.INTER.ROT>
6

>  <SCORE.INTER.SOLV>
9.84181

>  <SCORE.INTER.VDW>
-5.53068

>  <SCORE.INTER.norm>
0.258867

>  <SCORE.INTRA>
8.09942

>  <SCORE.INTRA.DIHEDRAL>
-3.30187

>  <SCORE.INTRA.DIHEDRAL.0>
19.2558

>  <SCORE.INTRA.POLAR>
0

>  <SCORE.INTRA.POLAR.0>
0

>  <SCORE.INTRA.REPUL>
0

>  <SCORE.INTRA.REPUL.0>
0

>  <SCORE.INTRA.SOLV>
0.200658

>  <SCORE.INTRA.SOLV.lig_0>
-64.5929

>  <SCORE.INTRA.VDW>
9.65002

>  <SCORE.INTRA.VDW.0>
-4.40538

>  <SCORE.INTRA.norm>
0.261271

>  <SCORE.RESTR>
22.3013

>  <SCORE.RESTR.CAVITY>
22.3013

>  <SCORE.RESTR.norm>
0.719395

>  <SCORE.SYSTEM>
0

>  <SCORE.SYSTEM.CONST>
0

>  <SCORE.SYSTEM.DIHEDRAL>
0

>  <SCORE.SYSTEM.SOLV>
0

>  <SCORE.SYSTEM.norm>
0

>  <SCORE.heavy>
31

>  <SCORE.norm>
1.23953

>  <RMSD>
15.094

$$$$
ligand
 OpenBabel11021811493D
libRbt.so/2013.1/901 2013/11/27
 31 33  0  0  0  0  0  0  0  0999 V2000
  -33.1485   -8.5989  -10.7056 C   0  0  2  0  0  0  0  0  0  0  0  0
  -34.2636   -8.3969   -9.8499 O   0  0  0  0  0  0  0  0  0  0  0  0
  -32.6220   -9.3664   -6.0368 C   0  0  2  0  0  0  0  0  0  0  0  0
  -32.5597   -9.7015   -4.6508 N   0  0  0  0  0  0  0  0  0  0  0  0
  -33.2651  -12.9834   -6.2217 C   0  0  2  0  0  0  0  0  0  0  0  0
  -33.3241   -7.6140  -11.9350 C   0  0  2  0  0  0  0  0  0  0  0  0
  -33.3829   -6.2299  -11.4424 N   0  0  0  0  0  0  0  0  0  0  0  0
  -33.3953   -7.9843   -6.1851 C   0  0  0  0  0  0  0  0  0  0  0  0
  -32.9000  -14.0413   -7.3152 C   0  0  2  0  0  0  0  0  0  0  0  0
  -31.5011  -14.0377   -7.4755 O   0  0  0  0  0  0  0  0  0  0  0  0
  -34.6357   -7.9850  -12.7340 C   0  0  0  0  0  0  0  0  0  0  0  0
  -33.4598   -7.6049   -7.7330 C   0  0  2  0  0  0  0  0  0  0  0  0
  -34.1713   -6.3183   -7.8931 N   0  0  0  0  0  0  0  0  0  0  0  0
  -33.6371  -13.6717   -8.6692 C   0  0  1  0  0  0  0  0  0  0  0  0
  -33.2945  -14.6784   -9.7368 N   0  0  0  0  0  0  0  0  0  0  0  0
  -34.8472   -9.5511  -12.8565 C   0  0  0  0  0  0  0  0  0  0  0  0
  -34.2351   -8.7465   -8.5107 C   0  0  2  0  0  0  0  0  0  0  0  0
  -35.2452  -13.6901   -8.4223 C   0  0  1  0  0  0  0  0  0  0  0  0
  -35.7314  -14.9542   -8.0186 O   0  0  0  0  0  0  0  0  0  0  0  0
  -34.1091  -10.4145  -12.1228 C   0  0  2  0  0  0  0  0  0  0  0  0
  -33.1027   -9.9772  -11.2036 O   0  0  0  0  0  0  0  0  0  0  0  0
  -33.4629  -10.1181   -8.3364 C   0  0  2  0  0  0  0  0  0  0  0  0
  -34.1769  -11.1510   -9.0358 O   0  0  0  0  0  0  0  0  0  0  0  0
  -35.5904  -12.6478   -7.3071 C   0  0  0  0  0  0  0  0  0  0  0  0
  -34.7721  -12.9299   -6.0485 O   0  0  0  0  0  0  0  0  0  0  0  0
  -34.2834  -11.9297  -12.2161 C   0  0  0  0  0  0  0  0  0  0  0  0
  -35.6905  -12.2163  -12.2024 O   0  0  0  0  0  0  0  0  0  0  0  0
  -33.3958  -10.4981   -6.8041 C   0  0  1  0  0  0  0  0  0  0  0  0
  -32.6883  -11.7207   -6.6888 O   0  0  0  0  0  0  0  0  0  0  0  0
  -36.0913  -13.3290   -9.6619 C   0  0  0  0  0  0  0  0  0  0  0  0
  -31.8738  -14.7576  -10.1331 C   0  0  0  0  0  0  0  0  0  0  0  0
  1  2  1  1  0  0  0
  1  6  1  0  0  0  0
  1 21  1  0  0  0  0
  3  4  1  1  0  0  0
  3  8  1  0  0  0  0
  3 28  1  0  0  0  0
  5  9  1  0  0  0  0
  5 25  1  0  0  0  0
  5 29  1  6  0  0  0
  6  7  1  1  0  0  0
  6 11  1  0  0  0  0
  8 12  1  0  0  0  0
  9 10  1  6  0  0  0
  9 14  1  0  0  0  0
 11 16  1  0  0  0  0
 12 13  1  1  0  0  0
 12 17  1  0  0  0  0
 14 15  1  6  0  0  0
 14 18  1  0  0  0  0
 15 31  1  0  0  0  0
 16 20  1  0  0  0  0
 17  2  1  6  0  0  0
 17 22  1  0  0  0  0
 18 19  1  1  0  0  0
 18 24  1  0  0  0  0
 18 30  1  0  0  0  0
 20 21  1  0  0  0  0
 20 26  1  6  0  0  0
 22 23  1  6  0  0  0
 22 28  1  0  0  0  0
 24 25  1  0  0  0  0
 26 27  1  0  0  0  0
 28 29  1  6  0  0  0
M  END
>  <CHROM.1>
-158.57499700,128.29726743,-62.89285558,79.52631378,-44.85028458,127.20561253
-33.84459517,-10.95120386,-8.98377487,1.67046958,-1.36042012,-0.39125926

>  <Name>
ligand

>  <RI>
0

>  <Rbt.Current_Directory>
/home/itssahil/PROJECTS/Mol_Feturizer/New_Systems/rnas/4GPW

>  <Rbt.Executable>
rbdock ($Id: //depot/dev/client3/rdock/2013.1/src/exe/rbdock.cxx#4 $)

>  <Rbt.Library>
libRbt.so (2013.1, Build901 2013/11/27)

>  <Rbt.Parameter_File>
/export/apps/rDock/src/rDock_2013.1_src/data/scripts/dock_solv.prm

>  <Rbt.Receptor>
prm/blind_docking_80.prm

>  <SCORE>
34.8815

>  <SCORE.INTER>
6.58287

>  <SCORE.INTER.CONST>
1

>  <SCORE.INTER.POLAR>
0

>  <SCORE.INTER.ROT>
6

>  <SCORE.INTER.SOLV>
10.1263

>  <SCORE.INTER.VDW>
-6.58685

>  <SCORE.INTER.norm>
0.212351

>  <SCORE.INTRA>
6.47501

>  <SCORE.INTRA.DIHEDRAL>
1.63349

>  <SCORE.INTRA.DIHEDRAL.0>
19.2558

>  <SCORE.INTRA.POLAR>
0

>  <SCORE.INTRA.POLAR.0>
0

>  <SCORE.INTRA.REPUL>
0

>  <SCORE.INTRA.REPUL.0>
0

>  <SCORE.INTRA.SOLV>
0.391023

>  <SCORE.INTRA.SOLV.lig_0>
-64.5929

>  <SCORE.INTRA.VDW>
5.46275

>  <SCORE.INTRA.VDW.0>
-4.40538

>  <SCORE.INTRA.norm>
0.208871

>  <SCORE.RESTR>
21.8236

>  <SCORE.RESTR.CAVITY>
21.8236

>  <SCORE.RESTR.norm>
0.703989

>  <SCORE.SYSTEM>
0

>  <SCORE.SYSTEM.CONST>
0

>  <SCORE.SYSTEM.DIHEDRAL>
0

>  <SCORE.SYSTEM.SOLV>
0

>  <SCORE.SYSTEM.norm>
0

>  <SCORE.heavy>
31

>  <SCORE.norm>
1.12521

>  <RMSD>
15.140

$$$$
ligand
 OpenBabel11021811493D
libRbt.so/2013.1/901 2013/11/27
 31 33  0  0  0  0  0  0  0  0999 V2000
  -33.9355   -7.5869  -10.4565 C   0  0  2  0  0  0  0  0  0  0  0  0
  -33.1579   -8.7673  -10.5939 O   0  0  0  0  0  0  0  0  0  0  0  0
  -36.2327  -11.7084  -10.8586 C   0  0  2  0  0  0  0  0  0  0  0  0
  -36.8615  -12.9769  -11.0400 N   0  0  0  0  0  0  0  0  0  0  0  0
  -35.7896  -13.2758   -7.6262 C   0  0  2  0  0  0  0  0  0  0  0  0
  -32.9403   -6.4219  -10.0506 C   0  0  2  0  0  0  0  0  0  0  0  0
  -31.9152   -6.2747  -11.0942 N   0  0  0  0  0  0  0  0  0  0  0  0
  -35.4248  -11.3544  -12.1822 C   0  0  0  0  0  0  0  0  0  0  0  0
  -34.5109  -12.9922   -6.7703 C   0  0  2  0  0  0  0  0  0  0  0  0
  -34.7148  -11.7896   -6.0669 O   0  0  0  0  0  0  0  0  0  0  0  0
  -32.2798   -6.7460   -8.6523 C   0  0  0  0  0  0  0  0  0  0  0  0
  -34.7270   -9.9339  -11.9836 C   0  0  2  0  0  0  0  0  0  0  0  0
  -33.9737   -9.5826  -13.2069 N   0  0  0  0  0  0  0  0  0  0  0  0
  -33.2506  -12.8946   -7.7270 C   0  0  1  0  0  0  0  0  0  0  0  0
  -32.0083  -12.6179   -6.9204 N   0  0  0  0  0  0  0  0  0  0  0  0
  -33.3089   -7.3858   -7.6305 C   0  0  0  0  0  0  0  0  0  0  0  0
  -33.7374  -10.0149  -10.7494 C   0  0  2  0  0  0  0  0  0  0  0  0
  -33.0670  -14.3081   -8.5116 C   0  0  1  0  0  0  0  0  0  0  0  0
  -32.8437  -15.4010   -7.6438 O   0  0  0  0  0  0  0  0  0  0  0  0
  -34.5207   -7.8228   -8.0421 C   0  0  2  0  0  0  0  0  0  0  0  0
  -34.9472   -7.7355   -9.4056 O   0  0  0  0  0  0  0  0  0  0  0  0
  -34.5545  -10.3872   -9.4450 C   0  0  2  0  0  0  0  0  0  0  0  0
  -33.6494  -10.4689   -8.3314 O   0  0  0  0  0  0  0  0  0  0  0  0
  -34.3643  -14.5909   -9.3399 C   0  0  0  0  0  0  0  0  0  0  0  0
  -35.5914  -14.5471   -8.4313 O   0  0  0  0  0  0  0  0  0  0  0  0
  -35.5388   -8.4426   -7.0859 C   0  0  0  0  0  0  0  0  0  0  0  0
  -36.4919   -9.1786   -7.8683 O   0  0  0  0  0  0  0  0  0  0  0  0
  -35.2484  -11.7938   -9.6371 C   0  0  1  0  0  0  0  0  0  0  0  0
  -35.9780  -12.0845   -8.4574 O   0  0  0  0  0  0  0  0  0  0  0  0
  -31.8791  -14.3484   -9.4967 C   0  0  0  0  0  0  0  0  0  0  0  0
  -31.9434  -11.3068   -6.2433 C   0  0  0  0  0  0  0  0  0  0  0  0
  1  2  1  1  0  0  0
  1  6  1  0  0  0  0
  1 21  1  0  0  0  0
  3  4  1  6  0  0  0
  3  8  1  0  0  0  0
  3 28  1  0  0  0  0
  5  9  1  0  0  0  0
  5 25  1  0  0  0  0
  5 29  1  6  0  0  0
  6  7  1  6  0  0  0
  6 11  1  0  0  0  0
  8 12  1  0  0  0  0
  9 10  1  6  0  0  0
  9 14  1  0  0  0  0
 11 16  1  0  0  0  0
 12 13  1  6  0  0  0
 12 17  1  0  0  0  0
 14 15  1  1  0  0  0
 14 18  1  0  0  0  0
 15 31  1  0  0  0  0
 16 20  1  0  0  0  0
 17  2  1  1  0  0  0
 17 22  1  0  0  0  0
 18 19  1  1  0  0  0
 18 24  1  0  0  0  0
 18 30  1  0  0  0  0
 20 21  1  0  0  0  0
 20 26  1  1  0  0  0
 22 23  1  1  0  0  0
 22 28  1  0  0  0  0
 24 25  1  0  0  0  0
 26 27  1  0  0  0  0
 28 29  1  1  0  0  0
M  END
>  <CHROM.1>
170.30105546,78.58917379,-66.17090119,54.41706827,-161.39449852,118.93844655
-34.17832330,-10.81651721,-9.04481529,1.37137137,-1.17175041,-0.44833927

>  <Name>
ligand

>  <RI>
0

>  <Rbt.Current_Directory>
/home/itssahil/PROJECTS/Mol_Feturizer/New_Systems/rnas/4GPW

>  <Rbt.Executable>
rbdock ($Id: //depot/dev/client3/rdock/2013.1/src/exe/rbdock.cxx#4 $)

>  <Rbt.Library>
libRbt.so (2013.1, Build901 2013/11/27)

>  <Rbt.Parameter_File>
/export/apps/rDock/src/rDock_2013.1_src/data/scripts/dock_solv.prm

>  <Rbt.Receptor>
prm/blind_docking_80.prm

>  <SCORE>
34.9311

>  <SCORE.INTER>
9.83075

>  <SCORE.INTER.CONST>
1

>  <SCORE.INTER.POLAR>
0

>  <SCORE.INTER.ROT>
6

>  <SCORE.INTER.SOLV>
11.9913

>  <SCORE.INTER.VDW>
-5.04326

>  <SCORE.INTER.norm>
0.317121

>  <SCORE.INTRA>
2.69604

>  <SCORE.INTRA.DIHEDRAL>
-6.66986

>  <SCORE.INTRA.DIHEDRAL.0>
19.2558

>  <SCORE.INTRA.POLAR>
0

>  <SCORE.INTRA.POLAR.0>
0

>  <SCORE.INTRA.REPUL>
0

>  <SCORE.INTRA.REPUL.0>
0

>  <SCORE.INTRA.SOLV>
1.92513

>  <SCORE.INTRA.SOLV.lig_0>
-64.5929

>  <SCORE.INTRA.VDW>
5.06841

>  <SCORE.INTRA.VDW.0>
-4.40538

>  <SCORE.INTRA.norm>
0.0869692

>  <SCORE.RESTR>
22.4043

>  <SCORE.RESTR.CAVITY>
22.4043

>  <SCORE.RESTR.norm>
0.722718

>  <SCORE.SYSTEM>
0

>  <SCORE.SYSTEM.CONST>
0

>  <SCORE.SYSTEM.DIHEDRAL>
0

>  <SCORE.SYSTEM.SOLV>
0

>  <SCORE.SYSTEM.norm>
0

>  <SCORE.heavy>
31

>  <SCORE.norm>
1.12681

>  <RMSD>
15.145

$$$$
ligand
 OpenBabel11021811493D
libRbt.so/2013.1/901 2013/11/27
 31 33  0  0  0  0  0  0  0  0999 V2000
  -33.8334   -7.5284  -10.4310 C   0  0  2  0  0  0  0  0  0  0  0  0
  -33.0721   -8.7178  -10.5803 O   0  0  0  0  0  0  0  0  0  0  0  0
  -36.1885  -11.5988  -10.9837 C   0  0  2  0  0  0  0  0  0  0  0  0
  -36.8335  -12.8534  -11.2010 N   0  0  0  0  0  0  0  0  0  0  0  0
  -35.8735  -13.2006   -7.7461 C   0  0  2  0  0  0  0  0  0  0  0  0
  -32.8268   -6.3875   -9.9865 C   0  0  2  0  0  0  0  0  0  0  0  0
  -31.7833   -6.2357  -11.0112 N   0  0  0  0  0  0  0  0  0  0  0  0
  -35.3293  -11.2455  -12.2748 C   0  0  0  0  0  0  0  0  0  0  0  0
  -34.5700  -12.9693   -6.9120 C   0  0  2  0  0  0  0  0  0  0  0  0
  -34.7103  -11.7563   -6.2109 O   0  0  0  0  0  0  0  0  0  0  0  0
  -32.1933   -6.7499   -8.5851 C   0  0  0  0  0  0  0  0  0  0  0  0
  -34.6132   -9.8403  -12.0362 C   0  0  2  0  0  0  0  0  0  0  0  0
  -33.8120   -9.4897  -13.2289 N   0  0  0  0  0  0  0  0  0  0  0  0
  -33.3222  -12.9302   -7.8891 C   0  0  1  0  0  0  0  0  0  0  0  0
  -32.0563  -12.7046   -7.1036 N   0  0  0  0  0  0  0  0  0  0  0  0
  -33.2480   -7.3936   -7.5923 C   0  0  0  0  0  0  0  0  0  0  0  0
  -33.6683   -9.9528  -10.7699 C   0  0  2  0  0  0  0  0  0  0  0  0
  -33.2127  -14.3534   -8.6700 C   0  0  1  0  0  0  0  0  0  0  0  0
  -33.0230  -15.4516   -7.8009 O   0  0  0  0  0  0  0  0  0  0  0  0
  -34.4598   -7.8032   -8.0311 C   0  0  2  0  0  0  0  0  0  0  0  0
  -34.8636   -7.6819   -9.3990 O   0  0  0  0  0  0  0  0  0  0  0  0
  -34.5364  -10.3240   -9.4985 C   0  0  2  0  0  0  0  0  0  0  0  0
  -33.6718  -10.4344   -8.3556 O   0  0  0  0  0  0  0  0  0  0  0  0
  -34.5342  -14.5828   -9.4763 C   0  0  0  0  0  0  0  0  0  0  0  0
  -35.7435  -14.4824   -8.5484 O   0  0  0  0  0  0  0  0  0  0  0  0
  -35.5022   -8.4257   -7.1034 C   0  0  0  0  0  0  0  0  0  0  0  0
  -36.7992   -7.9831   -7.5324 O   0  0  0  0  0  0  0  0  0  0  0  0
  -35.2485  -11.7155   -9.7303 C   0  0  1  0  0  0  0  0  0  0  0  0
  -36.0234  -12.0055   -8.5796 O   0  0  0  0  0  0  0  0  0  0  0  0
  -32.0437  -14.4490   -9.6737 C   0  0  0  0  0  0  0  0  0  0  0  0
  -31.9435  -11.4125   -6.3968 C   0  0  0  0  0  0  0  0  0  0  0  0
  1  2  1  1  0  0  0
  1  6  1  0  0  0  0
  1 21  1  0  0  0  0
  3  4  1  6  0  0  0
  3  8  1  0  0  0  0
  3 28  1  0  0  0  0
  5  9  1  0  0  0  0
  5 25  1  0  0  0  0
  5 29  1  6  0  0  0
  6  7  1  6  0  0  0
  6 11  1  0  0  0  0
  8 12  1  0  0  0  0
  9 10  1  6  0  0  0
  9 14  1  0  0  0  0
 11 16  1  0  0  0  0
 12 13  1  6  0  0  0
 12 17  1  0  0  0  0
 14 15  1  1  0  0  0
 14 18  1  0  0  0  0
 15 31  1  0  0  0  0
 16 20  1  0  0  0  0
 17  2  1  1  0  0  0
 17 22  1  0  0  0  0
 18 19  1  1  0  0  0
 18 24  1  0  0  0  0
 18 30  1  0  0  0  0
 20 21  1  0  0  0  0
 20 26  1  1  0  0  0
 22 23  1  1  0  0  0
 22 28  1  0  0  0  0
 24 25  1  0  0  0  0
 26 27  1  0  0  0  0
 28 29  1  1  0  0  0
M  END
>  <CHROM.1>
170.29909315,74.83708095,-64.20605054,55.62383048,143.75531741,119.78140713
-34.18603009,-10.74515054,-9.10136606,1.26921899,-1.26593741,-0.49350239

>  <Name>
ligand

>  <RI>
0

>  <Rbt.Current_Directory>
/home/itssahil/PROJECTS/Mol_Feturizer/New_Systems/rnas/4GPW

>  <Rbt.Executable>
rbdock ($Id: //depot/dev/client3/rdock/2013.1/src/exe/rbdock.cxx#4 $)

>  <Rbt.Library>
libRbt.so (2013.1, Build901 2013/11/27)

>  <Rbt.Parameter_File>
/export/apps/rDock/src/rDock_2013.1_src/data/scripts/dock_solv.prm

>  <Rbt.Receptor>
prm/blind_docking_80.prm

>  <SCORE>
34.7394

>  <SCORE.INTER>
9.75713

>  <SCORE.INTER.CONST>
1

>  <SCORE.INTER.POLAR>
0

>  <SCORE.INTER.ROT>
6

>  <SCORE.INTER.SOLV>
12.3571

>  <SCORE.INTER.VDW>
-5.21427

>  <SCORE.INTER.norm>
0.314746

>  <SCORE.INTRA>
1.98222

>  <SCORE.INTRA.DIHEDRAL>
-8.13129

>  <SCORE.INTRA.DIHEDRAL.0>
19.2558

>  <SCORE.INTRA.POLAR>
0

>  <SCORE.INTRA.POLAR.0>
0

>  <SCORE.INTRA.REPUL>
0

>  <SCORE.INTRA.REPUL.0>
0

>  <SCORE.INTRA.SOLV>
1.01605

>  <SCORE.INTRA.SOLV.lig_0>
-64.5929

>  <SCORE.INTRA.VDW>
5.53984

>  <SCORE.INTRA.VDW.0>
-4.40538

>  <SCORE.INTRA.norm>
0.0639426

>  <SCORE.RESTR>
23

>  <SCORE.RESTR.CAVITY>
23

>  <SCORE.RESTR.norm>
0.741936

>  <SCORE.SYSTEM>
0

>  <SCORE.SYSTEM.CONST>
0

>  <SCORE.SYSTEM.DIHEDRAL>
0

>  <SCORE.SYSTEM.SOLV>
0

>  <SCORE.SYSTEM.norm>
0

>  <SCORE.heavy>
31

>  <SCORE.norm>
1.12062

>  <RMSD>
15.154

$$$$
ligand
 OpenBabel11021811493D
libRbt.so/2013.1/901 2013/11/27
 31 33  0  0  0  0  0  0  0  0999 V2000
  -34.0099  -10.2740  -11.8435 C   0  0  2  0  0  0  0  0  0  0  0  0
  -34.2685   -9.3375  -10.8079 O   0  0  0  0  0  0  0  0  0  0  0  0
  -32.9197   -9.7347   -6.7833 C   0  0  2  0  0  0  0  0  0  0  0  0
  -32.9201  -10.0770   -5.3976 N   0  0  0  0  0  0  0  0  0  0  0  0
  -31.9854  -13.1488   -6.6553 C   0  0  2  0  0  0  0  0  0  0  0  0
  -34.2948   -9.5357  -13.2169 C   0  0  2  0  0  0  0  0  0  0  0  0
  -33.4216   -8.3576  -13.3239 N   0  0  0  0  0  0  0  0  0  0  0  0
  -34.1545   -8.7720   -7.0632 C   0  0  0  0  0  0  0  0  0  0  0  0
  -32.0976  -14.2728   -7.7379 C   0  0  2  0  0  0  0  0  0  0  0  0
  -31.0151  -14.1313   -8.6273 O   0  0  0  0  0  0  0  0  0  0  0  0
  -35.8169   -9.1190  -13.2940 C   0  0  0  0  0  0  0  0  0  0  0  0
  -34.1514   -8.3831   -8.6102 C   0  0  2  0  0  0  0  0  0  0  0  0
  -35.2903   -7.4825   -8.8914 N   0  0  0  0  0  0  0  0  0  0  0  0
  -33.4855  -14.1380   -8.4920 C   0  0  1  0  0  0  0  0  0  0  0  0
  -33.6106  -15.2112   -9.5423 N   0  0  0  0  0  0  0  0  0  0  0  0
  -36.7798  -10.2325  -12.7065 C   0  0  0  0  0  0  0  0  0  0  0  0
  -34.2872   -9.7044   -9.4732 C   0  0  2  0  0  0  0  0  0  0  0  0
  -34.6945  -14.3081   -7.4164 C   0  0  1  0  0  0  0  0  0  0  0  0
  -34.6939  -15.5665   -6.7734 O   0  0  0  0  0  0  0  0  0  0  0  0
  -36.2905  -11.2754  -11.9982 C   0  0  2  0  0  0  0  0  0  0  0  0
  -34.8924  -11.4403  -11.7389 O   0  0  0  0  0  0  0  0  0  0  0  0
  -33.0612  -10.6592   -9.1678 C   0  0  2  0  0  0  0  0  0  0  0  0
  -33.1960  -11.8599   -9.9462 O   0  0  0  0  0  0  0  0  0  0  0  0
  -34.5520  -13.1948   -6.3258 C   0  0  0  0  0  0  0  0  0  0  0  0
  -33.1599  -13.2446   -5.6988 O   0  0  0  0  0  0  0  0  0  0  0  0
  -37.1875  -12.3683  -11.4188 C   0  0  0  0  0  0  0  0  0  0  0  0
  -36.9183  -12.4639  -10.0114 O   0  0  0  0  0  0  0  0  0  0  0  0
  -33.0595  -11.0469   -7.6359 C   0  0  1  0  0  0  0  0  0  0  0  0
  -31.9437  -11.8885   -7.4006 O   0  0  0  0  0  0  0  0  0  0  0  0
  -36.1117  -14.1812   -8.0151 C   0  0  0  0  0  0  0  0  0  0  0  0
  -33.1481  -16.5610   -9.1604 C   0  0  0  0  0  0  0  0  0  0  0  0
  1  2  1  1  0  0  0
  1  6  1  0  0  0  0
  1 21  1  0  0  0  0
  3  4  1  1  0  0  0
  3  8  1  0  0  0  0
  3 28  1  0  0  0  0
  5  9  1  0  0  0  0
  5 25  1  0  0  0  0
  5 29  1  6  0  0  0
  6  7  1  1  0  0  0
  6 11  1  0  0  0  0
  8 12  1  0  0  0  0
  9 10  1  6  0  0  0
  9 14  1  0  0  0  0
 11 16  1  0  0  0  0
 12 13  1  1  0  0  0
 12 17  1  0  0  0  0
 14 15  1  6  0  0  0
 14 18  1  0  0  0  0
 15 31  1  0  0  0  0
 16 20  1  0  0  0  0
 17  2  1  6  0  0  0
 17 22  1  0  0  0  0
 18 19  1  1  0  0  0
 18 24  1  0  0  0  0
 18 30  1  0  0  0  0
 20 21  1  0  0  0  0
 20 26  1  6  0  0  0
 22 23  1  6  0  0  0
 22 28  1  0  0  0  0
 24 25  1  0  0  0  0
 26 27  1  0  0  0  0
 28 29  1  6  0  0  0
M  END
>  <CHROM.1>
171.38804688,97.40143739,41.74089635,162.67948342,-125.55415955,109.09602682
-34.11025415,-11.72524547,-9.19192040,2.24704318,-1.10646525,-0.17380489

>  <Name>
ligand

>  <RI>
0

>  <Rbt.Current_Directory>
/home/itssahil/PROJECTS/Mol_Feturizer/New_Systems/rnas/4GPW

>  <Rbt.Executable>
rbdock ($Id: //depot/dev/client3/rdock/2013.1/src/exe/rbdock.cxx#4 $)

>  <Rbt.Library>
libRbt.so (2013.1, Build901 2013/11/27)

>  <Rbt.Parameter_File>
/export/apps/rDock/src/rDock_2013.1_src/data/scripts/dock_solv.prm

>  <Rbt.Receptor>
prm/blind_docking_80.prm

>  <SCORE>
29.9703

>  <SCORE.INTER>
4.84997

>  <SCORE.INTER.CONST>
1

>  <SCORE.INTER.POLAR>
0

>  <SCORE.INTER.ROT>
6

>  <SCORE.INTER.SOLV>
13.1613

>  <SCORE.INTER.VDW>
-8.75379

>  <SCORE.INTER.norm>
0.156451

>  <SCORE.INTRA>
3.48343

>  <SCORE.INTRA.DIHEDRAL>
-3.95167

>  <SCORE.INTRA.DIHEDRAL.0>
19.2558

>  <SCORE.INTRA.POLAR>
0

>  <SCORE.INTRA.POLAR.0>
0

>  <SCORE.INTRA.REPUL>
0

>  <SCORE.INTRA.REPUL.0>
0

>  <SCORE.INTRA.SOLV>
-0.335448

>  <SCORE.INTRA.SOLV.lig_0>
-64.5929

>  <SCORE.INTRA.VDW>
5.62699

>  <SCORE.INTRA.VDW.0>
-4.40538

>  <SCORE.INTRA.norm>
0.112369

>  <SCORE.RESTR>
21.6369

>  <SCORE.RESTR.CAVITY>
21.6369

>  <SCORE.RESTR.norm>
0.697965

>  <SCORE.SYSTEM>
0

>  <SCORE.SYSTEM.CONST>
0

>  <SCORE.SYSTEM.DIHEDRAL>
0

>  <SCORE.SYSTEM.SOLV>
0

>  <SCORE.SYSTEM.norm>
0

>  <SCORE.heavy>
31

>  <SCORE.norm>
0.966785

>  <RMSD>
15.226

$$$$
ligand
 OpenBabel11021811493D
libRbt.so/2013.1/901 2013/11/27
 31 33  0  0  0  0  0  0  0  0999 V2000
  -33.0813   -8.6924  -12.0268 C   0  0  2  0  0  0  0  0  0  0  0  0
  -33.7846   -7.9958  -11.0086 O   0  0  0  0  0  0  0  0  0  0  0  0
  -35.0673   -9.0115   -7.0719 C   0  0  2  0  0  0  0  0  0  0  0  0
  -35.7864   -9.6579   -6.0220 N   0  0  0  0  0  0  0  0  0  0  0  0
  -33.4248  -12.0343   -6.4303 C   0  0  2  0  0  0  0  0  0  0  0  0
  -33.5402   -8.0740  -13.4122 C   0  0  2  0  0  0  0  0  0  0  0  0
  -33.2298   -6.6369  -13.4280 N   0  0  0  0  0  0  0  0  0  0  0  0
  -36.1154   -8.3051   -8.0376 C   0  0  0  0  0  0  0  0  0  0  0  0
  -32.8197  -13.0098   -7.4935 C   0  0  2  0  0  0  0  0  0  0  0  0
  -31.5031  -12.5929   -7.7685 O   0  0  0  0  0  0  0  0  0  0  0  0
  -35.0870   -8.3197  -13.6211 C   0  0  0  0  0  0  0  0  0  0  0  0
  -35.3129   -7.5765   -9.2078 C   0  0  2  0  0  0  0  0  0  0  0  0
  -36.2698   -6.9076  -10.1157 N   0  0  0  0  0  0  0  0  0  0  0  0
  -33.7178  -12.9846   -8.7996 C   0  0  1  0  0  0  0  0  0  0  0  0
  -33.1482  -13.9165   -9.8377 N   0  0  0  0  0  0  0  0  0  0  0  0
  -35.5426   -9.7577  -13.1341 C   0  0  0  0  0  0  0  0  0  0  0  0
  -34.4788   -8.6577  -10.0105 C   0  0  2  0  0  0  0  0  0  0  0  0
  -35.2228  -13.4729   -8.4204 C   0  0  1  0  0  0  0  0  0  0  0  0
  -35.2684  -14.7910   -7.9126 O   0  0  0  0  0  0  0  0  0  0  0  0
  -34.7205  -10.5374  -12.3960 C   0  0  2  0  0  0  0  0  0  0  0  0
  -33.4049  -10.1224  -12.0142 O   0  0  0  0  0  0  0  0  0  0  0  0
  -33.4550   -9.3644   -9.0306 C   0  0  2  0  0  0  0  0  0  0  0  0
  -32.7089  -10.3508   -9.7628 O   0  0  0  0  0  0  0  0  0  0  0  0
  -35.8030  -12.5045   -7.3365 C   0  0  0  0  0  0  0  0  0  0  0  0
  -34.8607  -12.4290   -6.1366 O   0  0  0  0  0  0  0  0  0  0  0  0
  -35.1244  -11.9290  -11.9110 C   0  0  0  0  0  0  0  0  0  0  0  0
  -33.9602  -12.7688  -11.9526 O   0  0  0  0  0  0  0  0  0  0  0  0
  -34.2453  -10.0874   -7.8688 C   0  0  1  0  0  0  0  0  0  0  0  0
  -33.2967  -10.6947   -7.0087 O   0  0  0  0  0  0  0  0  0  0  0  0
  -36.2147  -13.4804   -9.6032 C   0  0  0  0  0  0  0  0  0  0  0  0
  -32.6026  -15.1967   -9.3425 C   0  0  0  0  0  0  0  0  0  0  0  0
  1  2  1  1  0  0  0
  1  6  1  0  0  0  0
  1 21  1  0  0  0  0
  3  4  1  1  0  0  0
  3  8  1  0  0  0  0
  3 28  1  0  0  0  0
  5  9  1  0  0  0  0
  5 25  1  0  0  0  0
  5 29  1  6  0  0  0
  6  7  1  1  0  0  0
  6 11  1  0  0  0  0
  8 12  1  0  0  0  0
  9 10  1  6  0  0  0
  9 14  1  0  0  0  0
 11 16  1  0  0  0  0
 12 13  1  6  0  0  0
 12 17  1  0  0  0  0
 14 15  1  6  0  0  0
 14 18  1  0  0  0  0
 15 31  1  0  0  0  0
 16 20  1  0  0  0  0
 17  2  1  6  0  0  0
 17 22  1  0  0  0  0
 18 19  1  1  0  0  0
 18 24  1  0  0  0  0
 18 30  1  0  0  0  0
 20 21  1  0  0  0  0
 20 26  1  6  0  0  0
 22 23  1  6  0  0  0
 22 28  1  0  0  0  0
 24 25  1  0  0  0  0
 26 27  1  0  0  0  0
 28 29  1  1  0  0  0
M  END
>  <CHROM.1>
129.59089631,87.10239089,39.18420399,-171.18166476,143.91373058,104.08046902
-34.26285343,-10.75452567,-9.61119332,-1.74344085,-1.33052056,2.23716160

>  <Name>
ligand

>  <RI>
0

>  <Rbt.Current_Directory>
/home/itssahil/PROJECTS/Mol_Feturizer/New_Systems/rnas/4GPW

>  <Rbt.Executable>
rbdock ($Id: //depot/dev/client3/rdock/2013.1/src/exe/rbdock.cxx#4 $)

>  <Rbt.Library>
libRbt.so (2013.1, Build901 2013/11/27)

>  <Rbt.Parameter_File>
/export/apps/rDock/src/rDock_2013.1_src/data/scripts/dock_solv.prm

>  <Rbt.Receptor>
prm/blind_docking_80.prm

>  <SCORE>
36.028

>  <SCORE.INTER>
7.97766

>  <SCORE.INTER.CONST>
1

>  <SCORE.INTER.POLAR>
0

>  <SCORE.INTER.ROT>
6

>  <SCORE.INTER.SOLV>
10.2946

>  <SCORE.INTER.VDW>
-5.71309

>  <SCORE.INTER.norm>
0.257344

>  <SCORE.INTRA>
6.20803

>  <SCORE.INTRA.DIHEDRAL>
-0.393113

>  <SCORE.INTRA.DIHEDRAL.0>
19.2558

>  <SCORE.INTRA.POLAR>
0

>  <SCORE.INTRA.POLAR.0>
0

>  <SCORE.INTRA.REPUL>
0.0226402

>  <SCORE.INTRA.REPUL.0>
0

>  <SCORE.INTRA.SOLV>
2.52402

>  <SCORE.INTRA.SOLV.lig_0>
-64.5929

>  <SCORE.INTRA.VDW>
5.02938

>  <SCORE.INTRA.VDW.0>
-4.40538

>  <SCORE.INTRA.norm>
0.200259

>  <SCORE.RESTR>
21.8423

>  <SCORE.RESTR.CAVITY>
21.8423

>  <SCORE.RESTR.norm>
0.704592

>  <SCORE.SYSTEM>
0

>  <SCORE.SYSTEM.CONST>
0

>  <SCORE.SYSTEM.DIHEDRAL>
0

>  <SCORE.SYSTEM.SOLV>
0

>  <SCORE.SYSTEM.norm>
0

>  <SCORE.heavy>
31

>  <SCORE.norm>
1.16219

>  <RMSD>
15.239

$$$$
ligand
 OpenBabel11021811493D
libRbt.so/2013.1/901 2013/11/27
 31 33  0  0  0  0  0  0  0  0999 V2000
  -34.1320   -9.5037  -13.0919 C   0  0  2  0  0  0  0  0  0  0  0  0
  -33.9914   -8.7017  -11.9285 O   0  0  0  0  0  0  0  0  0  0  0  0
  -33.5017   -9.4752   -7.7647 C   0  0  2  0  0  0  0  0  0  0  0  0
  -33.7883   -9.9369   -6.4449 N   0  0  0  0  0  0  0  0  0  0  0  0
  -32.5273  -12.6038   -7.3105 C   0  0  2  0  0  0  0  0  0  0  0  0
  -35.0767   -8.7119  -14.0884 C   0  0  2  0  0  0  0  0  0  0  0  0
  -34.4693   -7.4098  -14.4003 N   0  0  0  0  0  0  0  0  0  0  0  0
  -34.6507   -8.4672   -8.2048 C   0  0  0  0  0  0  0  0  0  0  0  0
  -32.2966  -13.9734   -8.0312 C   0  0  2  0  0  0  0  0  0  0  0  0
  -31.0563  -13.9134   -8.6951 O   0  0  0  0  0  0  0  0  0  0  0  0
  -36.5048   -8.5273  -13.4380 C   0  0  0  0  0  0  0  0  0  0  0  0
  -34.3283   -7.9451   -9.6771 C   0  0  2  0  0  0  0  0  0  0  0  0
  -35.3833   -7.0008  -10.1044 N   0  0  0  0  0  0  0  0  0  0  0  0
  -33.4836  -14.2372   -9.0483 C   0  0  1  0  0  0  0  0  0  0  0  0
  -33.2770  -15.5516   -9.7555 N   0  0  0  0  0  0  0  0  0  0  0  0
  -36.9826   -9.8173  -12.6505 C   0  0  0  0  0  0  0  0  0  0  0  0
  -34.2854   -9.1832  -10.6643 C   0  0  2  0  0  0  0  0  0  0  0  0
  -34.8865  -14.2945   -8.2262 C   0  0  1  0  0  0  0  0  0  0  0  0
  -34.9266  -15.3308   -7.2662 O   0  0  0  0  0  0  0  0  0  0  0  0
  -36.1241  -10.8257  -12.3769 C   0  0  2  0  0  0  0  0  0  0  0  0
  -34.7500  -10.7954  -12.7764 O   0  0  0  0  0  0  0  0  0  0  0  0
  -33.1503  -10.1853  -10.2005 C   0  0  2  0  0  0  0  0  0  0  0  0
  -33.1237  -11.3107  -11.0941 O   0  0  0  0  0  0  0  0  0  0  0  0
  -35.0886  -12.9288   -7.4891 C   0  0  0  0  0  0  0  0  0  0  0  0
  -33.8760  -12.6159   -6.6144 O   0  0  0  0  0  0  0  0  0  0  0  0
  -36.5492  -12.0846  -11.6223 C   0  0  0  0  0  0  0  0  0  0  0  0
  -36.0488  -11.9878  -10.2798 O   0  0  0  0  0  0  0  0  0  0  0  0
  -33.4650  -10.7050   -8.7418 C   0  0  1  0  0  0  0  0  0  0  0  0
  -32.4231  -11.5861   -8.3588 O   0  0  0  0  0  0  0  0  0  0  0  0
  -36.1365  -14.5299   -9.1009 C   0  0  0  0  0  0  0  0  0  0  0  0
  -32.8128  -16.6797   -8.9226 C   0  0  0  0  0  0  0  0  0  0  0  0
  1  2  1  1  0  0  0
  1  6  1  0  0  0  0
  1 21  1  0  0  0  0
  3  4  1  1  0  0  0
  3  8  1  0  0  0  0
  3 28  1  0  0  0  0
  5  9  1  0  0  0  0
  5 25  1  0  0  0  0
  5 29  1  6  0  0  0
  6  7  1  1  0  0  0
  6 11  1  0  0  0  0
  8 12  1  0  0  0  0
  9 10  1  6  0  0  0
  9 14  1  0  0  0  0
 11 16  1  0  0  0  0
 12 13  1  6  0  0  0
 12 17  1  0  0  0  0
 14 15  1  1  0  0  0
 14 18  1  0  0  0  0
 15 31  1  0  0  0  0
 16 20  1  0  0  0  0
 17  2  1  6  0  0  0
 17 22  1  0  0  0  0
 18 19  1  1  0  0  0
 18 24  1  0  0  0  0
 18 30  1  0  0  0  0
 20 21  1  0  0  0  0
 20 26  1  6  0  0  0
 22 23  1  6  0  0  0
 22 28  1  0  0  0  0
 24 25  1  0  0  0  0
 26 27  1  0  0  0  0
 28 29  1  1  0  0  0
M  END
>  <CHROM.1>
125.11601466,118.31698607,42.22890550,-167.48464634,-103.98560445,82.90786169
-34.28405837,-11.36501563,-9.93579542,2.19925582,-1.17585018,-0.07726447

>  <Name>
ligand

>  <RI>
0

>  <Rbt.Current_Directory>
/home/itssahil/PROJECTS/Mol_Feturizer/New_Systems/rnas/4GPW

>  <Rbt.Executable>
rbdock ($Id: //depot/dev/client3/rdock/2013.1/src/exe/rbdock.cxx#4 $)

>  <Rbt.Library>
libRbt.so (2013.1, Build901 2013/11/27)

>  <Rbt.Parameter_File>
/export/apps/rDock/src/rDock_2013.1_src/data/scripts/dock_solv.prm

>  <Rbt.Receptor>
prm/blind_docking_80.prm

>  <SCORE>
30.2958

>  <SCORE.INTER>
4.42017

>  <SCORE.INTER.CONST>
1

>  <SCORE.INTER.POLAR>
0

>  <SCORE.INTER.ROT>
6

>  <SCORE.INTER.SOLV>
12.1611

>  <SCORE.INTER.VDW>
-8.70693

>  <SCORE.INTER.norm>
0.142586

>  <SCORE.INTRA>
4.74692

>  <SCORE.INTRA.DIHEDRAL>
0.283003

>  <SCORE.INTRA.DIHEDRAL.0>
19.2558

>  <SCORE.INTRA.POLAR>
0

>  <SCORE.INTRA.POLAR.0>
0

>  <SCORE.INTRA.REPUL>
0

>  <SCORE.INTRA.REPUL.0>
0

>  <SCORE.INTRA.SOLV>
1.78064

>  <SCORE.INTRA.SOLV.lig_0>
-64.5929

>  <SCORE.INTRA.VDW>
3.7151

>  <SCORE.INTRA.VDW.0>
-4.40538

>  <SCORE.INTRA.norm>
0.153126

>  <SCORE.RESTR>
21.1287

>  <SCORE.RESTR.CAVITY>
21.1287

>  <SCORE.RESTR.norm>
0.681571

>  <SCORE.SYSTEM>
0

>  <SCORE.SYSTEM.CONST>
0

>  <SCORE.SYSTEM.DIHEDRAL>
0

>  <SCORE.SYSTEM.SOLV>
0

>  <SCORE.SYSTEM.norm>
0

>  <SCORE.heavy>
31

>  <SCORE.norm>
0.977283

>  <RMSD>
15.252

$$$$
ligand
 OpenBabel11021811493D
libRbt.so/2013.1/901 2013/11/27
 31 33  0  0  0  0  0  0  0  0999 V2000
  -33.3393   -9.9484  -11.6715 C   0  0  2  0  0  0  0  0  0  0  0  0
  -33.5346   -8.9222  -10.7096 O   0  0  0  0  0  0  0  0  0  0  0  0
  -34.3123   -8.8910   -6.5180 C   0  0  2  0  0  0  0  0  0  0  0  0
  -34.9971   -9.0852   -5.2808 N   0  0  0  0  0  0  0  0  0  0  0  0
  -33.6168  -12.4396   -5.9127 C   0  0  2  0  0  0  0  0  0  0  0  0
  -33.7991   -9.3641  -13.0713 C   0  0  2  0  0  0  0  0  0  0  0  0
  -32.9992   -8.1709  -13.3847 N   0  0  0  0  0  0  0  0  0  0  0  0
  -35.2099   -7.9648   -7.4489 C   0  0  0  0  0  0  0  0  0  0  0  0
  -32.4295  -13.3587   -6.3528 C   0  0  2  0  0  0  0  0  0  0  0  0
  -31.2415  -12.8209   -5.8215 O   0  0  0  0  0  0  0  0  0  0  0  0
  -35.3394   -9.0148  -13.0249 C   0  0  0  0  0  0  0  0  0  0  0  0
  -34.4429   -7.7412   -8.8294 C   0  0  2  0  0  0  0  0  0  0  0  0
  -35.2590   -6.8768   -9.7092 N   0  0  0  0  0  0  0  0  0  0  0  0
  -32.3759  -13.4244   -7.9358 C   0  0  1  0  0  0  0  0  0  0  0  0
  -31.2352  -14.3034   -8.3793 N   0  0  0  0  0  0  0  0  0  0  0  0
  -36.1821  -10.0986  -12.2326 C   0  0  0  0  0  0  0  0  0  0  0  0
  -34.2121   -9.1464   -9.5233 C   0  0  2  0  0  0  0  0  0  0  0  0
  -33.7716  -14.0506   -8.4902 C   0  0  1  0  0  0  0  0  0  0  0  0
  -34.0133  -15.3647   -8.0298 O   0  0  0  0  0  0  0  0  0  0  0  0
  -35.5729  -11.0453  -11.4833 C   0  0  2  0  0  0  0  0  0  0  0  0
  -34.1493  -11.1304  -11.3606 O   0  0  0  0  0  0  0  0  0  0  0  0
  -33.3341  -10.0620   -8.5753 C   0  0  2  0  0  0  0  0  0  0  0  0
  -33.1371  -11.3383   -9.2062 O   0  0  0  0  0  0  0  0  0  0  0  0
  -34.9506  -13.1361   -8.0184 C   0  0  0  0  0  0  0  0  0  0  0  0
  -34.9131  -12.9664   -6.5007 O   0  0  0  0  0  0  0  0  0  0  0  0
  -36.3521  -12.1068  -10.7082 C   0  0  0  0  0  0  0  0  0  0  0  0
  -36.7218  -11.5473   -9.4384 O   0  0  0  0  0  0  0  0  0  0  0  0
  -34.0896  -10.2860   -7.2056 C   0  0  1  0  0  0  0  0  0  0  0  0
  -33.2686  -11.0966   -6.3826 O   0  0  0  0  0  0  0  0  0  0  0  0
  -33.8640  -14.1570  -10.0275 C   0  0  0  0  0  0  0  0  0  0  0  0
  -31.3055  -15.7231   -7.9779 C   0  0  0  0  0  0  0  0  0  0  0  0
  1  2  1  1  0  0  0
  1  6  1  0  0  0  0
  1 21  1  0  0  0  0
  3  4  1  1  0  0  0
  3  8  1  0  0  0  0
  3 28  1  0  0  0  0
  5  9  1  0  0  0  0
  5 25  1  0  0  0  0
  5 29  1  6  0  0  0
  6  7  1  1  0  0  0
  6 11  1  0  0  0  0
  8 12  1  0  0  0  0
  9 10  1  6  0  0  0
  9 14  1  0  0  0  0
 11 16  1  0  0  0  0
 12 13  1  6  0  0  0
 12 17  1  0  0  0  0
 14 15  1  1  0  0  0
 14 18  1  0  0  0  0
 15 31  1  0  0  0  0
 16 20  1  0  0  0  0
 17  2  1  6  0  0  0
 17 22  1  0  0  0  0
 18 19  1  1  0  0  0
 18 24  1  0  0  0  0
 18 30  1  0  0  0  0
 20 21  1  0  0  0  0
 20 26  1  6  0  0  0
 22 23  1  6  0  0  0
 22 28  1  0  0  0  0
 24 25  1  0  0  0  0
 26 27  1  0  0  0  0
 28 29  1  1  0  0  0
M  END
>  <CHROM.1>
129.86664185,125.51587781,62.69408593,-170.66278055,-85.34886665,125.43555976
-33.99474486,-11.19499494,-8.99303150,-2.81389733,-1.27484092,1.18930925

>  <Name>
ligand

>  <RI>
0

>  <Rbt.Current_Directory>
/home/itssahil/PROJECTS/Mol_Feturizer/New_Systems/rnas/4GPW

>  <Rbt.Executable>
rbdock ($Id: //depot/dev/client3/rdock/2013.1/src/exe/rbdock.cxx#4 $)

>  <Rbt.Library>
libRbt.so (2013.1, Build901 2013/11/27)

>  <Rbt.Parameter_File>
/export/apps/rDock/src/rDock_2013.1_src/data/scripts/dock_solv.prm

>  <Rbt.Receptor>
prm/blind_docking_80.prm

>  <SCORE>
36.7475

>  <SCORE.INTER>
7.99007

>  <SCORE.INTER.CONST>
1

>  <SCORE.INTER.POLAR>
0

>  <SCORE.INTER.ROT>
6

>  <SCORE.INTER.SOLV>
12.5325

>  <SCORE.INTER.VDW>
-6.4508

>  <SCORE.INTER.norm>
0.257744

>  <SCORE.INTRA>
8.31343

>  <SCORE.INTRA.DIHEDRAL>
4.86923

>  <SCORE.INTRA.DIHEDRAL.0>
19.2558

>  <SCORE.INTRA.POLAR>
0

>  <SCORE.INTRA.POLAR.0>
0

>  <SCORE.INTRA.REPUL>
0

>  <SCORE.INTRA.REPUL.0>
0

>  <SCORE.INTRA.SOLV>
0.120762

>  <SCORE.INTRA.SOLV.lig_0>
-64.5929

>  <SCORE.INTRA.VDW>
5.81844

>  <SCORE.INTRA.VDW.0>
-4.40538

>  <SCORE.INTRA.norm>
0.268175

>  <SCORE.RESTR>
20.444

>  <SCORE.RESTR.CAVITY>
20.444

>  <SCORE.RESTR.norm>
0.659484

>  <SCORE.SYSTEM>
0

>  <SCORE.SYSTEM.CONST>
0

>  <SCORE.SYSTEM.DIHEDRAL>
0

>  <SCORE.SYSTEM.SOLV>
0

>  <SCORE.SYSTEM.norm>
0

>  <SCORE.heavy>
31

>  <SCORE.norm>
1.1854

>  <RMSD>
15.258

$$$$
ligand
 OpenBabel11021811493D
libRbt.so/2013.1/901 2013/11/27
 31 33  0  0  0  0  0  0  0  0999 V2000
  -34.1214   -9.5251  -13.0893 C   0  0  2  0  0  0  0  0  0  0  0  0
  -33.9658   -8.7220  -11.9285 O   0  0  0  0  0  0  0  0  0  0  0  0
  -33.4951   -9.4880   -7.7612 C   0  0  2  0  0  0  0  0  0  0  0  0
  -33.7915   -9.9394   -6.4399 N   0  0  0  0  0  0  0  0  0  0  0  0
  -32.5764  -12.6304   -7.2924 C   0  0  2  0  0  0  0  0  0  0  0  0
  -35.0519   -8.7194  -14.0880 C   0  0  2  0  0  0  0  0  0  0  0  0
  -34.4210   -7.4296  -14.4044 N   0  0  0  0  0  0  0  0  0  0  0  0
  -34.6254   -8.4614   -8.2066 C   0  0  0  0  0  0  0  0  0  0  0  0
  -32.3457  -14.0059   -8.0017 C   0  0  2  0  0  0  0  0  0  0  0  0
  -31.0973  -13.9577   -8.6511 O   0  0  0  0  0  0  0  0  0  0  0  0
  -36.4762   -8.5067  -13.4378 C   0  0  0  0  0  0  0  0  0  0  0  0
  -34.2919   -7.9508   -9.6805 C   0  0  2  0  0  0  0  0  0  0  0  0
  -35.3294   -6.9895  -10.1127 N   0  0  0  0  0  0  0  0  0  0  0  0
  -33.5221  -14.2689   -9.0313 C   0  0  1  0  0  0  0  0  0  0  0  0
  -33.3153  -15.5890   -9.7277 N   0  0  0  0  0  0  0  0  0  0  0  0
  -36.9770   -9.7852  -12.6459 C   0  0  0  0  0  0  0  0  0  0  0  0
  -34.2699   -9.1933  -10.6628 C   0  0  2  0  0  0  0  0  0  0  0  0
  -34.9350  -14.3123   -8.2256 C   0  0  1  0  0  0  0  0  0  0  0  0
  -34.9930  -15.3423   -7.2597 O   0  0  0  0  0  0  0  0  0  0  0  0
  -36.1370  -10.8082  -12.3693 C   0  0  2  0  0  0  0  0  0  0  0  0
  -34.7626  -10.8042  -12.7694 O   0  0  0  0  0  0  0  0  0  0  0  0
  -33.1533  -10.2136  -10.1937 C   0  0  2  0  0  0  0  0  0  0  0  0
  -33.1457  -11.3427  -11.0830 O   0  0  0  0  0  0  0  0  0  0  0  0
  -35.1374  -12.9409   -7.4995 C   0  0  0  0  0  0  0  0  0  0  0  0
  -33.9333  -12.6299   -6.6124 O   0  0  0  0  0  0  0  0  0  0  0  0
  -36.5846  -12.0567  -11.6106 C   0  0  0  0  0  0  0  0  0  0  0  0
  -36.0796  -11.9661  -10.2693 O   0  0  0  0  0  0  0  0  0  0  0  0
  -33.4790  -10.7220   -8.7334 C   0  0  1  0  0  0  0  0  0  0  0  0
  -32.4534  -11.6200   -8.3458 O   0  0  0  0  0  0  0  0  0  0  0  0
  -36.1759  -14.5457   -9.1137 C   0  0  0  0  0  0  0  0  0  0  0  0
  -32.8722  -16.7156   -8.8814 C   0  0  0  0  0  0  0  0  0  0  0  0
  1  2  1  1  0  0  0
  1  6  1  0  0  0  0
  1 21  1  0  0  0  0
  3  4  1  1  0  0  0
  3  8  1  0  0  0  0
  3 28  1  0  0  0  0
  5  9  1  0  0  0  0
  5 25  1  0  0  0  0
  5 29  1  6  0  0  0
  6  7  1  1  0  0  0
  6 11  1  0  0  0  0
  8 12  1  0  0  0  0
  9 10  1  6  0  0  0
  9 14  1  0  0  0  0
 11 16  1  0  0  0  0
 12 13  1  6  0  0  0
 12 17  1  0  0  0  0
 14 15  1  1  0  0  0
 14 18  1  0  0  0  0
 15 31  1  0  0  0  0
 16 20  1  0  0  0  0
 17  2  1  6  0  0  0
 17 22  1  0  0  0  0
 18 19  1  1  0  0  0
 18 24  1  0  0  0  0
 18 30  1  0  0  0  0
 20 21  1  0  0  0  0
 20 26  1  6  0  0  0
 22 23  1  6  0  0  0
 22 28  1  0  0  0  0
 24 25  1  0  0  0  0
 26 27  1  0  0  0  0
 28 29  1  1  0  0  0
M  END
>  <CHROM.1>
125.02243090,119.28094629,42.41997081,-167.37578780,-104.11326050,82.81762306
-34.29832415,-11.37687002,-9.92786642,2.16371190,-1.17380223,-0.11035743

>  <Name>
ligand

>  <RI>
0

>  <Rbt.Current_Directory>
/home/itssahil/PROJECTS/Mol_Feturizer/New_Systems/rnas/4GPW

>  <Rbt.Executable>
rbdock ($Id: //depot/dev/client3/rdock/2013.1/src/exe/rbdock.cxx#4 $)

>  <Rbt.Library>
libRbt.so (2013.1, Build901 2013/11/27)

>  <Rbt.Parameter_File>
/export/apps/rDock/src/rDock_2013.1_src/data/scripts/dock_solv.prm

>  <Rbt.Receptor>
prm/blind_docking_80.prm

>  <SCORE>
29.4701

>  <SCORE.INTER>
3.52688

>  <SCORE.INTER.CONST>
1

>  <SCORE.INTER.POLAR>
0

>  <SCORE.INTER.ROT>
6

>  <SCORE.INTER.SOLV>
12.0098

>  <SCORE.INTER.VDW>
-9.25203

>  <SCORE.INTER.norm>
0.11377

>  <SCORE.INTRA>
4.56277

>  <SCORE.INTRA.DIHEDRAL>
0.286239

>  <SCORE.INTRA.DIHEDRAL.0>
19.2558

>  <SCORE.INTRA.POLAR>
0

>  <SCORE.INTRA.POLAR.0>
0

>  <SCORE.INTRA.REPUL>
0

>  <SCORE.INTRA.REPUL.0>
0

>  <SCORE.INTRA.SOLV>
1.7487

>  <SCORE.INTRA.SOLV.lig_0>
-64.5929

>  <SCORE.INTRA.VDW>
3.5453

>  <SCORE.INTRA.VDW.0>
-4.40538

>  <SCORE.INTRA.norm>
0.147186

>  <SCORE.RESTR>
21.3804

>  <SCORE.RESTR.CAVITY>
21.3804

>  <SCORE.RESTR.norm>
0.689691

>  <SCORE.SYSTEM>
0

>  <SCORE.SYSTEM.CONST>
0

>  <SCORE.SYSTEM.DIHEDRAL>
0

>  <SCORE.SYSTEM.SOLV>
0

>  <SCORE.SYSTEM.norm>
0

>  <SCORE.heavy>
31

>  <SCORE.norm>
0.950647

>  <RMSD>
15.264

$$$$
ligand
 OpenBabel11021811493D
libRbt.so/2013.1/901 2013/11/27
 31 33  0  0  0  0  0  0  0  0999 V2000
  -35.6091   -9.3510  -12.5104 C   0  0  2  0  0  0  0  0  0  0  0  0
  -35.2091  -10.6968  -12.7236 O   0  0  0  0  0  0  0  0  0  0  0  0
  -37.6313  -12.7140   -9.8534 C   0  0  2  0  0  0  0  0  0  0  0  0
  -38.2658  -13.7805   -9.1483 N   0  0  0  0  0  0  0  0  0  0  0  0
  -35.3469  -13.9098   -7.5091 C   0  0  2  0  0  0  0  0  0  0  0  0
  -34.5923   -8.4340  -13.3089 C   0  0  2  0  0  0  0  0  0  0  0  0
  -34.6351   -8.7905  -14.7347 N   0  0  0  0  0  0  0  0  0  0  0  0
  -38.0646  -12.7946  -11.3817 C   0  0  0  0  0  0  0  0  0  0  0  0
  -34.1730  -13.4095   -6.6037 C   0  0  2  0  0  0  0  0  0  0  0  0
  -34.6050  -12.2507   -5.9303 O   0  0  0  0  0  0  0  0  0  0  0  0
  -33.1356   -8.6167  -12.7249 C   0  0  0  0  0  0  0  0  0  0  0  0
  -37.3617  -11.5991  -12.1699 C   0  0  2  0  0  0  0  0  0  0  0  0
  -37.7560  -11.6524  -13.5943 N   0  0  0  0  0  0  0  0  0  0  0  0
  -32.9040  -13.1132   -7.5064 C   0  0  1  0  0  0  0  0  0  0  0  0
  -31.7627  -12.6263   -6.6515 N   0  0  0  0  0  0  0  0  0  0  0  0
  -33.1268   -8.7268  -11.1437 C   0  0  0  0  0  0  0  0  0  0  0  0
  -35.7902  -11.7527  -12.0427 C   0  0  2  0  0  0  0  0  0  0  0  0
  -32.4535  -14.4841   -8.2581 C   0  0  1  0  0  0  0  0  0  0  0  0
  -32.0922  -15.5163   -7.3629 O   0  0  0  0  0  0  0  0  0  0  0  0
  -34.2742   -8.9030  -10.4500 C   0  0  2  0  0  0  0  0  0  0  0  0
  -35.5518   -8.9978  -11.0885 O   0  0  0  0  0  0  0  0  0  0  0  0
  -35.3786  -11.6901  -10.5148 C   0  0  2  0  0  0  0  0  0  0  0  0
  -33.9533  -11.8402  -10.4060 O   0  0  0  0  0  0  0  0  0  0  0  0
  -33.6471  -14.9863   -9.1369 C   0  0  0  0  0  0  0  0  0  0  0  0
  -34.9046  -15.1382   -8.2831 O   0  0  0  0  0  0  0  0  0  0  0  0
  -34.3047   -9.0113   -8.9261 C   0  0  0  0  0  0  0  0  0  0  0  0
  -35.6400   -9.3637   -8.5327 O   0  0  0  0  0  0  0  0  0  0  0  0
  -36.0732  -12.8723   -9.7294 C   0  0  1  0  0  0  0  0  0  0  0  0
  -35.6917  -12.7744   -8.3679 O   0  0  0  0  0  0  0  0  0  0  0  0
  -31.2317  -14.3361   -9.1900 C   0  0  0  0  0  0  0  0  0  0  0  0
  -31.9207  -11.2889   -6.0448 C   0  0  0  0  0  0  0  0  0  0  0  0
  1  2  1  1  0  0  0
  1  6  1  0  0  0  0
  1 21  1  0  0  0  0
  3  4  1  1  0  0  0
  3  8  1  0  0  0  0
  3 28  1  0  0  0  0
  5  9  1  0  0  0  0
  5 25  1  0  0  0  0
  5 29  1  6  0  0  0
  6  7  1  6  0  0  0
  6 11  1  0  0  0  0
  8 12  1  0  0  0  0
  9 10  1  6  0  0  0
  9 14  1  0  0  0  0
 11 16  1  0  0  0  0
 12 13  1  6  0  0  0
 12 17  1  0  0  0  0
 14 15  1  1  0  0  0
 14 18  1  0  0  0  0
 15 31  1  0  0  0  0
 16 20  1  0  0  0  0
 17  2  1  6  0  0  0
 17 22  1  0  0  0  0
 18 19  1  1  0  0  0
 18 24  1  0  0  0  0
 18 30  1  0  0  0  0
 20 21  1  0  0  0  0
 20 26  1  1  0  0  0
 22 23  1  6  0  0  0
 22 28  1  0  0  0  0
 24 25  1  0  0  0  0
 26 27  1  0  0  0  0
 28 29  1  1  0  0  0
M  END
>  <CHROM.1>
172.37850375,142.49230831,-68.87845542,49.91478952,-172.66762070,102.37485734
-34.72323268,-11.79474536,-9.82589146,-1.93978480,0.55191348,2.44151438

>  <Name>
ligand

>  <RI>
0

>  <Rbt.Current_Directory>
/home/itssahil/PROJECTS/Mol_Feturizer/New_Systems/rnas/4GPW

>  <Rbt.Executable>
rbdock ($Id: //depot/dev/client3/rdock/2013.1/src/exe/rbdock.cxx#4 $)

>  <Rbt.Library>
libRbt.so (2013.1, Build901 2013/11/27)

>  <Rbt.Parameter_File>
/export/apps/rDock/src/rDock_2013.1_src/data/scripts/dock_solv.prm

>  <Rbt.Receptor>
prm/blind_docking_80.prm

>  <SCORE>
33.0476

>  <SCORE.INTER>
9.72681

>  <SCORE.INTER.CONST>
1

>  <SCORE.INTER.POLAR>
0

>  <SCORE.INTER.ROT>
6

>  <SCORE.INTER.SOLV>
12.3111

>  <SCORE.INTER.VDW>
-5.21917

>  <SCORE.INTER.norm>
0.313768

>  <SCORE.INTRA>
-1.04498

>  <SCORE.INTRA.DIHEDRAL>
-4.13471

>  <SCORE.INTRA.DIHEDRAL.0>
19.2558

>  <SCORE.INTRA.POLAR>
0

>  <SCORE.INTRA.POLAR.0>
0

>  <SCORE.INTRA.REPUL>
0

>  <SCORE.INTRA.REPUL.0>
0

>  <SCORE.INTRA.SOLV>
-0.729244

>  <SCORE.INTRA.SOLV.lig_0>
-64.5929

>  <SCORE.INTRA.VDW>
1.387

>  <SCORE.INTRA.VDW.0>
-4.40538

>  <SCORE.INTRA.norm>
-0.0337089

>  <SCORE.RESTR>
24.3658

>  <SCORE.RESTR.CAVITY>
24.3658

>  <SCORE.RESTR.norm>
0.785994

>  <SCORE.SYSTEM>
0

>  <SCORE.SYSTEM.CONST>
0

>  <SCORE.SYSTEM.DIHEDRAL>
0

>  <SCORE.SYSTEM.SOLV>
0

>  <SCORE.SYSTEM.norm>
0

>  <SCORE.heavy>
31

>  <SCORE.norm>
1.06605

>  <RMSD>
15.285

$$$$
ligand
 OpenBabel11021811493D
libRbt.so/2013.1/901 2013/11/27
 31 33  0  0  0  0  0  0  0  0999 V2000
  -33.7993  -10.6116  -12.0788 C   0  0  2  0  0  0  0  0  0  0  0  0
  -33.3242   -9.6115  -11.1896 O   0  0  0  0  0  0  0  0  0  0  0  0
  -33.4182   -8.7204   -7.0217 C   0  0  2  0  0  0  0  0  0  0  0  0
  -33.9330   -8.5205   -5.7055 N   0  0  0  0  0  0  0  0  0  0  0  0
  -33.5914  -12.1821   -5.8299 C   0  0  2  0  0  0  0  0  0  0  0  0
  -34.4776   -9.8614  -13.2992 C   0  0  2  0  0  0  0  0  0  0  0  0
  -33.4841   -8.9917  -13.9460 N   0  0  0  0  0  0  0  0  0  0  0  0
  -34.1734   -7.7309   -8.0120 C   0  0  0  0  0  0  0  0  0  0  0  0
  -32.7914  -13.4644   -6.2349 C   0  0  2  0  0  0  0  0  0  0  0  0
  -31.4291  -13.2318   -5.9651 O   0  0  0  0  0  0  0  0  0  0  0  0
  -35.7157   -9.0224  -12.7896 C   0  0  0  0  0  0  0  0  0  0  0  0
  -33.5944   -7.9483   -9.4823 C   0  0  2  0  0  0  0  0  0  0  0  0
  -34.2803   -7.0326  -10.4195 N   0  0  0  0  0  0  0  0  0  0  0  0
  -33.0317  -13.7686   -7.7721 C   0  0  1  0  0  0  0  0  0  0  0  0
  -32.2655  -14.9996   -8.1822 N   0  0  0  0  0  0  0  0  0  0  0  0
  -36.5544   -9.7908  -11.6857 C   0  0  0  0  0  0  0  0  0  0  0  0
  -33.8476   -9.4499   -9.9182 C   0  0  2  0  0  0  0  0  0  0  0  0
  -34.6186  -14.0264   -8.0221 C   0  0  1  0  0  0  0  0  0  0  0  0
  -35.1235  -15.1302   -7.2983 O   0  0  0  0  0  0  0  0  0  0  0  0
  -36.0746  -10.9105  -11.0985 C   0  0  2  0  0  0  0  0  0  0  0  0
  -34.7989  -11.4674  -11.4320 O   0  0  0  0  0  0  0  0  0  0  0  0
  -33.1056  -10.4211   -8.9112 C   0  0  2  0  0  0  0  0  0  0  0  0
  -33.3478  -11.7816   -9.3065 O   0  0  0  0  0  0  0  0  0  0  0  0
  -35.4065  -12.7464   -7.5863 C   0  0  0  0  0  0  0  0  0  0  0  0
  -35.0631  -12.3803   -6.1436 O   0  0  0  0  0  0  0  0  0  0  0  0
  -36.8554  -11.6785  -10.0328 C   0  0  0  0  0  0  0  0  0  0  0  0
  -37.2504  -12.9397  -10.5946 O   0  0  0  0  0  0  0  0  0  0  0  0
  -33.6754  -10.2091   -7.4526 C   0  0  1  0  0  0  0  0  0  0  0  0
  -32.9794  -11.0838   -6.5814 O   0  0  0  0  0  0  0  0  0  0  0  0
  -35.0002  -14.3194   -9.4890 C   0  0  0  0  0  0  0  0  0  0  0  0
  -31.1770  -14.8001   -9.1605 C   0  0  0  0  0  0  0  0  0  0  0  0
  1  2  1  1  0  0  0
  1  6  1  0  0  0  0
  1 21  1  0  0  0  0
  3  4  1  1  0  0  0
  3  8  1  0  0  0  0
  3 28  1  0  0  0  0
  5  9  1  0  0  0  0
  5 25  1  0  0  0  0
  5 29  1  6  0  0  0
  6  7  1  1  0  0  0
  6 11  1  0  0  0  0
  8 12  1  0  0  0  0
  9 10  1  6  0  0  0
  9 14  1  0  0  0  0
 11 16  1  0  0  0  0
 12 13  1  6  0  0  0
 12 17  1  0  0  0  0
 14 15  1  1  0  0  0
 14 18  1  0  0  0  0
 15 31  1  0  0  0  0
 16 20  1  0  0  0  0
 17  2  1  6  0  0  0
 17 22  1  0  0  0  0
 18 19  1  1  0  0  0
 18 24  1  0  0  0  0
 18 30  1  0  0  0  0
 20 21  1  0  0  0  0
 20 26  1  6  0  0  0
 22 23  1  6  0  0  0
 22 28  1  0  0  0  0
 24 25  1  0  0  0  0
 26 27  1  0  0  0  0
 28 29  1  1  0  0  0
M  END
>  <CHROM.1>
114.42100818,124.23478410,-114.72516822,-155.10657421,111.47345989,125.26842382
-34.13859995,-11.30381505,-9.10621686,2.21012615,-1.20231856,-0.22709269

>  <Name>
ligand

>  <RI>
0

>  <Rbt.Current_Directory>
/home/itssahil/PROJECTS/Mol_Feturizer/New_Systems/rnas/4GPW

>  <Rbt.Executable>
rbdock ($Id: //depot/dev/client3/rdock/2013.1/src/exe/rbdock.cxx#4 $)

>  <Rbt.Library>
libRbt.so (2013.1, Build901 2013/11/27)

>  <Rbt.Parameter_File>
/export/apps/rDock/src/rDock_2013.1_src/data/scripts/dock_solv.prm

>  <Rbt.Receptor>
prm/blind_docking_80.prm

>  <SCORE>
35.2609

>  <SCORE.INTER>
6.73288

>  <SCORE.INTER.CONST>
1

>  <SCORE.INTER.POLAR>
0

>  <SCORE.INTER.ROT>
6

>  <SCORE.INTER.SOLV>
12.3804

>  <SCORE.INTER.VDW>
-7.2382

>  <SCORE.INTER.norm>
0.21719

>  <SCORE.INTRA>
7.3501

>  <SCORE.INTRA.DIHEDRAL>
7.55576

>  <SCORE.INTRA.DIHEDRAL.0>
19.2558

>  <SCORE.INTRA.POLAR>
0

>  <SCORE.INTRA.POLAR.0>
0

>  <SCORE.INTRA.REPUL>
0

>  <SCORE.INTRA.REPUL.0>
0

>  <SCORE.INTRA.SOLV>
0.95167

>  <SCORE.INTRA.SOLV.lig_0>
-64.5929

>  <SCORE.INTRA.VDW>
3.09639

>  <SCORE.INTRA.VDW.0>
-4.40538

>  <SCORE.INTRA.norm>
0.2371

>  <SCORE.RESTR>
21.1779

>  <SCORE.RESTR.CAVITY>
21.1779

>  <SCORE.RESTR.norm>
0.683157

>  <SCORE.SYSTEM>
0

>  <SCORE.SYSTEM.CONST>
0

>  <SCORE.SYSTEM.DIHEDRAL>
0

>  <SCORE.SYSTEM.SOLV>
0

>  <SCORE.SYSTEM.norm>
0

>  <SCORE.heavy>
31

>  <SCORE.norm>
1.13745

>  <RMSD>
15.295

$$$$
