@<TRIPOS>MOLECULE
4GPW_rdock.pdb
 514 572 0 0 0
SMALL
GASTEIGER

@<TRIPOS>ATOM
      1  P        -23.1560  -14.1810  -32.2430 P.3     2  U2          0.1280
      2  C5'      -25.0700  -14.6760  -30.4430 C.3     2  U2          0.1795
      3  O5'      -23.8700  -13.9560  -30.7930 O.3     2  U2         -0.3259
      4  C4'      -25.2990  -14.6240  -28.9480 C.3     2  U2          0.1772
      5  O4'      -26.4360  -15.4720  -28.6320 O.3     2  U2         -0.3307
      6  C3'      -24.1520  -15.1380  -28.0820 C.3     2  U2          0.1860
      7  O3'      -24.1210  -14.4790  -26.8120 O.3     2  U2         -0.3112
      8  C2'      -24.4630  -16.6300  -27.9640 C.3     2  U2          0.2309
      9  O2'      -23.9570  -17.2450  -26.7960 O.3     2  U2         -0.2156
     10  C1'      -25.9940  -16.6470  -27.9660 C.3     2  U2          0.2420
     11  N1       -26.5530  -17.8230  -28.6590 N.ar    2  U2         -0.2534
     12  C2       -26.9960  -18.8970  -27.8800 C.ar    2  U2          0.3546
     13  O2       -26.9700  -18.8950  -26.6530 O.2     2  U2         -0.2443
     14  N3       -27.4700  -19.9730  -28.5960 N.ar    2  U2         -0.1530
     15  C4       -27.5420  -20.0960  -29.9740 C.ar    2  U2          0.2846
     16  O4       -27.8870  -21.1740  -30.4660 O.2     2  U2         -0.2650
     17  C5       -27.0870  -18.9450  -30.7030 C.ar    2  U2          0.0814
     18  C6       -26.6220  -17.8760  -30.0400 C.ar    2  U2          0.0870
     19  OP1      -23.7930  -15.4540  -32.7900 O.3     2  U2         -0.1955
     20  OP2      -21.6650  -14.3220  -31.9480 O.co2   2  U2         -0.7863
     21  P        -22.7040  -14.1200  -26.1220 P.3     3  G3          0.2141
     22  C5'      -22.5130  -11.4990  -26.2260 C.3     3  G3          0.1812
     23  O5'      -22.9230  -12.6640  -25.5110 O.3     3  G3         -0.3114
     24  C4'      -23.4820  -10.3620  -25.9810 C.3     3  G3          0.1773
     25  O4'      -24.7930  -10.7050  -26.5100 O.3     3  G3         -0.3307
     26  C3'      -23.7490  -10.0000  -24.5290 C.3     3  G3          0.1860
     27  O3'      -22.7520   -9.1190  -24.0250 O.3     3  G3         -0.3112
     28  C2'      -25.0990   -9.2960  -24.6220 C.3     3  G3          0.2309
     29  O2'      -24.9960   -7.9410  -25.0090 O.3     3  G3         -0.2156
     30  C1'      -25.8050  -10.1200  -25.7040 C.3     3  G3          0.2408
     31  N1       -30.0000  -11.2310  -23.0610 N.ar    3  G3         -0.1709
     32  C2       -29.4990  -10.0060  -23.4260 C.ar    3  G3          0.2606
     33  N2       -30.1990   -8.9280  -23.0260 N.pl3   3  G3         -0.0859
     34  N3       -28.3920   -9.8440  -24.1310 N.ar    3  G3         -0.1918
     35  C4       -27.8180  -11.0220  -24.4500 C.ar    3  G3          0.1723
     36  C5       -28.2390  -12.2950  -24.1380 C.ar    3  G3          0.1748
     37  C6       -29.4250  -12.4560  -23.3750 C.ar    3  G3          0.3023
     38  O6       -29.9560  -13.5020  -22.9850 O.2     3  G3         -0.2633
     39  N7       -27.3690  -13.2430  -24.6580 N.ar    3  G3         -0.2173
     40  C8       -26.4460  -12.5410  -25.2590 C.ar    3  G3          0.1817
     41  N9       -26.6520  -11.1860  -25.1660 N.ar    3  G3         -0.2693
     42  OP1      -21.6880  -14.0120  -27.2030 O.2     3  G3         -0.5172
     43  OP2      -22.4770  -15.0520  -24.9850 O.co2   3  G3         -0.4373
     44  P        -22.5580   -8.9620  -22.4360 P.3     4  C4          0.2141
     45  C5'      -24.1720   -6.8980  -22.2780 C.3     4  C4          0.1812
     46  O5'      -23.9040   -8.2570  -21.9500 O.3     4  C4         -0.3114
     47  C4'      -25.4440   -6.4330  -21.6080 C.3     4  C4          0.1773
     48  O4'      -26.5980   -7.1150  -22.1730 O.3     4  C4         -0.3307
     49  C3'      -25.5570   -6.6900  -20.1150 C.3     4  C4          0.1860
     50  O3'      -24.8990   -5.6870  -19.3640 O.3     4  C4         -0.3112
     51  C2'      -27.0610   -6.6330  -19.9050 C.3     4  C4          0.2309
     52  O2'      -27.5770   -5.3230  -19.8600 O.3     4  C4         -0.2156
     53  C1'      -27.5520   -7.3730  -21.1470 C.3     4  C4          0.2420
     54  N1       -27.6030   -8.8280  -20.9120 N.ar    4  C4         -0.2535
     55  C2       -28.6000   -9.3400  -20.0760 C.ar    4  C4          0.3532
     56  O2       -29.4160   -8.5560  -19.5690 O.2     4  C4         -0.2443
     57  N3       -28.6440  -10.6700  -19.8400 N.ar    4  C4         -0.1739
     58  C4       -27.7400  -11.4780  -20.4040 C.ar    4  C4          0.1759
     59  N4       -27.8130  -12.7790  -20.1420 N.pl3   4  C4         -0.1070
     60  C5       -26.7190  -10.9860  -21.2620 C.ar    4  C4          0.0566
     61  C6       -26.6880   -9.6680  -21.4890 C.ar    4  C4          0.0850
     62  OP1      -21.4450   -8.0100  -22.1840 O.2     4  C4         -0.5172
     63  OP2      -22.4880  -10.3360  -21.8760 O.co2   4  C4         -0.4373
     64  P        -24.2300   -6.0670  -17.9550 P.3     5  G5          0.2141
     65  C5'      -26.0750   -4.9680  -16.4460 C.3     5  G5          0.1812
     66  O5'      -25.4630   -6.1510  -16.9420 O.3     5  G5         -0.3114
     67  C4'      -27.2960   -5.3080  -15.6340 C.3     5  G5          0.1773
     68  O4'      -28.2390   -6.0370  -16.4690 O.3     5  G5         -0.3307
     69  C3'      -27.1060   -6.2330  -14.4390 C.3     5  G5          0.1860
     70  O3'      -26.5640   -5.5850  -13.2840 O.3     5  G5         -0.3112
     71  C2'      -28.5360   -6.7110  -14.2110 C.3     5  G5          0.2309
     72  O2'      -29.3580   -5.7820  -13.5300 O.3     5  G5         -0.2156
     73  C1'      -28.9990   -6.9340  -15.6560 C.3     5  G5          0.2408
     74  N1       -30.1100  -11.8510  -15.0140 N.ar    5  G5         -0.1709
     75  C2       -30.7390  -10.7450  -14.5030 C.ar    5  G5          0.2606
     76  N2       -31.7680  -10.9930  -13.6800 N.pl3   5  G5         -0.0859
     77  N3       -30.3850   -9.4940  -14.7770 N.ar    5  G5         -0.1918
     78  C4       -29.3350   -9.4440  -15.6250 C.ar    5  G5          0.1723
     79  C5       -28.6430  -10.4890  -16.2000 C.ar    5  G5          0.1748
     80  C6       -29.0270  -11.8250  -15.8830 C.ar    5  G5          0.3023
     81  O6       -28.5230  -12.8870  -16.2660 O.2     5  G5         -0.2633
     82  N7       -27.6280  -10.0140  -17.0210 N.ar    5  G5         -0.2173
     83  C8       -27.7080   -8.7170  -16.9190 C.ar    5  G5          0.1817
     84  N9       -28.7030   -8.3040  -16.0650 N.ar    5  G5         -0.2693
     85  OP1      -23.3650   -4.9230  -17.5650 O.3     5  G5         -0.4373
     86  OP2      -23.6330   -7.4220  -18.0880 O.co2   5  G5         -0.5172
     87  P        -26.0350   -6.4730  -12.0340 P.3     6  U6          0.2141
     88  C5'      -28.3520   -6.3880  -10.8150 C.3     6  U6          0.1812
     89  O5'      -27.3490   -7.1640  -11.4520 O.3     6  U6         -0.3114
     90  C4'      -29.3740   -7.2860  -10.1760 C.3     6  U6          0.1773
     91  O4'      -30.0150   -8.1210  -11.1850 O.3     6  U6         -0.3307
     92  C3'      -28.8310   -8.3070   -9.1960 C.3     6  U6          0.1860
     93  O3'      -28.5220   -7.7290   -7.9410 O.3     6  U6         -0.3112
     94  C2'      -29.9930   -9.2900   -9.1270 C.3     6  U6          0.2309
     95  O2'      -31.0870   -8.8410   -8.3490 O.3     6  U6         -0.2156
     96  C1'      -30.3730   -9.3780  -10.6060 C.3     6  U6          0.2420
     97  N1       -29.6180  -10.4450  -11.2850 N.ar    6  U6         -0.2534
     98  C2       -30.0390  -11.7580  -11.0930 C.ar    6  U6          0.3546
     99  O2       -31.0140  -12.0480  -10.4120 O.2     6  U6         -0.2443
    100  N3       -29.2740  -12.7110  -11.7280 N.ar    6  U6         -0.1530
    101  C4       -28.1560  -12.4910  -12.5200 C.ar    6  U6          0.2846
    102  O4       -27.5410  -13.4520  -12.9820 O.2     6  U6         -0.2650
    103  C5       -27.7940  -11.1130  -12.6800 C.ar    6  U6          0.0814
    104  C6       -28.5180  -10.1620  -12.0740 C.ar    6  U6          0.0870
    105  OP1      -25.5870   -5.5380  -10.9770 O.3     6  U6         -0.4373
    106  OP2      -25.0940   -7.5200  -12.5330 O.co2   6  U6         -0.5172
    107  P        -27.2590   -8.2710   -7.1070 P.3     7  C7          0.2141
    108  C5'      -28.7330  -10.0770   -5.9430 C.3     7  C7          0.1812
    109  O5'      -27.6310   -9.7850   -6.7890 O.3     7  C7         -0.3114
    110  C4'      -29.0020  -11.5530   -5.9270 C.3     7  C7          0.1773
    111  O4'      -29.2950  -12.0210   -7.2710 O.3     7  C7         -0.3307
    112  C3'      -27.8470  -12.4440   -5.5180 C.3     7  C7          0.1860
    113  O3'      -27.6290  -12.4250   -4.1210 O.3     7  C7         -0.3112
    114  C2'      -28.3260  -13.7950   -6.0340 C.3     7  C7          0.2309
    115  O2'      -29.2720  -14.4690   -5.2240 O.3     7  C7         -0.2156
    116  C1'      -28.8950  -13.3840   -7.3950 C.3     7  C7          0.2420
    117  N1       -27.8350  -13.4570   -8.4060 N.ar    7  C7         -0.2535
    118  C2       -27.4240  -14.7190   -8.8500 C.ar    7  C7          0.3532
    119  O2       -28.0000  -15.7320   -8.3930 O.2     7  C7         -0.2443
    120  N3       -26.4080  -14.8030   -9.7540 N.ar    7  C7         -0.1739
    121  C4       -25.8130  -13.6870  -10.2010 C.ar    7  C7          0.1759
    122  N4       -24.7960  -13.8160  -11.0740 N.pl3   7  C7         -0.1070
    123  C5       -26.2290  -12.3900   -9.7730 C.ar    7  C7          0.0566
    124  C6       -27.2380  -12.3230   -8.8880 C.ar    7  C7          0.0850
    125  OP1      -27.2490   -7.5630   -5.8050 O.3     7  C7         -0.4373
    126  OP2      -26.0720   -8.1870   -7.9960 O.co2   7  C7         -0.5172
    127  P        -26.1380  -12.6050   -3.5490 P.3     8  G8          0.2141
    128  C5'      -26.7590  -15.1430   -3.2530 C.3     8  G8          0.1812
    129  O5'      -25.8470  -14.1600   -3.7470 O.3     8  G8         -0.3114
    130  C4'      -26.3700  -16.5200   -3.7470 C.3     8  G8          0.1773
    131  O4'      -26.5420  -16.6070   -5.1880 O.3     8  G8         -0.3307
    132  C3'      -24.9200  -16.9220   -3.5380 C.3     8  G8          0.1860
    133  O3'      -24.6910  -17.4040   -2.2280 O.3     8  G8         -0.3112
    134  C2'      -24.7490  -18.0320   -4.5630 C.3     8  G8          0.2309
    135  O2'      -25.2640  -19.2750   -4.1270 O.3     8  G8         -0.2156
    136  C1'      -25.5510  -17.4700   -5.7400 C.3     8  G8          0.2408
    137  N1       -21.8770  -17.5140   -9.2770 N.ar    8  G8         -0.1709
    138  C2       -22.4280  -18.5650   -8.5920 C.ar    8  G8          0.2606
    139  N2       -21.9000  -19.7680   -8.8540 N.pl3   8  G8         -0.0859
    140  N3       -23.4080  -18.4450   -7.7060 N.ar    8  G8         -0.1918
    141  C4       -23.7700  -17.1570   -7.5330 C.ar    8  G8          0.1723
    142  C5       -23.2660  -16.0320   -8.1580 C.ar    8  G8          0.1748
    143  C6       -22.2400  -16.1810   -9.1230 C.ar    8  G8          0.3023
    144  O6       -21.6740  -15.2980   -9.7930 O.2     8  G8         -0.2633
    145  N7       -23.8960  -14.8860   -7.6930 N.ar    8  G8         -0.2173
    146  C8       -24.7560  -15.3220   -6.8130 C.ar    8  G8          0.1817
    147  N9       -24.7290  -16.6870   -6.6590 N.ar    8  G8         -0.2693
    148  OP1      -26.1780  -12.3220   -2.0880 O.3     8  G8         -0.4373
    149  OP2      -25.2390  -11.8080   -4.4250 O.co2   8  G8         -0.5172
    150  P        -23.2720  -17.1390   -1.5310 P.3     9  C9          0.2141
    151  C5'      -22.4150  -19.5290   -2.1210 C.3     9  C9          0.1812
    152  O5'      -22.2860  -18.1270   -2.2930 O.3     9  C9         -0.3114
    153  C4'      -21.3690  -20.2520   -2.9250 C.3     9  C9          0.1773
    154  O4'      -21.6100  -20.0410   -4.3340 O.3     9  C9         -0.3307
    155  C3'      -19.9480  -19.7670   -2.7470 C.3     9  C9          0.1860
    156  O3'      -19.3500  -20.3390   -1.6020 O.3     9  C9         -0.3112
    157  C2'      -19.2830  -20.2990   -4.0020 C.3     9  C9          0.2309
    158  O2'      -19.0020  -21.6720   -3.8970 O.3     9  C9         -0.2156
    159  C1'      -20.3790  -20.0530   -5.0350 C.3     9  C9          0.2420
    160  N1       -20.2110  -18.7440   -5.6570 N.ar    9  C9         -0.2535
    161  C2       -19.2350  -18.5930   -6.6450 C.ar    9  C9          0.3532
    162  O2       -18.5680  -19.5940   -6.9890 O.2     9  C9         -0.2443
    163  N3       -19.0390  -17.3640   -7.1930 N.ar    9  C9         -0.1739
    164  C4       -19.7800  -16.3220   -6.7830 C.ar    9  C9          0.1759
    165  N4       -19.5440  -15.1220   -7.3290 N.pl3   9  C9         -0.1070
    166  C5       -20.7950  -16.4620   -5.7930 C.ar    9  C9          0.0566
    167  C6       -20.9780  -17.6800   -5.2660 C.ar    9  C9          0.0850
    168  OP1      -23.4020  -17.6250   -0.1290 O.3     9  C9         -0.4373
    169  OP2      -22.8710  -15.7200   -1.8020 O.co2   9  C9         -0.5172
    170  P        -18.1100  -19.5890   -0.9190 P.3    10  G10         0.2141
    171  C5'      -16.2120  -21.0230   -1.9950 C.3    10  G10         0.1812
    172  O5'      -16.9050  -19.7950   -1.9390 O.3    10  G10        -0.3114
    173  C4'      -15.0350  -20.8940   -2.9080 C.3    10  G10         0.1773
    174  O4'      -15.4880  -20.4960   -4.2170 O.3    10  G10        -0.3307
    175  C3'      -14.0610  -19.8150   -2.5180 C.3    10  G10         0.1860
    176  O3'      -13.1390  -20.4070   -1.6440 O.3    10  G10        -0.3112
    177  C2'      -13.3720  -19.4990   -3.8310 C.3    10  G10         0.2309
    178  O2'      -12.3240  -20.3980   -4.0870 O.3    10  G10        -0.2156
    179  C1'      -14.5090  -19.6810   -4.8330 C.3    10  G10         0.2408
    180  N1       -13.9870  -15.3150   -7.3340 N.ar   10  G10        -0.1709
    181  C2       -13.1300  -16.3870   -7.2640 C.ar   10  G10         0.2606
    182  N2       -11.9640  -16.2620   -7.9030 N.pl3  10  G10        -0.0859
    183  N3       -13.3940  -17.4970   -6.5990 N.ar   10  G10        -0.1918
    184  C4       -14.5850  -17.4290   -5.9660 C.ar   10  G10         0.1723
    185  C5       -15.5030  -16.3960   -5.9580 C.ar   10  G10         0.1748
    186  C6       -15.2240  -15.2360   -6.6960 C.ar   10  G10         0.3023
    187  O6       -15.9240  -14.2320   -6.8250 O.2    10  G10        -0.2633
    188  N7       -16.6050  -16.7180   -5.1790 N.ar   10  G10        -0.2173
    189  C8       -16.3440  -17.9220   -4.7350 C.ar   10  G10         0.1817
    190  N9       -15.1280  -18.4040   -5.1670 N.ar   10  G10        -0.2693
    191  OP1      -17.7860  -20.2890    0.3540 O.3    10  G10        -0.4373
    192  OP2      -18.4530  -18.1440   -0.9060 O.co2  10  G10        -0.5172
    193  P        -12.4400  -19.5020   -0.5260 P.3    11  C11         0.2141
    194  C5'      -10.2880  -19.6740   -2.0270 C.3    11  C11         0.1812
    195  O5'      -11.2040  -18.8510   -1.3130 O.3    11  C11        -0.3114
    196  C4'       -9.5350  -18.8580   -3.0560 C.3    11  C11         0.1773
    197  O4'      -10.3950  -18.4990   -4.1720 O.3    11  C11        -0.3307
    198  C3'       -9.0070  -17.5140   -2.5870 C.3    11  C11         0.1860
    199  O3'       -7.8010  -17.6240   -1.8640 O.3    11  C11        -0.3112
    200  C2'       -8.7930  -16.7720   -3.8970 C.3    11  C11         0.2309
    201  O2'       -7.6020  -17.1030   -4.5710 O.3    11  C11        -0.2156
    202  C1'      -10.0240  -17.2140   -4.6770 C.3    11  C11         0.2420
    203  N1       -11.1220  -16.2720   -4.4210 N.ar   11  C11        -0.2535
    204  C2       -11.0990  -15.0240   -5.0620 C.ar   11  C11         0.3532
    205  O2       -10.1590  -14.7670   -5.8450 O.2    11  C11        -0.2443
    206  N3       -12.1000  -14.1390   -4.8120 N.ar   11  C11        -0.1739
    207  C4       -13.0910  -14.4670   -3.9690 C.ar   11  C11         0.1759
    208  N4       -14.0530  -13.5750   -3.7520 N.pl3  11  C11        -0.1070
    209  C5       -13.1380  -15.7300   -3.3120 C.ar   11  C11         0.0566
    210  C6       -12.1430  -16.5940   -3.5640 C.ar   11  C11         0.0850
    211  OP1      -11.9460  -20.4370    0.5260 O.3    11  C11        -0.4373
    212  OP2      -13.4510  -18.4530   -0.1520 O.co2  11  C11        -0.5172
    213  P         -7.4610  -16.5300   -0.7470 P.3    12  C12         0.2141
    214  C5'       -5.7720  -15.2670   -2.3230 C.3    12  C12         0.1812
    215  O5'       -6.9940  -15.2610   -1.5910 O.3    12  C12        -0.3114
    216  C4'       -5.5930  -13.9500   -3.0480 C.3    12  C12         0.1773
    217  O4'       -6.6640  -13.7930   -4.0240 O.3    12  C12        -0.3307
    218  C3'       -5.7070  -12.6770   -2.2150 C.3    12  C12         0.1860
    219  O3'       -4.5690  -12.3630   -1.4380 O.3    12  C12        -0.3112
    220  C2'       -6.0370  -11.6400   -3.2790 C.3    12  C12         0.2309
    221  O2'       -4.9590  -11.2350   -4.1000 O.3    12  C12        -0.2156
    222  C1'       -7.0660  -12.4230   -4.0870 C.3    12  C12         0.2420
    223  N1        -8.4040  -12.2980   -3.4840 N.ar   12  C12        -0.2535
    224  C2        -9.1670  -11.1820   -3.8130 C.ar   12  C12         0.3532
    225  O2        -8.6730  -10.3400   -4.5780 O.2    12  C12        -0.2443
    226  N3       -10.4160  -11.0500   -3.2950 N.ar   12  C12        -0.1739
    227  C4       -10.8960  -11.9900   -2.4740 C.ar   12  C12         0.1759
    228  N4       -12.1440  -11.8520   -2.0200 N.pl3  12  C12        -0.1070
    229  C5       -10.1220  -13.1270   -2.0940 C.ar   12  C12         0.0566
    230  C6        -8.8950  -13.2410   -2.6190 C.ar   12  C12         0.0850
    231  OP1       -6.3140  -17.0270    0.0560 O.3    12  C12        -0.4373
    232  OP2       -8.7490  -16.2020   -0.0720 O.co2  12  C12        -0.5172
    233  P         -4.7720  -11.6350   -0.0280 P.3    13  G13         0.2141
    234  C5'       -4.2510   -9.3430   -1.2160 C.3    13  G13         0.1813
    235  O5'       -5.1460  -10.1380   -0.4410 O.3    13  G13        -0.3114
    236  C4'       -4.9310   -8.0690   -1.6800 C.3    13  G13         0.1801
    237  O4'       -6.0920   -8.3860   -2.4930 O.3    13  G13        -0.3306
    238  C3'       -5.4610   -7.1060   -0.6220 C.3    13  G13         0.2161
    239  O3'       -4.3980   -6.2760   -0.1500 O.3    13  G13        -0.2175
    240  C2'       -6.4750   -6.2980   -1.4300 C.3    13  G13         0.2337
    241  O2'       -5.8920   -5.2820   -2.2180 O.3    13  G13        -0.2155
    242  C1'       -7.0770   -7.3790   -2.3320 C.3    13  G13         0.2409
    243  N1       -12.0030   -6.8240   -1.3510 N.ar   13  G13        -0.1709
    244  C2       -11.1450   -5.9690   -2.0000 C.ar   13  G13         0.2606
    245  N2       -11.6680   -4.8030   -2.4200 N.pl3  13  G13        -0.0859
    246  N3        -9.8700   -6.2370   -2.2170 N.ar   13  G13        -0.1918
    247  C4        -9.5230   -7.4380   -1.7140 C.ar   13  G13         0.1723
    248  C5       -10.3080   -8.3570   -1.0490 C.ar   13  G13         0.1748
    249  C6       -11.6590   -8.0640   -0.8330 C.ar   13  G13         0.3023
    250  O6       -12.5030   -8.7470   -0.2650 O.2    13  G13        -0.2633
    251  N7        -9.5670   -9.4680   -0.6810 N.ar   13  G13        -0.2173
    252  C8        -8.3660   -9.2100   -1.1210 C.ar   13  G13         0.1817
    253  N9        -8.2700   -7.9900   -1.7510 N.ar   13  G13        -0.2693
    254  OP1       -3.4560  -11.6450    0.6660 O.3    13  G13        -0.4373
    255  OP2       -5.9550  -12.2460    0.6450 O.co2  13  G13        -0.5172
    256  P        -21.5370   -4.5310   -1.0830 P.3    35  C35         0.1280
    257  C5'      -20.2560   -2.5410   -2.1770 C.3    35  C35         0.1795
    258  O5'      -20.3050   -3.9220   -1.8830 O.3    35  C35        -0.3259
    259  C4'      -18.8480   -2.1390   -2.4980 C.3    35  C35         0.1772
    260  O4'      -17.9940   -2.4480   -1.3670 O.3    35  C35        -0.3307
    261  C3'      -18.1860   -2.9050   -3.6290 C.3    35  C35         0.1860
    262  O3'      -18.6170   -2.4330   -4.8950 O.3    35  C35        -0.3112
    263  C2'      -16.7150   -2.6160   -3.3610 C.3    35  C35         0.2309
    264  O2'      -16.2800   -1.3350   -3.7700 O.3    35  C35        -0.2156
    265  C1'      -16.6780   -2.7210   -1.8360 C.3    35  C35         0.2420
    266  N1       -16.2950   -4.0740   -1.4110 N.ar   35  C35        -0.2535
    267  C2       -14.9480   -4.4360   -1.4880 C.ar   35  C35         0.3532
    268  O2       -14.1330   -3.6070   -1.9040 O.2    35  C35        -0.2443
    269  N3       -14.5740   -5.6770   -1.1150 N.ar   35  C35        -0.1739
    270  C4       -15.4880   -6.5460   -0.6850 C.ar   35  C35         0.1759
    271  N4       -15.0750   -7.7650   -0.3350 N.pl3  35  C35        -0.1070
    272  C5       -16.8700   -6.2050   -0.5940 C.ar   35  C35         0.0566
    273  C6       -17.2270   -4.9670   -0.9630 C.ar   35  C35         0.0850
    274  OP1      -22.7890   -4.2270   -1.8170 O.3    35  C35        -0.1955
    275  OP2      -21.2480   -5.9300   -0.6770 O.co2  35  C35        -0.7863
    276  P        -18.4130   -3.3500   -6.2010 P.3    36  G36         0.2141
    277  C5'      -16.0870   -2.3260   -6.8670 C.3    36  G36         0.1812
    278  O5'      -16.8260   -3.4390   -6.3570 O.3    36  G36        -0.3114
    279  C4'      -14.6210   -2.6720   -6.9810 C.3    36  G36         0.1773
    280  O4'      -14.1070   -3.0380   -5.6730 O.3    36  G36        -0.3307
    281  C3'      -14.2690   -3.8730   -7.8430 C.3    36  G36         0.1860
    282  O3'      -14.2240   -3.5160   -9.2100 O.3    36  G36        -0.3112
    283  C2'      -12.8960   -4.2430   -7.3020 C.3    36  G36         0.2309
    284  O2'      -11.8490   -3.3880   -7.7090 O.3    36  G36        -0.2156
    285  C1'      -13.1430   -4.0730   -5.8100 C.3    36  G36         0.2408
    286  N1       -12.0730   -8.7020   -4.0420 N.ar   36  G36        -0.1709
    287  C2       -11.2500   -7.7960   -4.6800 C.ar   36  G36         0.2606
    288  N2        -9.9660   -8.1490   -4.8400 N.pl3  36  G36        -0.0859
    289  N3       -11.6590   -6.6210   -5.1300 N.ar   36  G36        -0.1918
    290  C4       -12.9740   -6.4170   -4.8910 C.ar   36  G36         0.1723
    291  C5       -13.8820   -7.2580   -4.2770 C.ar   36  G36         0.1748
    292  C6       -13.4360   -8.5100   -3.7920 C.ar   36  G36         0.3023
    293  O6       -14.0940   -9.3790   -3.2070 O.2    36  G36        -0.2633
    294  N7       -15.1450   -6.6780   -4.2390 N.ar   36  G36        -0.2173
    295  C8       -14.9810   -5.5110   -4.8070 C.ar   36  G36         0.1817
    296  N9       -13.6830   -5.2820   -5.2040 N.ar   36  G36        -0.2693
    297  OP1      -18.9090   -2.5690   -7.3600 O.2    36  G36        -0.5172
    298  OP2      -18.9990   -4.6850   -5.9180 O.co2  36  G36        -0.4373
    299  P        -14.7980   -4.5290  -10.3110 P.3    37  G37         0.2141
    300  C5'      -12.3240   -4.9530  -11.0170 C.3    37  G37         0.1812
    301  O5'      -13.5700   -5.5000  -10.6020 O.3    37  G37        -0.3114
    302  C4'      -11.2100   -5.9240  -10.7400 C.3    37  G37         0.1773
    303  O4'      -11.1390   -6.2220   -9.3200 O.3    37  G37        -0.3307
    304  C3'      -11.4410   -7.3030  -11.3100 C.3    37  G37         0.1860
    305  O3'      -11.3570   -7.3570  -12.7130 O.3    37  G37        -0.3112
    306  C2'      -10.4370   -8.1330  -10.5380 C.3    37  G37         0.2309
    307  O2'       -9.0930   -7.9790  -10.9480 O.3    37  G37        -0.2156
    308  C1'      -10.6810   -7.5640   -9.1450 C.3    37  G37         0.2408
    309  N1       -11.6500  -11.6430   -6.3370 N.ar   37  G37        -0.1709
    310  C2       -10.4880  -11.2710   -6.9700 C.ar   37  G37         0.2606
    311  N2        -9.4330  -12.0910   -6.8100 N.pl3  37  G37        -0.0859
    312  N3       -10.3680  -10.1820   -7.7110 N.ar   37  G37        -0.1918
    313  C4       -11.5300   -9.4960   -7.7860 C.ar   37  G37         0.1723
    314  C5       -12.7490   -9.7940   -7.2170 C.ar   37  G37         0.1748
    315  C6       -12.8560  -10.9510   -6.4040 C.ar   37  G37         0.3023
    316  O6       -13.8410  -11.3720   -5.7900 O.2    37  G37        -0.2633
    317  N7       -13.7030   -8.8430   -7.5650 N.ar   37  G37        -0.2173
    318  C8       -13.0490   -7.9890   -8.3040 C.ar   37  G37         0.1817
    319  N9       -11.7190   -8.3160   -8.4520 N.ar   37  G37        -0.2693
    320  OP1      -15.0230   -3.6820  -11.5130 O.2    37  G37        -0.5172
    321  OP2      -15.9300   -5.2930   -9.7080 O.co2  37  G37        -0.4373
    322  P        -12.4500   -8.2050  -13.5070 P.3    38  C38         0.2141
    323  C5'      -10.4070   -9.8140  -13.6860 C.3    38  C38         0.1812
    324  O5'      -11.8120   -9.6620  -13.5230 O.3    38  C38        -0.3114
    325  C4'       -9.9400  -11.1320  -13.1090 C.3    38  C38         0.1773
    326  O4'       -9.9400  -11.1240  -11.6590 O.3    38  C38        -0.3307
    327  C3'      -10.7490  -12.3670  -13.4670 C.3    38  C38         0.1860
    328  O3'      -10.3630  -12.8660  -14.7310 O.3    38  C38        -0.3112
    329  C2'      -10.3000  -13.3440  -12.3970 C.3    38  C38         0.2309
    330  O2'       -9.0360  -13.8950  -12.6890 O.3    38  C38        -0.2156
    331  C1'      -10.2490  -12.4230  -11.1810 C.3    38  C38         0.2420
    332  N1       -11.5640  -12.3520  -10.5440 N.ar   38  C38        -0.2535
    333  C2       -11.9420  -13.3690   -9.6560 C.ar   38  C38         0.3532
    334  O2       -11.1450  -14.2980   -9.4300 O.2    38  C38        -0.2443
    335  N3       -13.1600  -13.3120   -9.0730 N.ar   38  C38        -0.1739
    336  C4       -13.9820  -12.2900   -9.3530 C.ar   38  C38         0.1759
    337  N4       -15.1720  -12.2460   -8.7570 N.pl3  38  C38        -0.1070
    338  C5       -13.6180  -11.2560  -10.2560 C.ar   38  C38         0.0566
    339  C6       -12.4110  -11.3200  -10.8180 C.ar   38  C38         0.0850
    340  OP1      -12.5780   -7.6930  -14.8980 O.2    38  C38        -0.5172
    341  OP2      -13.6300   -8.1930  -12.6000 O.co2  38  C38        -0.4373
    342  P        -11.3250  -13.8810  -15.4960 P.3    39  G39         0.2141
    343  C5'      -10.6280  -16.0930  -14.2640 C.3    39  G39         0.1812
    344  O5'      -11.5740  -15.0430  -14.4350 O.3    39  G39        -0.3114
    345  C4'      -11.3180  -17.3150  -13.7090 C.3    39  G39         0.1773
    346  O4'      -11.7940  -17.0250  -12.3730 O.3    39  G39        -0.3307
    347  C3'      -12.5180  -17.7940  -14.5180 C.3    39  G39         0.1860
    348  O3'      -12.2150  -18.8700  -15.4150 O.3    39  G39        -0.3112
    349  C2'      -13.6640  -17.9700  -13.5170 C.3    39  G39         0.2309
    350  O2'      -14.4150  -19.1690  -13.5480 O.3    39  G39        -0.2156
    351  C1'      -13.0330  -17.6530  -12.1560 C.3    39  G39         0.2408
    352  N1       -16.7760  -17.0450   -8.7760 N.ar   39  G39        -0.1709
    353  C2       -15.9860  -18.1530   -9.0000 C.ar   39  G39         0.2606
    354  N2       -16.2950  -19.2590   -8.2910 N.pl3  39  G39        -0.0859
    355  N3       -14.9710  -18.1740   -9.8560 N.ar   39  G39        -0.1918
    356  C4       -14.8110  -16.9790  -10.4790 C.ar   39  G39         0.1723
    357  C5       -15.5350  -15.8140  -10.3130 C.ar   39  G39         0.1748
    358  C6       -16.6240  -15.8080   -9.4000 C.ar   39  G39         0.3023
    359  O6       -17.4010  -14.8820   -9.1320 O.2    39  G39        -0.2633
    360  N7       -15.0480  -14.8080  -11.1390 N.ar   39  G39        -0.2173
    361  C8       -14.0730  -15.3710  -11.7980 C.ar   39  G39         0.1817
    362  N9       -13.9100  -16.7020  -11.4840 N.ar   39  G39        -0.2693
    363  OP1      -10.5320  -14.3990  -16.6550 O.2    39  G39        -0.5172
    364  OP2      -12.6100  -13.1610  -15.7230 O.co2  39  G39        -0.4373
    365  P        -11.5470  -20.2400  -14.8620 P.3    40  A40         0.2141
    366  C5'      -13.8220  -21.5050  -15.3690 C.3    40  A40         0.1812
    367  O5'      -12.4100  -21.3770  -15.5810 O.3    40  A40        -0.3114
    368  C4'      -14.4680  -22.1830  -16.5570 C.3    40  A40         0.1773
    369  O4'      -13.6660  -23.3220  -16.9380 O.3    40  A40        -0.3307
    370  C3'      -15.8820  -22.7060  -16.3520 C.3    40  A40         0.1860
    371  O3'      -16.8140  -21.7100  -16.7770 O.3    40  A40        -0.3112
    372  C2'      -15.9440  -23.9050  -17.2960 C.3    40  A40         0.2309
    373  O2'      -16.3310  -23.5200  -18.5980 O.3    40  A40        -0.2156
    374  C1'      -14.4930  -24.3890  -17.3230 C.3    40  A40         0.2408
    375  N1       -13.8190  -29.5080  -16.9680 N.ar   40  A40        -0.2040
    376  C2       -14.3230  -28.7410  -17.9420 C.ar   40  A40         0.2016
    377  N3       -14.5170  -27.4200  -17.9660 N.ar   40  A40        -0.2048
    378  C4       -14.1300  -26.8600  -16.8090 C.ar   40  A40         0.1692
    379  C5       -13.6020  -27.5170  -15.7080 C.ar   40  A40         0.1518
    380  C6       -13.4410  -28.9170  -15.8160 C.ar   40  A40         0.1919
    381  N6       -12.9340  -29.6790  -14.8450 N.pl3  40  A40        -0.1054
    382  N7       -13.3240  -26.6200  -14.6880 N.ar   40  A40        -0.2193
    383  C8       -13.6710  -25.4560  -15.1860 C.ar   40  A40         0.1816
    384  N9       -14.1360  -25.5240  -16.4730 N.ar   40  A40        -0.2693
    385  OP1      -11.6760  -20.3880  -13.3770 O.3    40  A40        -0.4373
    386  OP2      -10.1930  -20.3110  -15.4820 O.co2  40  A40        -0.5172
    387  P        -18.0540  -21.3130  -15.8250 P.3    41  A41         0.2141
    388  C5'      -19.6910  -22.7410  -17.3350 C.3    41  A41         0.1812
    389  O5'      -19.0990  -22.4920  -16.0590 O.3    41  A41        -0.3114
    390  C4'      -20.2870  -24.1290  -17.3430 C.3    41  A41         0.1773
    391  O4'      -19.2260  -25.1250  -17.3320 O.3    41  A41        -0.3307
    392  C3'      -21.0770  -24.4410  -16.0880 C.3    41  A41         0.1860
    393  O3'      -22.3780  -23.9150  -16.1960 O.3    41  A41        -0.3112
    394  C2'      -21.0070  -25.9620  -16.0000 C.3    41  A41         0.2309
    395  O2'      -21.9450  -26.6690  -16.7880 O.3    41  A41        -0.2156
    396  C1'      -19.5860  -26.2140  -16.4920 C.3    41  A41         0.2408
    397  N1       -16.1270  -29.0420  -13.9540 N.ar   41  A41        -0.2040
    398  C2       -16.8940  -29.3010  -15.0290 C.ar   41  A41         0.2016
    399  N3       -17.7830  -28.5180  -15.6420 N.ar   41  A41        -0.2048
    400  C4       -17.8510  -27.3200  -15.0350 C.ar   41  A41         0.1692
    401  C5       -17.1280  -26.9050  -13.9260 C.ar   41  A41         0.1518
    402  C6       -16.2280  -27.8310  -13.3630 C.ar   41  A41         0.1919
    403  N6       -15.4830  -27.5860  -12.2820 N.pl3  41  A41        -0.1054
    404  N7       -17.4530  -25.5980  -13.5930 N.ar   41  A41        -0.2193
    405  C8       -18.3510  -25.2630  -14.4870 C.ar   41  A41         0.1816
    406  N9       -18.6390  -26.2570  -15.3870 N.ar   41  A41        -0.2693
    407  OP1      -18.7120  -20.0570  -16.2930 O.2    41  A41        -0.5172
    408  OP2      -17.5510  -21.4090  -14.4160 O.co2  41  A41        -0.4373
    409  P        -22.8250  -22.7440  -15.2080 P.3    42  G42         0.2141
    410  C5'      -24.3370  -24.4340  -13.9130 C.3    42  G42         0.1812
    411  O5'      -24.2390  -23.2390  -14.6780 O.3    42  G42        -0.3114
    412  C4'      -24.9480  -24.1330  -12.5740 C.3    42  G42         0.1773
    413  O4'      -24.0350  -23.3290  -11.7720 O.3    42  G42        -0.3307
    414  C3'      -26.1870  -23.2650  -12.6360 C.3    42  G42         0.1860
    415  O3'      -27.3420  -23.9890  -13.0270 O.3    42  G42        -0.3112
    416  C2'      -26.2580  -22.7570  -11.2070 C.3    42  G42         0.2309
    417  O2'      -26.7630  -23.7300  -10.3140 O.3    42  G42        -0.2156
    418  C1'      -24.7800  -22.4500  -10.9410 C.3    42  G42         0.2408
    419  N1       -25.6860  -17.4740  -10.2370 N.ar   42  G42        -0.1709
    420  C2       -26.3370  -18.5590   -9.6890 C.ar   42  G42         0.2606
    421  N2       -27.3580  -18.2820   -8.8510 N.pl3  42  G42        -0.0859
    422  N3       -26.0160  -19.8170   -9.9470 N.ar   42  G42        -0.1918
    423  C4       -24.9790  -19.9080  -10.8140 C.ar   42  G42         0.1723
    424  C5       -24.2730  -18.8880  -11.4190 C.ar   42  G42         0.1748
    425  C6       -24.6240  -17.5470  -11.1370 C.ar   42  G42         0.3023
    426  O6       -24.1210  -16.5080  -11.5880 O.2    42  G42        -0.2633
    427  N7       -23.2830  -19.3980  -12.2460 N.ar   42  G42        -0.2173
    428  C8       -23.3980  -20.6940  -12.1360 C.ar   42  G42         0.1817
    429  N9       -24.4030  -21.0780  -11.2830 N.ar   42  G42        -0.2693
    430  OP1      -22.9830  -21.5240  -16.0410 O.2    42  G42        -0.5172
    431  OP2      -21.8840  -22.7350  -14.0460 O.co2  42  G42        -0.4373
    432  P        -28.4580  -23.2640  -13.9280 P.3    43  U43         0.2141
    433  C5'      -29.8160  -22.6260  -11.7770 C.3    43  U43         0.1812
    434  O5'      -29.1120  -22.2000  -12.9420 O.3    43  U43        -0.3114
    435  C4'      -30.4900  -21.4480  -11.1170 C.3    43  U43         0.1773
    436  O4'      -29.4850  -20.5110  -10.6540 O.3    43  U43        -0.3307
    437  C3'      -31.3580  -20.5990  -12.0290 C.3    43  U43         0.1860
    438  O3'      -32.6430  -21.1650  -12.2320 O.3    43  U43        -0.3112
    439  C2'      -31.4180  -19.2790  -11.2740 C.3    43  U43         0.2309
    440  O2'      -32.3620  -19.2470  -10.2180 O.3    43  U43        -0.2156
    441  C1'      -29.9830  -19.1840  -10.7570 C.3    43  U43         0.2420
    442  N1       -29.1090  -18.4310  -11.6690 N.ar   43  U43        -0.2534
    443  C2       -29.1290  -17.0450  -11.5830 C.ar   43  U43         0.3546
    444  O2       -29.8610  -16.4400  -10.8220 O.2    43  U43        -0.2443
    445  N3       -28.2620  -16.4010  -12.4220 N.ar   43  U43        -0.1530
    446  C4       -27.4020  -16.9830  -13.3290 C.ar   43  U43         0.2846
    447  O4       -26.6160  -16.2740  -13.9590 O.2    43  U43        -0.2650
    448  C5       -27.4640  -18.4140  -13.3800 C.ar   43  U43         0.0814
    449  C6       -28.2930  -19.0730  -12.5680 C.ar   43  U43         0.0870
    450  OP1      -29.4860  -24.2800  -14.2720 O.3    43  U43        -0.4373
    451  OP2      -27.7620  -22.5230  -15.0140 O.co2  43  U43        -0.5172
    452  P        -33.4250  -20.8680  -13.5960 P.3    44  C44         0.2141
    453  C5'      -34.9180  -19.0730  -12.3770 C.3    44  C44         0.1812
    454  O5'      -33.9920  -19.3880  -13.4120 O.3    44  C44        -0.3114
    455  C4'      -34.9700  -17.5790  -12.1680 C.3    44  C44         0.1773
    456  O4'      -33.6250  -17.1180  -11.8720 O.3    44  C44        -0.3307
    457  C3'      -35.3620  -16.7470  -13.3820 C.3    44  C44         0.1860
    458  O3'      -36.7670  -16.6710  -13.5880 O.3    44  C44        -0.3112
    459  C2'      -34.7440  -15.3910  -13.0630 C.3    44  C44         0.2309
    460  O2'      -35.5060  -14.5810  -12.1930 O.3    44  C44        -0.2156
    461  C1'      -33.4290  -15.8210  -12.4200 C.3    44  C44         0.2420
    462  N1       -32.3450  -15.8910  -13.4070 N.ar   44  C44        -0.2535
    463  C2       -31.8050  -14.6950  -13.8770 C.ar   44  C44         0.3532
    464  O2       -32.2600  -13.6210  -13.4400 O.2    44  C44        -0.2443
    465  N3       -30.8040  -14.7340  -14.7890 N.ar   44  C44        -0.1739
    466  C4       -30.3430  -15.9090  -15.2210 C.ar   44  C44         0.1759
    467  N4       -29.3490  -15.8990  -16.1150 N.pl3  44  C44        -0.1070
    468  C5       -30.8800  -17.1460  -14.7550 C.ar   44  C44         0.0566
    469  C6       -31.8720  -17.0910  -13.8590 C.ar   44  C44         0.0850
    470  OP1      -34.5540  -21.8340  -13.6460 O.3    44  C44        -0.4373
    471  OP2      -32.4150  -20.8420  -14.7000 O.co2  44  C44        -0.5172
    472  P        -37.3360  -16.2920  -15.0500 P.3    45  G45         0.2141
    473  C5'      -37.7500  -13.7580  -14.5920 C.3    45  G45         0.1812
    474  O5'      -36.9730  -14.7520  -15.2350 O.3    45  G45        -0.3114
    475  C4'      -37.3100  -12.4000  -15.0360 C.3    45  G45         0.1773
    476  O4'      -35.9130  -12.2570  -14.6750 O.3    45  G45        -0.3307
    477  C3'      -37.3210  -12.1570  -16.5410 C.3    45  G45         0.1860
    478  O3'      -38.6100  -11.7950  -17.0410 O.3    45  G45        -0.3112
    479  C2'      -36.3100  -11.0230  -16.6670 C.3    45  G45         0.2309
    480  O2'      -36.8280   -9.7360  -16.3630 O.3    45  G45        -0.2156
    481  C1'      -35.2450  -11.4800  -15.6610 C.3    45  G45         0.2408
    482  N1       -31.0320  -11.4710  -18.4790 N.ar   45  G45        -0.1709
    483  C2       -31.7920  -10.4140  -18.0320 C.ar   45  G45         0.2606
    484  N2       -31.3650   -9.1860  -18.3710 N.pl3  45  G45        -0.0859
    485  N3       -32.8860  -10.5500  -17.3010 N.ar   45  G45        -0.1918
    486  C4       -33.1560  -11.8500  -17.0280 C.ar   45  G45         0.1723
    487  C5       -32.4590  -12.9740  -17.4150 C.ar   45  G45         0.1748
    488  C6       -31.2920  -12.8170  -18.2150 C.ar   45  G45         0.3023
    489  O6       -30.5380  -13.6900  -18.6660 O.2    45  G45        -0.2633
    490  N7       -33.0650  -14.1250  -16.9120 N.ar   45  G45        -0.2173
    491  C8       -34.0980  -13.6810  -16.2500 C.ar   45  G45         0.1817
    492  N9       -34.2140  -12.3040  -16.2810 N.ar   45  G45        -0.2693
    493  OP1      -38.8120  -16.4300  -14.9720 O.3    45  G45        -0.4373
    494  OP2      -36.5820  -17.0580  -16.0810 O.co2  45  G45        -0.5172
    495  P        -38.9210  -11.9070  -18.6240 P.3    46  C46         0.2141
    496  C5'      -38.2190   -9.4250  -19.0560 C.3    46  C46         0.1813
    497  O5'      -37.9710  -10.8080  -19.2790 O.3    46  C46        -0.3114
    498  C4'      -37.1540   -8.5840  -19.7130 C.3    46  C46         0.1801
    499  O4'      -35.8530   -8.9210  -19.1600 O.3    46  C46        -0.3306
    500  C3'      -36.9550   -8.7350  -21.2160 C.3    46  C46         0.2161
    501  O3'      -37.9460   -8.2340  -22.1340 O.3    46  C46        -0.2175
    502  C2'      -35.5580   -8.1560  -21.3820 C.3    46  C46         0.2338
    503  O2'      -35.5270   -6.7390  -21.3390 O.3    46  C46        -0.2155
    504  C1'      -34.8560   -8.7670  -20.1640 C.3    46  C46         0.2421
    505  N1       -34.2930  -10.0970  -20.4530 N.ar   46  C46        -0.2535
    506  C2       -33.0780  -10.1840  -21.1500 C.ar   46  C46         0.3532
    507  O2       -32.5100   -9.1320  -21.5100 O.2    46  C46        -0.2443
    508  N3       -32.5570  -11.4080  -21.4180 N.ar   46  C46        -0.1739
    509  C4       -33.2020  -12.5090  -21.0250 C.ar   46  C46         0.1759
    510  N4       -32.6540  -13.6890  -21.3120 N.pl3  46  C46        -0.1070
    511  C5       -34.4380  -12.4470  -20.3200 C.ar   46  C46         0.0566
    512  C6       -34.9410  -11.2350  -20.0560 C.ar   46  C46         0.0850
    513  OP1      -40.3120  -11.4300  -18.8180 O.3    46  C46        -0.4373
    514  OP2      -38.5380  -13.2660  -19.1080 O.co2  46  C46        -0.5172
@<TRIPOS>BOND
     1    19     1    1
     2     1    20    1
     3     1     3    1
     4     3     2    1
     5    17    18   ar
     6    17    15   ar
     7    16    15    2
     8     2     4    1
     9    18    11   ar
    10    15    14   ar
    11     4     5    1
    12     4     6    1
    13    11    10    1
    14    11    12   ar
    15     5    10    1
    16    14    12   ar
    17     6     8    1
    18     6     7    1
    19    10     8    1
    20     8     9    1
    21    12    13    2
    22    42    21    2
    23     7    21    1
    24    25    24    1
    25    25    30    1
    26    22    24    1
    27    22    23    1
    28    21    23    1
    29    21    43    1
    30    24    26    1
    31    30    41    1
    32    30    28    1
    33    40    41   ar
    34    40    39   ar
    35    41    35   ar
    36    29    28    1
    37    39    36   ar
    38    28    26    1
    39    26    27    1
    40    35    36   ar
    41    35    34   ar
    42    36    37   ar
    43    34    32   ar
    44    27    44    1
    45    32    31   ar
    46    32    33    1
    47    37    31   ar
    48    37    38    2
    49    44    62    2
    50    44    46    1
    51    44    63    1
    52    45    46    1
    53    45    47    1
    54    48    47    1
    55    48    53    1
    56   501   500    1
    57    47    49    1
    58   507   506    2
    59    61    60   ar
    60    61    54   ar
    61   508   506   ar
    62   508   509   ar
    63   502   503    1
    64   502   500    1
    65   502   504    1
    66   510   509    1
    67    60    58   ar
    68   500   498    1
    69   506   505   ar
    70    53    54    1
    71    53    51    1
    72   509   511   ar
    73    54    55   ar
    74   505   504    1
    75   505   512   ar
    76    58    59    1
    77    58    57   ar
    78   511   512   ar
    79   504   499    1
    80    49    51    1
    81    49    50    1
    82    55    57   ar
    83    55    56    2
    84    51    52    1
    85   498   499    1
    86   498   496    1
    87    50    64    1
    88   497   496    1
    89   497   495    1
    90   514   495    2
    91   513   495    1
    92   489   488    2
    93   495   478    1
    94   373   372    1
    95   482   488   ar
    96   482   483   ar
    97   484   483    1
    98   488   487   ar
    99    86    64    2
   100   483   485   ar
   101   377   376   ar
   102   377   378   ar
   103    64    85    1
   104    64    66    1
   105   376   375   ar
   106   487   486   ar
   107   487   490   ar
   108   390   388    1
   109   390   391    1
   110   390   392    1
   111   388   389    1
   112   391   396    1
   113   374   372    1
   114   374   369    1
   115   374   384    1
   116   485   486   ar
   117   372   370    1
   118   478   477    1
   119   486   492   ar
   120    82    83   ar
   121    82    79   ar
   122   375   380   ar
   123    66    65    1
   124   369   368    1
   125    83    84   ar
   126   490   491   ar
   127   378   384   ar
   128   378   379   ar
   129   395   394    1
   130   371   370    1
   131   371   387    1
   132   479   477    1
   133   479   480    1
   134   479   481    1
   135   363   342    2
   136   368   370    1
   137   368   366    1
   138   477   475    1
   139   396   394    1
   140   396   406    1
   141   384   383   ar
   142    68    73    1
   143    68    67    1
   144    65    67    1
   145   407   387    2
   146   492   491   ar
   147   492   481    1
   148    81    80    2
   149    79    80   ar
   150    79    78   ar
   151   393   392    1
   152   393   409    1
   153   467   466    1
   154   392   394    1
   155   494   472    2
   156    84    73    1
   157    84    78   ar
   158   389   387    1
   159   430   409    2
   160    80    74   ar
   161   387   408    1
   162   380   379   ar
   163   380   381    1
   164   364   342    1
   165   379   382   ar
   166   481   476    1
   167    73    71    1
   168   399   400   ar
   169   399   398   ar
   170    67    69    1
   171    78    77   ar
   172   367   366    1
   173   367   365    1
   174   342   328    1
   175   342   344    1
   176   386   365    2
   177   348   365    1
   178   348   347    1
   179   406   400   ar
   180   406   405   ar
   181   474   472    1
   182   474   473    1
   183   466   465   ar
   184   466   468   ar
   185   409   411    1
   186   409   431    1
   187   383   382   ar
   188   472   493    1
   189   472   458    1
   190   475   476    1
   191   475   473    1
   192   400   401   ar
   193   398   397   ar
   194   451   432    2
   195    74    75   ar
   196   340   322    2
   197   365   385    1
   198   465   463   ar
   199    77    75   ar
   200   468   469   ar
   201   328   327    1
   202   471   452    2
   203   411   410    1
   204   347   345    1
   205   347   349    1
   206    75    76    1
   207   405   404   ar
   208    69    71    1
   209    69    70    1
   210   344   343    1
   211   450   432    1
   212   343   345    1
   213    71    72    1
   214   447   446    2
   215   397   402   ar
   216   432   415    1
   217   432   434    1
   218   401   404   ar
   219   401   402   ar
   220   410   412    1
   221   463   464    2
   222   463   462   ar
   223   469   462   ar
   224   345   346    1
   225   323   324    1
   226   323   325    1
   227   470   452    1
   228   452   454    1
   229   452   438    1
   230   458   457    1
   231   350   349    1
   232   324   322    1
   233   349   351    1
   234   322   305    1
   235   322   341    1
   236   327   325    1
   237   327   329    1
   238   454   453    1
   239   462   461    1
   240   457   459    1
   241   457   455    1
   242   448   446   ar
   243   448   449   ar
   244   402   403    1
   245   446   445   ar
   246    70    87    1
   247   325   326    1
   248   459   461    1
   249   459   460    1
   250   415   414    1
   251   102   101    2
   252   434   433    1
   253   305   304    1
   254   330   329    1
   255   103   101   ar
   256   103   104   ar
   257   414   412    1
   258   414   416    1
   259   412   413    1
   260   449   442   ar
   261   106    87    2
   262   101   100   ar
   263   445   443   ar
   264   461   456    1
   265   329   331    1
   266   453   455    1
   267   346   351    1
   268   427   428   ar
   269   427   424   ar
   270   438   437    1
   271   455   456    1
   272   351   362    1
   273   428   429   ar
   274   104    97   ar
   275    87    89    1
   276    87   105    1
   277   437   439    1
   278   437   435    1
   279   361   362   ar
   280   361   360   ar
   281   433   435    1
   282   413   418    1
   283   100    98   ar
   284   442   443   ar
   285   442   441    1
   286   326   331    1
   287   426   425    2
   288   443   444    2
   289   320   299    2
   290   362   356   ar
   291    89    88    1
   292   424   425   ar
   293   424   423   ar
   294   304   302    1
   295   304   306    1
   296    97    98   ar
   297    97    96    1
   298   429   418    1
   299   429   423   ar
   300   439   441    1
   301   439   440    1
   302   416   418    1
   303   416   417    1
   304    91    96    1
   305    91    90    1
   306   331   332    1
   307   360   357   ar
   308   425   419   ar
   309   435   436    1
   310    98    99    2
   311   122   121    1
   312   300   302    1
   313   300   301    1
   314   307   306    1
   315   339   332   ar
   316   339   338   ar
   317    88    90    1
   318   423   422   ar
   319   441   436    1
   320   302   303    1
   321    96    94    1
   322   301   299    1
   323   332   333   ar
   324   306   308    1
   325   356   357   ar
   326   356   355   ar
   327   357   358   ar
   328   299   321    1
   329   299   282    1
   330   338   336   ar
   331   419   420   ar
   332   121   123   ar
   333   121   120   ar
   334    90    92    1
   335   422   420   ar
   336   355   353   ar
   337   144   143    2
   338   123   124   ar
   339   120   118   ar
   340   420   421    1
   341   333   334    2
   342   333   335   ar
   343   358   359    2
   344   358   352   ar
   345   336   335   ar
   346   336   337    1
   347   303   308    1
   348   137   143   ar
   349   137   138   ar
   350   282   281    1
   351    92    94    1
   352    92    93    1
   353   308   319    1
   354    94    95    1
   355   143   142   ar
   356   353   352   ar
   357   353   354    1
   358   124   117   ar
   359   139   138    1
   360   118   117   ar
   361   118   119    2
   362   138   140   ar
   363   319   318   ar
   364   319   313   ar
   365   117   116    1
   366   318   317   ar
   367   142   145   ar
   368   142   141   ar
   369   126   107    2
   370    93   107    1
   371   182   181    1
   372   281   283    1
   373   281   279    1
   374   313   312   ar
   375   313   314   ar
   376   312   310   ar
   377   284   283    1
   378   140   141   ar
   379   145   146   ar
   380   317   314   ar
   381   141   147   ar
   382   116   111    1
   383   116   114    1
   384   297   276    2
   385   180   181   ar
   386   180   186   ar
   387   165   164    1
   388   283   285    1
   389   111   110    1
   390   181   183   ar
   391   314   315   ar
   392   163   164   ar
   393   163   161   ar
   394   107   109    1
   395   107   125    1
   396   162   161    2
   397   279   277    1
   398   279   280    1
   399   310   311    1
   400   310   309   ar
   401   277   278    1
   402   187   186    2
   403   146   147   ar
   404   109   108    1
   405   164   166   ar
   406   186   185   ar
   407   147   136    1
   408   161   160   ar
   409   183   184   ar
   410   315   309   ar
   411   315   316    2
   412   278   276    1
   413   276   298    1
   414   276   262    1
   415   114   112    1
   416   114   115    1
   417   184   185   ar
   418   184   190   ar
   419   185   188   ar
   420   108   110    1
   421   110   112    1
   422   205   204    2
   423   285   280    1
   424   285   296    1
   425   166   167   ar
   426   136   131    1
   427   136   134    1
   428   160   167   ar
   429   160   159    1
   430   112   113    1
   431   296   290   ar
   432   296   295   ar
   433   131   130    1
   434   188   189   ar
   435   190   179    1
   436   190   189   ar
   437   289   290   ar
   438   289   287   ar
   439   204   206   ar
   440   204   203   ar
   441   159   154    1
   442   159   157    1
   443   262   261    1
   444   290   291   ar
   445   288   287    1
   446   179   174    1
   447   179   177    1
   448   206   207   ar
   449   295   294   ar
   450   287   286   ar
   451   202   203    1
   452   202   197    1
   453   202   200    1
   454   225   224    2
   455   201   200    1
   456   134   135    1
   457   134   132    1
   458   149   127    2
   459   203   210   ar
   460   154   153    1
   461   291   294   ar
   462   291   292   ar
   463   174   173    1
   464   197   196    1
   465   113   127    1
   466   221   220    1
   467   178   177    1
   468   222   217    1
   469   222   223    1
   470   222   220    1
   471   286   292   ar
   472   217   216    1
   473   157   158    1
   474   157   155    1
   475   207   208    1
   476   207   209   ar
   477   200   198    1
   478   177   175    1
   479   224   223   ar
   480   224   226   ar
   481   292   293    2
   482   264   263    1
   483   130   132    1
   484   130   128    1
   485   129   127    1
   486   129   128    1
   487   261   263    1
   488   261   259    1
   489   210   209   ar
   490   127   148    1
   491   132   133    1
   492   223   230   ar
   493   263   265    1
   494   226   227   ar
   495   220   218    1
   496   196   198    1
   497   196   194    1
   498   216   214    1
   499   216   218    1
   500   153   155    1
   501   153   151    1
   502   173   175    1
   503   173   171    1
   504   155   156    1
   505   230   229   ar
   506   198   199    1
   507   175   176    1
   508   259   257    1
   509   259   260    1
   510   237   242    1
   511   237   236    1
   512   227   229   ar
   513   227   228    1
   514   245   244    1
   515   242   253    1
   516   242   240    1
   517   214   215    1
   518   152   151    1
   519   152   150    1
   520   133   150    1
   521   241   240    1
   522   246   244   ar
   523   246   247   ar
   524   218   219    1
   525   257   258    1
   526   194   195    1
   527   244   243   ar
   528   171   172    1
   529   172   170    1
   530   268   267    2
   531   258   256    1
   532   199   213    1
   533   265   266    1
   534   265   260    1
   535   274   256    1
   536   169   150    2
   537   253   247   ar
   538   253   252   ar
   539   247   248   ar
   540   236   234    1
   541   236   238    1
   542   176   193    1
   543   156   170    1
   544   215   213    1
   545   150   168    1
   546   267   266   ar
   547   267   269   ar
   548   219   233    1
   549   240   238    1
   550   266   273   ar
   551   243   249   ar
   552   195   193    1
   553   234   235    1
   554   252   251   ar
   555   269   270   ar
   556   256   275    1
   557   248   249   ar
   558   248   251   ar
   559   273   272   ar
   560   170   192    2
   561   170   191    1
   562   249   250    2
   563   213   232    2
   564   213   231    1
   565   270   272   ar
   566   270   271    1
   567   238   239    1
   568   193   212    2
   569   193   211    1
   570   235   233    1
   571   233   255    2
   572   233   254    1
