ligand
  PyMOL2.2          3D                             0

 27 29  0  0  0  0  0  0  0  0999 V2000
   48.8330   57.3810   28.8650 N   0  0  0  0  0  0  0  0  0  0  0  0
   48.6880   56.5010   27.6980 C   0  0  0  0  0  0  0  0  0  0  0  0
   47.4110   56.8510   26.9950 C   0  0  0  0  0  0  0  0  0  0  0  0
   47.0690   56.2240   26.0050 O   0  0  0  0  0  0  0  0  0  0  0  0
   48.6410   55.0310   28.1410 C   0  0  0  0  0  0  0  0  0  0  0  0
   49.7500   54.7860   29.1600 C   0  0  0  0  0  0  0  0  0  0  0  0
   49.5660   53.2190   30.0700 S   0  0  0  0  0  0  0  0  0  0  0  0
   48.5900   52.1580   28.9600 C   0  0  0  0  0  0  0  0  0  0  0  0
   48.3460   53.3910   31.4220 C   0  0  0  0  0  0  0  0  0  0  0  0
   49.2010   53.7580   32.6100 C   0  0  0  0  0  0  0  0  0  0  0  0
   49.3790   55.1300   32.4810 O   0  0  0  0  0  0  0  0  0  0  0  0
   48.6790   53.6570   34.0440 C   0  0  0  0  0  0  0  0  0  0  0  0
   48.9370   52.4100   34.6230 O   0  0  0  0  0  0  0  0  0  0  0  0
   49.5180   54.8620   34.6880 C   0  0  0  0  0  0  0  0  0  0  0  0
   50.9390   54.7570   34.5170 O   0  0  0  0  0  0  0  0  0  0  0  0
   48.8360   55.7780   33.6980 C   0  0  0  0  0  0  0  0  0  0  0  0
   46.7100   57.7530   27.4260 O   0  0  0  0  0  0  0  0  0  0  0  0
   45.9210   59.1050   31.3100 N   0  0  0  0  0  0  0  0  0  0  0  0
   45.7260   57.8190   31.6060 C   0  0  0  0  0  0  0  0  0  0  0  0
   46.6170   57.1150   32.3030 N   0  0  0  0  0  0  0  0  0  0  0  0
   47.8070   57.6370   32.6290 C   0  0  0  0  0  0  0  0  0  0  0  0
   48.0820   58.9950   32.2700 C   0  0  0  0  0  0  0  0  0  0  0  0
   47.0630   59.7190   31.5920 C   0  0  0  0  0  0  0  0  0  0  0  0
   47.2390   61.0250   31.2300 N   0  0  0  0  0  0  0  0  0  0  0  0
   49.3280   59.2740   32.7000 N   0  0  0  0  0  0  0  0  0  0  0  0
   49.8380   58.2110   33.2820 C   0  0  0  0  0  0  0  0  0  0  0  0
   48.9470   57.1660   33.2880 N   0  0  0  0  0  0  0  0  0  0  0  0
  1  2  1  0  0  0  0
  2  3  1  0  0  0  0
  2  5  1  0  0  0  0
  3  4  4  0  0  0  0
  3 17  4  0  0  0  0
  5  6  1  0  0  0  0
  6  7  1  0  0  0  0
  7  8  1  0  0  0  0
  7  9  1  0  0  0  0
  9 10  1  0  0  0  0
 10 11  1  0  0  0  0
 10 12  1  0  0  0  0
 11 16  1  0  0  0  0
 12 13  1  0  0  0  0
 12 14  1  0  0  0  0
 14 15  1  0  0  0  0
 14 16  1  0  0  0  0
 16 27  1  0  0  0  0
 18 19  4  0  0  0  0
 19 20  4  0  0  0  0
 20 21  4  0  0  0  0
 21 22  4  0  0  0  0
 22 23  4  0  0  0  0
 18 23  4  0  0  0  0
 23 24  1  0  0  0  0
 22 25  4  0  0  0  0
 25 26  4  0  0  0  0
 21 27  4  0  0  0  0
 26 27  4  0  0  0  0
M  END
$$$$
