ligand
 OpenBabel11021811483D
libRbt.so/2013.1/901 2013/11/27
 27 29  0  0  0  0  0  0  0  0999 V2000
   49.1952   57.6169   29.6256 N   0  0  0  0  0  0  0  0  0  0  0  0
   49.3323   56.7048   28.4825 C   0  0  2  0  0  0  0  0  0  0  0  0
   48.3758   57.1375   27.4123 C   0  0  0  0  0  0  0  0  0  0  0  0
   47.6472   58.0990   27.5989 O   0  0  0  0  0  0  0  0  0  0  0  0
   49.0068   55.2650   28.9070 C   0  0  0  0  0  0  0  0  0  0  0  0
   50.0945   54.7716   29.8566 C   0  0  0  0  0  0  0  0  0  0  0  0
   49.7696   53.1117   30.5323 S   0  0  2  0  0  0  0  0  0  0  0  0
   49.1289   52.1607   29.1196 C   0  0  0  0  0  0  0  0  0  0  0  0
   48.2595   53.1135   31.5645 C   0  0  0  0  0  0  0  0  0  0  0  0
   48.7899   53.4063   32.9466 C   0  0  1  0  0  0  0  0  0  0  0  0
   48.9996   54.7799   32.9386 O   0  0  0  0  0  0  0  0  0  0  0  0
   47.9239   53.2426   34.1965 C   0  0  1  0  0  0  0  0  0  0  0  0
   48.0236   51.9641   34.7554 O   0  0  0  0  0  0  0  0  0  0  0  0
   48.5786   54.3998   35.0927 C   0  0  1  0  0  0  0  0  0  0  0  0
   49.9965   54.2797   35.2782 O   0  0  0  0  0  0  0  0  0  0  0  0
   48.1706   55.3753   34.0128 C   0  0  1  0  0  0  0  0  0  0  0  0
   48.3411   56.5345   26.3512 O   0  0  0  0  0  0  0  0  0  0  0  0
   45.6390   59.0215   31.6538 N   0  0  0  0  0  0  0  0  0  0  0  0
   45.3546   57.7311   31.8369 C   0  0  0  0  0  0  0  0  0  0  0  0
   46.1471   56.9306   32.5485 N   0  0  0  0  0  0  0  0  0  0  0  0
   47.3307   57.3600   33.0062 C   0  0  0  0  0  0  0  0  0  0  0  0
   47.7037   58.7219   32.7722 C   0  0  0  0  0  0  0  0  0  0  0  0
   46.7832   59.5483   32.0708 C   0  0  0  0  0  0  0  0  0  0  0  0
   47.0552   60.8643   31.8220 N   0  0  0  0  0  0  0  0  0  0  0  0
   48.9219   58.8988   33.3197 N   0  0  0  0  0  0  0  0  0  0  0  0
   49.3266   57.7705   33.8600 C   0  0  0  0  0  0  0  0  0  0  0  0
   48.3861   56.7800   33.7172 N   0  0  0  0  0  0  0  0  0  0  0  0
  2  1  1  1  0  0  0
  2  3  1  0  0  0  0
  2  5  1  0  0  0  0
  3  4  1  0  0  0  0
  3 17  1  0  0  0  0
  5  6  1  0  0  0  0
  7  6  1  6  0  0  0
  7  8  1  0  0  0  0
  7  9  1  0  0  0  0
 10  9  1  6  0  0  0
 10 11  1  0  0  0  0
 10 12  1  0  0  0  0
 11 16  1  0  0  0  0
 12 13  1  1  0  0  0
 12 14  1  0  0  0  0
 14 15  1  6  0  0  0
 14 16  1  0  0  0  0
 16 27  1  1  0  0  0
 18 19  2  0  0  0  0
 18 23  1  0  0  0  0
 19 20  1  0  0  0  0
 20 21  2  0  0  0  0
 21 22  1  0  0  0  0
 21 27  1  0  0  0  0
 22 23  2  0  0  0  0
 22 25  1  0  0  0  0
 23 24  1  0  0  0  0
 25 26  2  0  0  0  0
 26 27  1  0  0  0  0
M  END
>  <CHROM.1>
-0.80059688,-68.19644428,175.91817931,41.47346076,-91.22574023,78.94871734
100.03028939,48.33462251,55.91736914,31.58896030,-2.14467734,-1.23249038
1.88488604

>  <Name>
ligand

>  <RI>
0

>  <Rbt.Current_Directory>
/home/itssahil/PROJECTS/Mol_Feturizer/New_Systems/rnas/3IQN

>  <Rbt.Executable>
rbdock ($Id: //depot/dev/client3/rdock/2013.1/src/exe/rbdock.cxx#4 $)

>  <Rbt.Library>
libRbt.so (2013.1, Build901 2013/11/27)

>  <Rbt.Parameter_File>
/export/apps/rDock/src/rDock_2013.1_src/data/scripts/dock_solv.prm

>  <Rbt.Receptor>
prm/pocket_docking_2.prm

>  <SCORE>
-20.421

>  <SCORE.INTER>
-17.3958

>  <SCORE.INTER.CONST>
1

>  <SCORE.INTER.POLAR>
0

>  <SCORE.INTER.ROT>
7

>  <SCORE.INTER.SOLV>
20.934

>  <SCORE.INTER.VDW>
-26.8419

>  <SCORE.INTER.norm>
-0.64429

>  <SCORE.INTRA>
-3.04204

>  <SCORE.INTRA.DIHEDRAL>
-3.39851

>  <SCORE.INTRA.DIHEDRAL.0>
10.0365

>  <SCORE.INTRA.POLAR>
0

>  <SCORE.INTRA.POLAR.0>
0

>  <SCORE.INTRA.REPUL>
0

>  <SCORE.INTRA.REPUL.0>
0

>  <SCORE.INTRA.SOLV>
-0.111026

>  <SCORE.INTRA.SOLV.lig_0>
-48.6728

>  <SCORE.INTRA.VDW>
-1.28727

>  <SCORE.INTRA.VDW.0>
-1.10662

>  <SCORE.INTRA.norm>
-0.112668

>  <SCORE.RESTR>
0.0169001

>  <SCORE.RESTR.CAVITY>
0.0169001

>  <SCORE.RESTR.norm>
0.000625929

>  <SCORE.SYSTEM>
0

>  <SCORE.SYSTEM.CONST>
0

>  <SCORE.SYSTEM.DIHEDRAL>
0

>  <SCORE.SYSTEM.SOLV>
0

>  <SCORE.SYSTEM.norm>
0

>  <SCORE.heavy>
27

>  <SCORE.norm>
-0.756333

>  <RMSD>
0.835

$$$$
ligand
 OpenBabel11021811483D
libRbt.so/2013.1/901 2013/11/27
 27 29  0  0  0  0  0  0  0  0999 V2000
   49.0373   57.8755   29.0859 N   0  0  0  0  0  0  0  0  0  0  0  0
   49.1115   56.8102   28.0775 C   0  0  2  0  0  0  0  0  0  0  0  0
   47.7323   56.5644   27.5438 C   0  0  0  0  0  0  0  0  0  0  0  0
   46.7814   57.1709   28.0108 O   0  0  0  0  0  0  0  0  0  0  0  0
   49.6541   55.5178   28.7057 C   0  0  0  0  0  0  0  0  0  0  0  0
   48.8475   55.2022   29.9619 C   0  0  0  0  0  0  0  0  0  0  0  0
   49.0883   53.5027   30.5709 S   0  0  2  0  0  0  0  0  0  0  0  0
   48.4502   52.4442   29.2357 C   0  0  0  0  0  0  0  0  0  0  0  0
   47.8536   53.0909   31.8562 C   0  0  0  0  0  0  0  0  0  0  0  0
   48.5761   53.4141   33.1410 C   0  0  1  0  0  0  0  0  0  0  0  0
   48.8207   54.7790   33.0512 O   0  0  0  0  0  0  0  0  0  0  0  0
   47.8852   53.3224   34.5023 C   0  0  1  0  0  0  0  0  0  0  0  0
   48.0250   52.0615   35.0918 O   0  0  0  0  0  0  0  0  0  0  0  0
   48.6881   54.4880   35.2556 C   0  0  1  0  0  0  0  0  0  0  0  0
   50.1143   54.3280   35.2515 O   0  0  0  0  0  0  0  0  0  0  0  0
   48.1634   55.4382   34.2040 C   0  0  1  0  0  0  0  0  0  0  0  0
   47.5686   55.7687   26.6323 O   0  0  0  0  0  0  0  0  0  0  0  0
   45.6459   58.9193   31.5938 N   0  0  0  0  0  0  0  0  0  0  0  0
   45.3662   57.6404   31.8502 C   0  0  0  0  0  0  0  0  0  0  0  0
   46.1528   56.8894   32.6200 N   0  0  0  0  0  0  0  0  0  0  0  0
   47.3271   57.3532   33.0679 C   0  0  0  0  0  0  0  0  0  0  0  0
   47.6957   58.7010   32.7576 C   0  0  0  0  0  0  0  0  0  0  0  0
   46.7809   59.4777   31.9946 C   0  0  0  0  0  0  0  0  0  0  0  0
   47.0491   60.7781   31.6709 N   0  0  0  0  0  0  0  0  0  0  0  0
   48.9048   58.9185   33.3108 N   0  0  0  0  0  0  0  0  0  0  0  0
   49.3079   57.8274   33.9237 C   0  0  0  0  0  0  0  0  0  0  0  0
   48.3752   56.8240   33.8275 N   0  0  0  0  0  0  0  0  0  0  0  0
  2  1  1  1  0  0  0
  2  3  1  0  0  0  0
  2  5  1  0  0  0  0
  3  4  1  0  0  0  0
  3 17  1  0  0  0  0
  5  6  1  0  0  0  0
  7  6  1  6  0  0  0
  7  8  1  0  0  0  0
  7  9  1  0  0  0  0
 10  9  1  6  0  0  0
 10 11  1  0  0  0  0
 10 12  1  0  0  0  0
 11 16  1  0  0  0  0
 12 13  1  1  0  0  0
 12 14  1  0  0  0  0
 14 15  1  6  0  0  0
 14 16  1  0  0  0  0
 16 27  1  1  0  0  0
 18 19  2  0  0  0  0
 18 23  1  0  0  0  0
 19 20  1  0  0  0  0
 20 21  2  0  0  0  0
 21 22  1  0  0  0  0
 21 27  1  0  0  0  0
 22 23  2  0  0  0  0
 22 25  1  0  0  0  0
 23 24  1  0  0  0  0
 25 26  2  0  0  0  0
 26 27  1  0  0  0  0
M  END
>  <CHROM.1>
-3.42202847,51.31857416,165.34307697,-63.33408874,-94.24708625,62.28514145
91.01789454,48.10756063,55.91374911,31.64911812,-2.19025488,-1.30633018,1.54509526

>  <Name>
ligand

>  <RI>
0

>  <Rbt.Current_Directory>
/home/itssahil/PROJECTS/Mol_Feturizer/New_Systems/rnas/3IQN

>  <Rbt.Executable>
rbdock ($Id: //depot/dev/client3/rdock/2013.1/src/exe/rbdock.cxx#4 $)

>  <Rbt.Library>
libRbt.so (2013.1, Build901 2013/11/27)

>  <Rbt.Parameter_File>
/export/apps/rDock/src/rDock_2013.1_src/data/scripts/dock_solv.prm

>  <Rbt.Receptor>
prm/pocket_docking_2.prm

>  <SCORE>
-17.6943

>  <SCORE.INTER>
-14.5966

>  <SCORE.INTER.CONST>
1

>  <SCORE.INTER.POLAR>
0

>  <SCORE.INTER.ROT>
7

>  <SCORE.INTER.SOLV>
21.2108

>  <SCORE.INTER.VDW>
-25.068

>  <SCORE.INTER.norm>
-0.540615

>  <SCORE.INTRA>
-3.09774

>  <SCORE.INTRA.DIHEDRAL>
-3.77809

>  <SCORE.INTRA.DIHEDRAL.0>
10.0365

>  <SCORE.INTRA.POLAR>
0

>  <SCORE.INTRA.POLAR.0>
0

>  <SCORE.INTRA.REPUL>
0

>  <SCORE.INTRA.REPUL.0>
0

>  <SCORE.INTRA.SOLV>
-0.226493

>  <SCORE.INTRA.SOLV.lig_0>
-48.6728

>  <SCORE.INTRA.VDW>
-1.09545

>  <SCORE.INTRA.VDW.0>
-1.10662

>  <SCORE.INTRA.norm>
-0.114731

>  <SCORE.RESTR>
0

>  <SCORE.RESTR.CAVITY>
0

>  <SCORE.RESTR.norm>
0

>  <SCORE.SYSTEM>
0

>  <SCORE.SYSTEM.CONST>
0

>  <SCORE.SYSTEM.DIHEDRAL>
0

>  <SCORE.SYSTEM.SOLV>
0

>  <SCORE.SYSTEM.norm>
0

>  <SCORE.heavy>
27

>  <SCORE.norm>
-0.655346

>  <RMSD>
0.837

$$$$
ligand
 OpenBabel11021811483D
libRbt.so/2013.1/901 2013/11/27
 27 29  0  0  0  0  0  0  0  0999 V2000
   48.8326   57.7976   29.1653 N   0  0  0  0  0  0  0  0  0  0  0  0
   49.2702   56.7239   28.2637 C   0  0  2  0  0  0  0  0  0  0  0  0
   48.5303   56.8613   26.9671 C   0  0  0  0  0  0  0  0  0  0  0  0
   48.6977   56.0396   26.0801 O   0  0  0  0  0  0  0  0  0  0  0  0
   48.9666   55.3511   28.8822 C   0  0  0  0  0  0  0  0  0  0  0  0
   50.0524   55.0166   29.9008 C   0  0  0  0  0  0  0  0  0  0  0  0
   49.8991   53.3425   30.6015 S   0  0  2  0  0  0  0  0  0  0  0  0
   49.3979   52.3027   29.1950 C   0  0  0  0  0  0  0  0  0  0  0  0
   48.3765   53.1936   31.6042 C   0  0  0  0  0  0  0  0  0  0  0  0
   48.8559   53.4992   33.0020 C   0  0  1  0  0  0  0  0  0  0  0  0
   49.0455   54.8757   32.9954 O   0  0  0  0  0  0  0  0  0  0  0  0
   47.9510   53.3272   34.2229 C   0  0  1  0  0  0  0  0  0  0  0  0
   48.0506   52.0523   34.7900 O   0  0  0  0  0  0  0  0  0  0  0  0
   48.5581   54.4971   35.1358 C   0  0  1  0  0  0  0  0  0  0  0  0
   49.9707   54.3987   35.3691 O   0  0  0  0  0  0  0  0  0  0  0  0
   48.1723   55.4626   34.0389 C   0  0  1  0  0  0  0  0  0  0  0  0
   47.7503   57.7875   26.8102 O   0  0  0  0  0  0  0  0  0  0  0  0
   45.7147   59.0388   31.5012 N   0  0  0  0  0  0  0  0  0  0  0  0
   45.4458   57.7442   31.6777 C   0  0  0  0  0  0  0  0  0  0  0  0
   46.2099   56.9653   32.4425 N   0  0  0  0  0  0  0  0  0  0  0  0
   47.3549   57.4223   32.9670 C   0  0  0  0  0  0  0  0  0  0  0  0
   47.7138   58.7899   32.7443 C   0  0  0  0  0  0  0  0  0  0  0  0
   46.8209   59.5921   31.9818 C   0  0  0  0  0  0  0  0  0  0  0  0
   47.0808   60.9115   31.7388 N   0  0  0  0  0  0  0  0  0  0  0  0
   48.8930   58.9958   33.3627 N   0  0  0  0  0  0  0  0  0  0  0  0
   49.2869   57.8799   33.9357 C   0  0  0  0  0  0  0  0  0  0  0  0
   48.3769   56.8693   33.7450 N   0  0  0  0  0  0  0  0  0  0  0  0
  2  1  1  1  0  0  0
  2  3  1  0  0  0  0
  2  5  1  0  0  0  0
  3  4  1  0  0  0  0
  3 17  1  0  0  0  0
  5  6  1  0  0  0  0
  7  6  1  6  0  0  0
  7  8  1  0  0  0  0
  7  9  1  0  0  0  0
 10  9  1  6  0  0  0
 10 11  1  0  0  0  0
 10 12  1  0  0  0  0
 11 16  1  0  0  0  0
 12 13  1  1  0  0  0
 12 14  1  0  0  0  0
 14 15  1  6  0  0  0
 14 16  1  0  0  0  0
 16 27  1  1  0  0  0
 18 19  2  0  0  0  0
 18 23  1  0  0  0  0
 19 20  1  0  0  0  0
 20 21  2  0  0  0  0
 21 22  1  0  0  0  0
 21 27  1  0  0  0  0
 22 23  2  0  0  0  0
 22 25  1  0  0  0  0
 23 24  1  0  0  0  0
 25 26  2  0  0  0  0
 26 27  1  0  0  0  0
M  END
>  <CHROM.1>
-177.16690498,-80.26240445,-174.67512213,39.32601242,-93.95253990,74.59547801
98.44549473,48.37811828,55.96599523,31.51413563,1.85231849,1.22146857,-1.28533450

>  <Name>
ligand

>  <RI>
0

>  <Rbt.Current_Directory>
/home/itssahil/PROJECTS/Mol_Feturizer/New_Systems/rnas/3IQN

>  <Rbt.Executable>
rbdock ($Id: //depot/dev/client3/rdock/2013.1/src/exe/rbdock.cxx#4 $)

>  <Rbt.Library>
libRbt.so (2013.1, Build901 2013/11/27)

>  <Rbt.Parameter_File>
/export/apps/rDock/src/rDock_2013.1_src/data/scripts/dock_solv.prm

>  <Rbt.Receptor>
prm/pocket_docking_2.prm

>  <SCORE>
-19.692

>  <SCORE.INTER>
-17.2723

>  <SCORE.INTER.CONST>
1

>  <SCORE.INTER.POLAR>
0

>  <SCORE.INTER.ROT>
7

>  <SCORE.INTER.SOLV>
21.842

>  <SCORE.INTER.VDW>
-27.0622

>  <SCORE.INTER.norm>
-0.639714

>  <SCORE.INTRA>
-2.41971

>  <SCORE.INTRA.DIHEDRAL>
-2.09579

>  <SCORE.INTRA.DIHEDRAL.0>
10.0365

>  <SCORE.INTRA.POLAR>
0

>  <SCORE.INTRA.POLAR.0>
0

>  <SCORE.INTRA.REPUL>
0

>  <SCORE.INTRA.REPUL.0>
0

>  <SCORE.INTRA.SOLV>
-0.437506

>  <SCORE.INTRA.SOLV.lig_0>
-48.6728

>  <SCORE.INTRA.VDW>
-1.15306

>  <SCORE.INTRA.VDW.0>
-1.10662

>  <SCORE.INTRA.norm>
-0.0896189

>  <SCORE.RESTR>
0

>  <SCORE.RESTR.CAVITY>
0

>  <SCORE.RESTR.norm>
0

>  <SCORE.SYSTEM>
0

>  <SCORE.SYSTEM.CONST>
0

>  <SCORE.SYSTEM.DIHEDRAL>
0

>  <SCORE.SYSTEM.SOLV>
0

>  <SCORE.SYSTEM.norm>
0

>  <SCORE.heavy>
27

>  <SCORE.norm>
-0.729333

>  <RMSD>
0.838

$$$$
ligand
 OpenBabel11021811483D
libRbt.so/2013.1/901 2013/11/27
 27 29  0  0  0  0  0  0  0  0999 V2000
   49.2306   57.6366   29.3735 N   0  0  0  0  0  0  0  0  0  0  0  0
   49.2163   56.7779   28.1820 C   0  0  2  0  0  0  0  0  0  0  0  0
   47.9145   56.9801   27.4665 C   0  0  0  0  0  0  0  0  0  0  0  0
   47.8653   56.8787   26.2509 O   0  0  0  0  0  0  0  0  0  0  0  0
   49.3532   55.3023   28.5861 C   0  0  0  0  0  0  0  0  0  0  0  0
   48.3895   55.0124   29.7331 C   0  0  0  0  0  0  0  0  0  0  0  0
   48.6067   53.3576   30.4626 S   0  0  2  0  0  0  0  0  0  0  0  0
   47.8107   52.2285   29.2786 C   0  0  0  0  0  0  0  0  0  0  0  0
   47.4697   53.1146   31.8747 C   0  0  0  0  0  0  0  0  0  0  0  0
   48.3436   53.4008   33.0711 C   0  0  1  0  0  0  0  0  0  0  0  0
   48.6365   54.7540   32.9534 O   0  0  0  0  0  0  0  0  0  0  0  0
   47.8046   53.3340   34.5007 C   0  0  1  0  0  0  0  0  0  0  0  0
   47.9533   52.0658   35.0722 O   0  0  0  0  0  0  0  0  0  0  0  0
   48.7365   54.4602   35.1593 C   0  0  1  0  0  0  0  0  0  0  0  0
   50.1450   54.2380   34.9970 O   0  0  0  0  0  0  0  0  0  0  0  0
   48.1406   55.4367   34.1715 C   0  0  1  0  0  0  0  0  0  0  0  0
   46.9047   57.2305   28.1055 O   0  0  0  0  0  0  0  0  0  0  0  0
   45.6365   58.9291   31.5636 N   0  0  0  0  0  0  0  0  0  0  0  0
   45.3387   57.6590   31.8424 C   0  0  0  0  0  0  0  0  0  0  0  0
   46.1263   56.9037   32.6069 N   0  0  0  0  0  0  0  0  0  0  0  0
   47.3173   57.3518   33.0261 C   0  0  0  0  0  0  0  0  0  0  0  0
   47.7040   58.6885   32.6909 C   0  0  0  0  0  0  0  0  0  0  0  0
   46.7889   59.4718   31.9352 C   0  0  0  0  0  0  0  0  0  0  0  0
   47.0741   60.7628   31.5892 N   0  0  0  0  0  0  0  0  0  0  0  0
   48.9273   58.8910   33.2180 N   0  0  0  0  0  0  0  0  0  0  0  0
   49.3224   57.8007   33.8376 C   0  0  0  0  0  0  0  0  0  0  0  0
   48.3701   56.8134   33.7726 N   0  0  0  0  0  0  0  0  0  0  0  0
  2  1  1  1  0  0  0
  2  3  1  0  0  0  0
  2  5  1  0  0  0  0
  3  4  1  0  0  0  0
  3 17  1  0  0  0  0
  5  6  1  0  0  0  0
  7  6  1  6  0  0  0
  7  8  1  0  0  0  0
  7  9  1  0  0  0  0
 10  9  1  6  0  0  0
 10 11  1  0  0  0  0
 10 12  1  0  0  0  0
 11 16  1  0  0  0  0
 12 13  1  1  0  0  0
 12 14  1  0  0  0  0
 14 15  1  6  0  0  0
 14 16  1  0  0  0  0
 16 27  1  1  0  0  0
 18 19  2  0  0  0  0
 18 23  1  0  0  0  0
 19 20  1  0  0  0  0
 20 21  2  0  0  0  0
 21 22  1  0  0  0  0
 21 27  1  0  0  0  0
 22 23  2  0  0  0  0
 22 25  1  0  0  0  0
 23 24  1  0  0  0  0
 25 26  2  0  0  0  0
 26 27  1  0  0  0  0
M  END
>  <CHROM.1>
148.21499451,46.99830340,-172.18385988,-77.31417253,-98.43818456,66.29612628
85.47939678,48.01678442,55.92342396,31.58994004,-2.22841417,-1.36916866,1.55603796

>  <Name>
ligand

>  <RI>
0

>  <Rbt.Current_Directory>
/home/itssahil/PROJECTS/Mol_Feturizer/New_Systems/rnas/3IQN

>  <Rbt.Executable>
rbdock ($Id: //depot/dev/client3/rdock/2013.1/src/exe/rbdock.cxx#4 $)

>  <Rbt.Library>
libRbt.so (2013.1, Build901 2013/11/27)

>  <Rbt.Parameter_File>
/export/apps/rDock/src/rDock_2013.1_src/data/scripts/dock_solv.prm

>  <Rbt.Receptor>
prm/pocket_docking_2.prm

>  <SCORE>
-17.8626

>  <SCORE.INTER>
-14.7023

>  <SCORE.INTER.CONST>
1

>  <SCORE.INTER.POLAR>
0

>  <SCORE.INTER.ROT>
7

>  <SCORE.INTER.SOLV>
20.0394

>  <SCORE.INTER.VDW>
-24.748

>  <SCORE.INTER.norm>
-0.544531

>  <SCORE.INTRA>
-3.18749

>  <SCORE.INTRA.DIHEDRAL>
-3.13333

>  <SCORE.INTRA.DIHEDRAL.0>
10.0365

>  <SCORE.INTRA.POLAR>
0

>  <SCORE.INTRA.POLAR.0>
0

>  <SCORE.INTRA.REPUL>
0

>  <SCORE.INTRA.REPUL.0>
0

>  <SCORE.INTRA.SOLV>
-0.0521001

>  <SCORE.INTRA.SOLV.lig_0>
-48.6728

>  <SCORE.INTRA.VDW>
-1.59477

>  <SCORE.INTRA.VDW.0>
-1.10662

>  <SCORE.INTRA.norm>
-0.118055

>  <SCORE.RESTR>
0.0272509

>  <SCORE.RESTR.CAVITY>
0.0272509

>  <SCORE.RESTR.norm>
0.00100929

>  <SCORE.SYSTEM>
0

>  <SCORE.SYSTEM.CONST>
0

>  <SCORE.SYSTEM.DIHEDRAL>
0

>  <SCORE.SYSTEM.SOLV>
0

>  <SCORE.SYSTEM.norm>
0

>  <SCORE.heavy>
27

>  <SCORE.norm>
-0.661577

>  <RMSD>
0.878

$$$$
ligand
 OpenBabel11021811483D
libRbt.so/2013.1/901 2013/11/27
 27 29  0  0  0  0  0  0  0  0999 V2000
   49.2648   57.5110   29.5457 N   0  0  0  0  0  0  0  0  0  0  0  0
   49.0029   57.1849   28.1377 C   0  0  2  0  0  0  0  0  0  0  0  0
   47.6080   57.6189   27.8012 C   0  0  0  0  0  0  0  0  0  0  0  0
   47.2968   57.8215   26.6383 O   0  0  0  0  0  0  0  0  0  0  0  0
   49.1370   55.6723   27.9066 C   0  0  0  0  0  0  0  0  0  0  0  0
   48.2655   54.9379   28.9212 C   0  0  0  0  0  0  0  0  0  0  0  0
   49.2118   54.2009   30.2919 S   0  0  2  0  0  0  0  0  0  0  0  0
   50.0208   52.7458   29.5580 C   0  0  0  0  0  0  0  0  0  0  0  0
   48.1005   53.3336   31.4576 C   0  0  0  0  0  0  0  0  0  0  0  0
   48.7466   53.5852   32.7979 C   0  0  1  0  0  0  0  0  0  0  0  0
   48.9369   54.9614   32.8227 O   0  0  0  0  0  0  0  0  0  0  0  0
   47.9961   53.3626   34.1118 C   0  0  1  0  0  0  0  0  0  0  0  0
   48.1612   52.0666   34.6118 O   0  0  0  0  0  0  0  0  0  0  0  0
   48.7120   54.4972   34.9897 C   0  0  1  0  0  0  0  0  0  0  0  0
   50.1423   54.3936   35.0459 O   0  0  0  0  0  0  0  0  0  0  0  0
   48.1980   55.5043   33.9868 C   0  0  1  0  0  0  0  0  0  0  0  0
   46.7839   57.7529   28.6922 O   0  0  0  0  0  0  0  0  0  0  0  0
   45.6836   59.0659   31.4844 N   0  0  0  0  0  0  0  0  0  0  0  0
   45.4478   57.7610   31.6292 C   0  0  0  0  0  0  0  0  0  0  0  0
   46.2207   56.9869   32.3899 N   0  0  0  0  0  0  0  0  0  0  0  0
   47.3441   57.4635   32.9429 C   0  0  0  0  0  0  0  0  0  0  0  0
   47.6686   58.8449   32.7551 C   0  0  0  0  0  0  0  0  0  0  0  0
   46.7662   59.6386   31.9949 C   0  0  0  0  0  0  0  0  0  0  0  0
   46.9936   60.9696   31.7841 N   0  0  0  0  0  0  0  0  0  0  0  0
   48.8316   59.0695   33.3971 N   0  0  0  0  0  0  0  0  0  0  0  0
   49.2470   57.9527   33.9530 C   0  0  0  0  0  0  0  0  0  0  0  0
   48.3684   56.9220   33.7260 N   0  0  0  0  0  0  0  0  0  0  0  0
  2  1  1  1  0  0  0
  2  3  1  0  0  0  0
  2  5  1  0  0  0  0
  3  4  1  0  0  0  0
  3 17  1  0  0  0  0
  5  6  1  0  0  0  0
  7  6  1  6  0  0  0
  7  8  1  0  0  0  0
  7  9  1  0  0  0  0
 10  9  1  6  0  0  0
 10 11  1  0  0  0  0
 10 12  1  0  0  0  0
 11 16  1  0  0  0  0
 12 13  1  1  0  0  0
 12 14  1  0  0  0  0
 14 15  1  6  0  0  0
 14 16  1  0  0  0  0
 16 27  1  1  0  0  0
 18 19  2  0  0  0  0
 18 23  1  0  0  0  0
 19 20  1  0  0  0  0
 20 21  2  0  0  0  0
 21 22  1  0  0  0  0
 21 27  1  0  0  0  0
 22 23  2  0  0  0  0
 22 25  1  0  0  0  0
 23 24  1  0  0  0  0
 25 26  2  0  0  0  0
 26 27  1  0  0  0  0
M  END
>  <CHROM.1>
158.30149587,52.40630525,-103.43153112,-74.49774501,-144.68160316,50.94345752
90.32204059,48.15887388,56.19216518,31.51626844,-2.30334104,-1.23223442,1.64283693

>  <Name>
ligand

>  <RI>
0

>  <Rbt.Current_Directory>
/home/itssahil/PROJECTS/Mol_Feturizer/New_Systems/rnas/3IQN

>  <Rbt.Executable>
rbdock ($Id: //depot/dev/client3/rdock/2013.1/src/exe/rbdock.cxx#4 $)

>  <Rbt.Library>
libRbt.so (2013.1, Build901 2013/11/27)

>  <Rbt.Parameter_File>
/export/apps/rDock/src/rDock_2013.1_src/data/scripts/dock_solv.prm

>  <Rbt.Receptor>
prm/pocket_docking_2.prm

>  <SCORE>
-13.4981

>  <SCORE.INTER>
-14.1133

>  <SCORE.INTER.CONST>
1

>  <SCORE.INTER.POLAR>
0

>  <SCORE.INTER.ROT>
7

>  <SCORE.INTER.SOLV>
20.759

>  <SCORE.INTER.VDW>
-24.5952

>  <SCORE.INTER.norm>
-0.522716

>  <SCORE.INTRA>
0.615217

>  <SCORE.INTRA.DIHEDRAL>
1.59258

>  <SCORE.INTRA.DIHEDRAL.0>
10.0365

>  <SCORE.INTRA.POLAR>
0

>  <SCORE.INTRA.POLAR.0>
0

>  <SCORE.INTRA.REPUL>
0.0802339

>  <SCORE.INTRA.REPUL.0>
0

>  <SCORE.INTRA.SOLV>
0.834335

>  <SCORE.INTRA.SOLV.lig_0>
-48.6728

>  <SCORE.INTRA.VDW>
-0.999411

>  <SCORE.INTRA.VDW.0>
-1.10662

>  <SCORE.INTRA.norm>
0.0227858

>  <SCORE.RESTR>
0

>  <SCORE.RESTR.CAVITY>
0

>  <SCORE.RESTR.norm>
0

>  <SCORE.SYSTEM>
0

>  <SCORE.SYSTEM.CONST>
0

>  <SCORE.SYSTEM.DIHEDRAL>
0

>  <SCORE.SYSTEM.SOLV>
0

>  <SCORE.SYSTEM.norm>
0

>  <SCORE.heavy>
27

>  <SCORE.norm>
-0.49993

>  <RMSD>
0.915

$$$$
ligand
 OpenBabel11021811483D
libRbt.so/2013.1/901 2013/11/27
 27 29  0  0  0  0  0  0  0  0999 V2000
   49.0947   57.2165   29.1521 N   0  0  0  0  0  0  0  0  0  0  0  0
   49.2466   56.2078   28.0953 C   0  0  2  0  0  0  0  0  0  0  0  0
   47.8854   55.7031   27.7213 C   0  0  0  0  0  0  0  0  0  0  0  0
   47.5942   54.5339   27.9170 O   0  0  0  0  0  0  0  0  0  0  0  0
   50.1061   55.0369   28.5951 C   0  0  0  0  0  0  0  0  0  0  0  0
   49.9713   54.9367   30.1117 C   0  0  0  0  0  0  0  0  0  0  0  0
   49.6894   53.2377   30.7045 S   0  0  2  0  0  0  0  0  0  0  0  0
   49.0065   52.3591   29.2650 C   0  0  0  0  0  0  0  0  0  0  0  0
   48.2190   53.1627   31.7899 C   0  0  0  0  0  0  0  0  0  0  0  0
   48.7805   53.4959   33.1504 C   0  0  1  0  0  0  0  0  0  0  0  0
   49.0037   54.8661   33.0921 O   0  0  0  0  0  0  0  0  0  0  0  0
   47.9387   53.3832   34.4223 C   0  0  1  0  0  0  0  0  0  0  0  0
   48.0369   52.1231   35.0217 O   0  0  0  0  0  0  0  0  0  0  0  0
   48.6231   54.5626   35.2658 C   0  0  1  0  0  0  0  0  0  0  0  0
   50.0433   54.4336   35.4267 O   0  0  0  0  0  0  0  0  0  0  0  0
   48.2029   55.5059   34.1622 C   0  0  1  0  0  0  0  0  0  0  0  0
   47.0677   56.4692   27.2362 O   0  0  0  0  0  0  0  0  0  0  0  0
   45.6662   59.0942   31.7213 N   0  0  0  0  0  0  0  0  0  0  0  0
   45.3730   57.8137   31.9531 C   0  0  0  0  0  0  0  0  0  0  0  0
   46.1698   57.0301   32.6786 N   0  0  0  0  0  0  0  0  0  0  0  0
   47.3647   57.4633   33.1022 C   0  0  0  0  0  0  0  0  0  0  0  0
   47.7463   58.8127   32.8157 C   0  0  0  0  0  0  0  0  0  0  0  0
   46.8219   59.6237   32.1015 C   0  0  0  0  0  0  0  0  0  0  0  0
   47.1019   60.9278   31.8035 N   0  0  0  0  0  0  0  0  0  0  0  0
   48.9750   58.9963   33.3370 N   0  0  0  0  0  0  0  0  0  0  0  0
   49.3782   57.8831   33.9088 C   0  0  0  0  0  0  0  0  0  0  0  0
   48.4264   56.8975   33.8153 N   0  0  0  0  0  0  0  0  0  0  0  0
  2  1  1  1  0  0  0
  2  3  1  0  0  0  0
  2  5  1  0  0  0  0
  3  4  1  0  0  0  0
  3 17  1  0  0  0  0
  5  6  1  0  0  0  0
  7  6  1  6  0  0  0
  7  8  1  0  0  0  0
  7  9  1  0  0  0  0
 10  9  1  6  0  0  0
 10 11  1  0  0  0  0
 10 12  1  0  0  0  0
 11 16  1  0  0  0  0
 12 13  1  1  0  0  0
 12 14  1  0  0  0  0
 14 15  1  6  0  0  0
 14 16  1  0  0  0  0
 16 27  1  1  0  0  0
 18 19  2  0  0  0  0
 18 23  1  0  0  0  0
 19 20  1  0  0  0  0
 20 21  2  0  0  0  0
 21 22  1  0  0  0  0
 21 27  1  0  0  0  0
 22 23  2  0  0  0  0
 22 25  1  0  0  0  0
 23 24  1  0  0  0  0
 25 26  2  0  0  0  0
 26 27  1  0  0  0  0
M  END
>  <CHROM.1>
-115.95300226,26.82783561,133.86305558,-22.28670154,-86.79961027,74.74013643
99.79897429,48.29892761,55.77527859,31.71292954,0.67391535,1.24587050,-1.54608430

>  <Name>
ligand

>  <RI>
0

>  <Rbt.Current_Directory>
/home/itssahil/PROJECTS/Mol_Feturizer/New_Systems/rnas/3IQN

>  <Rbt.Executable>
rbdock ($Id: //depot/dev/client3/rdock/2013.1/src/exe/rbdock.cxx#4 $)

>  <Rbt.Library>
libRbt.so (2013.1, Build901 2013/11/27)

>  <Rbt.Parameter_File>
/export/apps/rDock/src/rDock_2013.1_src/data/scripts/dock_solv.prm

>  <Rbt.Receptor>
prm/pocket_docking_2.prm

>  <SCORE>
-9.20692

>  <SCORE.INTER>
-15.1518

>  <SCORE.INTER.CONST>
1

>  <SCORE.INTER.POLAR>
0

>  <SCORE.INTER.ROT>
7

>  <SCORE.INTER.SOLV>
20.1362

>  <SCORE.INTER.VDW>
-25.0799

>  <SCORE.INTER.norm>
-0.561177

>  <SCORE.INTRA>
5.94487

>  <SCORE.INTRA.DIHEDRAL>
7.0064

>  <SCORE.INTRA.DIHEDRAL.0>
10.0365

>  <SCORE.INTRA.POLAR>
0

>  <SCORE.INTRA.POLAR.0>
0

>  <SCORE.INTRA.REPUL>
0

>  <SCORE.INTRA.REPUL.0>
0

>  <SCORE.INTRA.SOLV>
0.0363391

>  <SCORE.INTRA.SOLV.lig_0>
-48.6728

>  <SCORE.INTRA.VDW>
2.4235

>  <SCORE.INTRA.VDW.0>
-1.10662

>  <SCORE.INTRA.norm>
0.22018

>  <SCORE.RESTR>
0

>  <SCORE.RESTR.CAVITY>
0

>  <SCORE.RESTR.norm>
0

>  <SCORE.SYSTEM>
0

>  <SCORE.SYSTEM.CONST>
0

>  <SCORE.SYSTEM.DIHEDRAL>
0

>  <SCORE.SYSTEM.SOLV>
0

>  <SCORE.SYSTEM.norm>
0

>  <SCORE.heavy>
27

>  <SCORE.norm>
-0.340997

>  <RMSD>
0.993

$$$$
ligand
 OpenBabel11021811483D
libRbt.so/2013.1/901 2013/11/27
 27 29  0  0  0  0  0  0  0  0999 V2000
   49.1657   54.7557   27.2155 N   0  0  0  0  0  0  0  0  0  0  0  0
   48.2214   55.0173   28.3097 C   0  0  2  0  0  0  0  0  0  0  0  0
   47.1783   55.9753   27.8179 C   0  0  0  0  0  0  0  0  0  0  0  0
   46.7105   56.8089   28.5771 O   0  0  0  0  0  0  0  0  0  0  0  0
   48.9544   55.6327   29.5111 C   0  0  0  0  0  0  0  0  0  0  0  0
   50.1945   54.7971   29.8146 C   0  0  0  0  0  0  0  0  0  0  0  0
   49.8123   53.1562   30.5066 S   0  0  2  0  0  0  0  0  0  0  0  0
   49.1308   52.2169   29.1053 C   0  0  0  0  0  0  0  0  0  0  0  0
   48.3081   53.2223   31.5453 C   0  0  0  0  0  0  0  0  0  0  0  0
   48.8548   53.5128   32.9215 C   0  0  1  0  0  0  0  0  0  0  0  0
   49.0446   54.8892   32.9207 O   0  0  0  0  0  0  0  0  0  0  0  0
   48.0101   53.3274   34.1829 C   0  0  1  0  0  0  0  0  0  0  0  0
   48.1366   52.0464   34.7306 O   0  0  0  0  0  0  0  0  0  0  0  0
   48.6614   54.4873   35.0779 C   0  0  1  0  0  0  0  0  0  0  0  0
   50.0836   54.3865   35.2414 O   0  0  0  0  0  0  0  0  0  0  0  0
   48.2232   55.4647   34.0116 C   0  0  1  0  0  0  0  0  0  0  0  0
   46.8124   55.9271   26.6541 O   0  0  0  0  0  0  0  0  0  0  0  0
   45.6906   59.0461   31.5564 N   0  0  0  0  0  0  0  0  0  0  0  0
   45.4323   57.7489   31.7296 C   0  0  0  0  0  0  0  0  0  0  0  0
   46.2175   56.9686   32.4710 N   0  0  0  0  0  0  0  0  0  0  0  0
   47.3718   57.4277   32.9727 C   0  0  0  0  0  0  0  0  0  0  0  0
   47.7186   58.7987   32.7520 C   0  0  0  0  0  0  0  0  0  0  0  0
   46.8046   59.6017   32.0158 C   0  0  0  0  0  0  0  0  0  0  0  0
   47.0523   60.9242   31.7766 N   0  0  0  0  0  0  0  0  0  0  0  0
   48.9105   59.0064   33.3449 N   0  0  0  0  0  0  0  0  0  0  0  0
   49.3230   57.8885   33.9007 C   0  0  0  0  0  0  0  0  0  0  0  0
   48.4140   56.8745   33.7234 N   0  0  0  0  0  0  0  0  0  0  0  0
  2  1  1  6  0  0  0
  2  3  1  0  0  0  0
  2  5  1  0  0  0  0
  3  4  1  0  0  0  0
  3 17  1  0  0  0  0
  5  6  1  0  0  0  0
  7  6  1  6  0  0  0
  7  8  1  0  0  0  0
  7  9  1  0  0  0  0
 10  9  1  6  0  0  0
 10 11  1  0  0  0  0
 10 12  1  0  0  0  0
 11 16  1  0  0  0  0
 12 13  1  1  0  0  0
 12 14  1  0  0  0  0
 14 15  1  6  0  0  0
 14 16  1  0  0  0  0
 16 27  1  1  0  0  0
 18 19  2  0  0  0  0
 18 23  1  0  0  0  0
 19 20  1  0  0  0  0
 20 21  2  0  0  0  0
 21 22  1  0  0  0  0
 21 27  1  0  0  0  0
 22 23  2  0  0  0  0
 22 25  1  0  0  0  0
 23 24  1  0  0  0  0
 25 26  2  0  0  0  0
 26 27  1  0  0  0  0
M  END
>  <CHROM.1>
-144.99219614,-48.79597205,-70.26870882,71.96037107,-91.02684681,82.02401568
96.92157065,48.19479205,55.71518308,31.56130291,0.75596339,1.19187931,-1.81513104

>  <Name>
ligand

>  <RI>
0

>  <Rbt.Current_Directory>
/home/itssahil/PROJECTS/Mol_Feturizer/New_Systems/rnas/3IQN

>  <Rbt.Executable>
rbdock ($Id: //depot/dev/client3/rdock/2013.1/src/exe/rbdock.cxx#4 $)

>  <Rbt.Library>
libRbt.so (2013.1, Build901 2013/11/27)

>  <Rbt.Parameter_File>
/export/apps/rDock/src/rDock_2013.1_src/data/scripts/dock_solv.prm

>  <Rbt.Receptor>
prm/pocket_docking_2.prm

>  <SCORE>
-15.4077

>  <SCORE.INTER>
-14.85

>  <SCORE.INTER.CONST>
1

>  <SCORE.INTER.POLAR>
0

>  <SCORE.INTER.ROT>
7

>  <SCORE.INTER.SOLV>
17.7061

>  <SCORE.INTER.VDW>
-24.0687

>  <SCORE.INTER.norm>
-0.549999

>  <SCORE.INTRA>
-0.55776

>  <SCORE.INTRA.DIHEDRAL>
-1.802

>  <SCORE.INTRA.DIHEDRAL.0>
10.0365

>  <SCORE.INTRA.POLAR>
0

>  <SCORE.INTRA.POLAR.0>
0

>  <SCORE.INTRA.REPUL>
0

>  <SCORE.INTRA.REPUL.0>
0

>  <SCORE.INTRA.SOLV>
1.62897

>  <SCORE.INTRA.SOLV.lig_0>
-48.6728

>  <SCORE.INTRA.VDW>
-0.471243

>  <SCORE.INTRA.VDW.0>
-1.10662

>  <SCORE.INTRA.norm>
-0.0206578

>  <SCORE.RESTR>
0

>  <SCORE.RESTR.CAVITY>
0

>  <SCORE.RESTR.norm>
0

>  <SCORE.SYSTEM>
0

>  <SCORE.SYSTEM.CONST>
0

>  <SCORE.SYSTEM.DIHEDRAL>
0

>  <SCORE.SYSTEM.SOLV>
0

>  <SCORE.SYSTEM.norm>
0

>  <SCORE.heavy>
27

>  <SCORE.norm>
-0.570656

>  <RMSD>
1.039

$$$$
ligand
 OpenBabel11021811483D
libRbt.so/2013.1/901 2013/11/27
 27 29  0  0  0  0  0  0  0  0999 V2000
   46.3549   57.5423   28.6839 N   0  0  0  0  0  0  0  0  0  0  0  0
   47.4255   56.5806   28.3901 C   0  0  2  0  0  0  0  0  0  0  0  0
   47.9328   56.8433   27.0041 C   0  0  0  0  0  0  0  0  0  0  0  0
   48.8194   56.1458   26.5375 O   0  0  0  0  0  0  0  0  0  0  0  0
   46.8896   55.1436   28.4743 C   0  0  0  0  0  0  0  0  0  0  0  0
   48.0688   54.1818   28.5863 C   0  0  0  0  0  0  0  0  0  0  0  0
   48.9032   54.2423   30.2042 S   0  0  2  0  0  0  0  0  0  0  0  0
   50.1848   52.9546   30.1057 C   0  0  0  0  0  0  0  0  0  0  0  0
   47.8599   53.4871   31.5031 C   0  0  0  0  0  0  0  0  0  0  0  0
   48.6343   53.7641   32.7683 C   0  0  1  0  0  0  0  0  0  0  0  0
   48.8410   55.1378   32.7382 O   0  0  0  0  0  0  0  0  0  0  0  0
   48.0111   53.5851   34.1534 C   0  0  1  0  0  0  0  0  0  0  0  0
   48.2094   52.3002   34.6697 O   0  0  0  0  0  0  0  0  0  0  0  0
   48.8201   54.7321   34.9284 C   0  0  1  0  0  0  0  0  0  0  0  0
   50.2479   54.6109   34.8502 O   0  0  0  0  0  0  0  0  0  0  0  0
   48.2231   55.7200   33.9527 C   0  0  1  0  0  0  0  0  0  0  0  0
   47.4450   57.7453   26.3415 O   0  0  0  0  0  0  0  0  0  0  0  0
   45.5138   59.2525   31.6183 N   0  0  0  0  0  0  0  0  0  0  0  0
   45.2786   57.9551   31.8199 C   0  0  0  0  0  0  0  0  0  0  0  0
   46.1143   57.1896   32.5206 N   0  0  0  0  0  0  0  0  0  0  0  0
   47.2923   57.6642   32.9471 C   0  0  0  0  0  0  0  0  0  0  0  0
   47.6124   59.0357   32.6919 C   0  0  0  0  0  0  0  0  0  0  0  0
   46.6482   59.8227   32.0040 C   0  0  0  0  0  0  0  0  0  0  0  0
   46.8687   61.1447   31.7368 N   0  0  0  0  0  0  0  0  0  0  0  0
   48.8358   59.2601   33.2097 N   0  0  0  0  0  0  0  0  0  0  0  0
   49.2915   58.1519   33.7510 C   0  0  0  0  0  0  0  0  0  0  0  0
   48.3830   57.1282   33.6391 N   0  0  0  0  0  0  0  0  0  0  0  0
  2  1  1  6  0  0  0
  2  3  1  0  0  0  0
  2  5  1  0  0  0  0
  3  4  1  0  0  0  0
  3 17  1  0  0  0  0
  5  6  1  0  0  0  0
  7  6  1  6  0  0  0
  7  8  1  0  0  0  0
  7  9  1  0  0  0  0
 10  9  1  6  0  0  0
 10 11  1  0  0  0  0
 10 12  1  0  0  0  0
 11 16  1  0  0  0  0
 12 13  1  1  0  0  0
 12 14  1  0  0  0  0
 14 15  1  6  0  0  0
 14 16  1  0  0  0  0
 16 27  1  1  0  0  0
 18 19  2  0  0  0  0
 18 23  1  0  0  0  0
 19 20  1  0  0  0  0
 20 21  2  0  0  0  0
 21 22  1  0  0  0  0
 21 27  1  0  0  0  0
 22 23  2  0  0  0  0
 22 25  1  0  0  0  0
 23 24  1  0  0  0  0
 25 26  2  0  0  0  0
 26 27  1  0  0  0  0
M  END
>  <CHROM.1>
-178.97005290,-163.09326367,71.77648907,176.84021649,-174.00192593,53.47316180
90.51032480,47.96493058,56.16949228,31.37683304,2.25670080,1.22625586,-1.78148787

>  <Name>
ligand

>  <RI>
0

>  <Rbt.Current_Directory>
/home/itssahil/PROJECTS/Mol_Feturizer/New_Systems/rnas/3IQN

>  <Rbt.Executable>
rbdock ($Id: //depot/dev/client3/rdock/2013.1/src/exe/rbdock.cxx#4 $)

>  <Rbt.Library>
libRbt.so (2013.1, Build901 2013/11/27)

>  <Rbt.Parameter_File>
/export/apps/rDock/src/rDock_2013.1_src/data/scripts/dock_solv.prm

>  <Rbt.Receptor>
prm/pocket_docking_2.prm

>  <SCORE>
-16.2219

>  <SCORE.INTER>
-13.0008

>  <SCORE.INTER.CONST>
1

>  <SCORE.INTER.POLAR>
0

>  <SCORE.INTER.ROT>
7

>  <SCORE.INTER.SOLV>
19.2205

>  <SCORE.INTER.VDW>
-23.3407

>  <SCORE.INTER.norm>
-0.481509

>  <SCORE.INTRA>
-3.23154

>  <SCORE.INTRA.DIHEDRAL>
-4.91407

>  <SCORE.INTRA.DIHEDRAL.0>
10.0365

>  <SCORE.INTRA.POLAR>
0

>  <SCORE.INTRA.POLAR.0>
0

>  <SCORE.INTRA.REPUL>
0

>  <SCORE.INTRA.REPUL.0>
0

>  <SCORE.INTRA.SOLV>
-0.107592

>  <SCORE.INTRA.SOLV.lig_0>
-48.6728

>  <SCORE.INTRA.VDW>
-0.720714

>  <SCORE.INTRA.VDW.0>
-1.10662

>  <SCORE.INTRA.norm>
-0.119687

>  <SCORE.RESTR>
0.0104403

>  <SCORE.RESTR.CAVITY>
0.0104403

>  <SCORE.RESTR.norm>
0.000386679

>  <SCORE.SYSTEM>
0

>  <SCORE.SYSTEM.CONST>
0

>  <SCORE.SYSTEM.DIHEDRAL>
0

>  <SCORE.SYSTEM.SOLV>
0

>  <SCORE.SYSTEM.norm>
0

>  <SCORE.heavy>
27

>  <SCORE.norm>
-0.60081

>  <RMSD>
1.118

$$$$
ligand
 OpenBabel11021811483D
libRbt.so/2013.1/901 2013/11/27
 27 29  0  0  0  0  0  0  0  0999 V2000
   47.4327   55.3658   28.5860 N   0  0  0  0  0  0  0  0  0  0  0  0
   48.4481   56.3577   28.9635 C   0  0  2  0  0  0  0  0  0  0  0  0
   48.4516   57.4487   27.9353 C   0  0  0  0  0  0  0  0  0  0  0  0
   48.8023   58.5763   28.2448 O   0  0  0  0  0  0  0  0  0  0  0  0
   49.8371   55.7042   29.0196 C   0  0  0  0  0  0  0  0  0  0  0  0
   50.1013   55.2261   30.4443 C   0  0  0  0  0  0  0  0  0  0  0  0
   49.8325   53.4390   30.6716 S   0  0  2  0  0  0  0  0  0  0  0  0
   49.2095   52.8625   29.0623 C   0  0  0  0  0  0  0  0  0  0  0  0
   48.3316   53.1285   31.6699 C   0  0  0  0  0  0  0  0  0  0  0  0
   48.7813   53.4516   33.0736 C   0  0  1  0  0  0  0  0  0  0  0  0
   48.9902   54.8251   33.0485 O   0  0  0  0  0  0  0  0  0  0  0  0
   47.8448   53.3129   34.2748 C   0  0  1  0  0  0  0  0  0  0  0  0
   47.9128   52.0467   34.8656 O   0  0  0  0  0  0  0  0  0  0  0  0
   48.4459   54.4900   35.1824 C   0  0  1  0  0  0  0  0  0  0  0  0
   49.8509   54.3765   35.4518 O   0  0  0  0  0  0  0  0  0  0  0  0
   48.1003   55.4417   34.0602 C   0  0  1  0  0  0  0  0  0  0  0  0
   48.1178   57.2002   26.7875 O   0  0  0  0  0  0  0  0  0  0  0  0
   45.6710   59.0519   31.5436 N   0  0  0  0  0  0  0  0  0  0  0  0
   45.3754   57.7659   31.7392 C   0  0  0  0  0  0  0  0  0  0  0  0
   46.1381   56.9761   32.4940 N   0  0  0  0  0  0  0  0  0  0  0  0
   47.3055   57.4102   32.9877 C   0  0  0  0  0  0  0  0  0  0  0  0
   47.6917   58.7666   32.7432 C   0  0  0  0  0  0  0  0  0  0  0  0
   46.8009   59.5829   31.9933 C   0  0  0  0  0  0  0  0  0  0  0  0
   47.0866   60.8933   31.7313 N   0  0  0  0  0  0  0  0  0  0  0  0
   48.8894   58.9499   33.3324 N   0  0  0  0  0  0  0  0  0  0  0  0
   49.2697   57.8303   33.9075 C   0  0  0  0  0  0  0  0  0  0  0  0
   48.3317   56.8401   33.7477 N   0  0  0  0  0  0  0  0  0  0  0  0
  2  1  1  6  0  0  0
  2  3  1  0  0  0  0
  2  5  1  0  0  0  0
  3  4  1  0  0  0  0
  3 17  1  0  0  0  0
  5  6  1  0  0  0  0
  7  6  1  6  0  0  0
  7  8  1  0  0  0  0
  7  9  1  0  0  0  0
 10  9  1  6  0  0  0
 10 11  1  0  0  0  0
 10 12  1  0  0  0  0
 11 16  1  0  0  0  0
 12 13  1  1  0  0  0
 12 14  1  0  0  0  0
 14 15  1  6  0  0  0
 14 16  1  0  0  0  0
 16 27  1  1  0  0  0
 18 19  2  0  0  0  0
 18 23  1  0  0  0  0
 19 20  1  0  0  0  0
 20 21  2  0  0  0  0
 21 22  1  0  0  0  0
 21 27  1  0  0  0  0
 22 23  2  0  0  0  0
 22 25  1  0  0  0  0
 23 24  1  0  0  0  0
 25 26  2  0  0  0  0
 26 27  1  0  0  0  0
M  END
>  <CHROM.1>
152.55499546,-92.29752997,100.58902160,-3.78601871,-76.09508271,67.91546906
101.24814425,48.29991014,56.00093560,31.68087824,-2.09052004,-1.22714788
1.91513629

>  <Name>
ligand

>  <RI>
0

>  <Rbt.Current_Directory>
/home/itssahil/PROJECTS/Mol_Feturizer/New_Systems/rnas/3IQN

>  <Rbt.Executable>
rbdock ($Id: //depot/dev/client3/rdock/2013.1/src/exe/rbdock.cxx#4 $)

>  <Rbt.Library>
libRbt.so (2013.1, Build901 2013/11/27)

>  <Rbt.Parameter_File>
/export/apps/rDock/src/rDock_2013.1_src/data/scripts/dock_solv.prm

>  <Rbt.Receptor>
prm/pocket_docking_2.prm

>  <SCORE>
-14.1334

>  <SCORE.INTER>
-17.5558

>  <SCORE.INTER.CONST>
1

>  <SCORE.INTER.POLAR>
0

>  <SCORE.INTER.ROT>
7

>  <SCORE.INTER.SOLV>
17.7282

>  <SCORE.INTER.VDW>
-25.8799

>  <SCORE.INTER.norm>
-0.650214

>  <SCORE.INTRA>
3.42241

>  <SCORE.INTRA.DIHEDRAL>
5.37938

>  <SCORE.INTRA.DIHEDRAL.0>
10.0365

>  <SCORE.INTRA.POLAR>
0

>  <SCORE.INTRA.POLAR.0>
0

>  <SCORE.INTRA.REPUL>
0

>  <SCORE.INTRA.REPUL.0>
0

>  <SCORE.INTRA.SOLV>
1.79478

>  <SCORE.INTRA.SOLV.lig_0>
-48.6728

>  <SCORE.INTRA.VDW>
-0.164664

>  <SCORE.INTRA.VDW.0>
-1.10662

>  <SCORE.INTRA.norm>
0.126756

>  <SCORE.RESTR>
0

>  <SCORE.RESTR.CAVITY>
0

>  <SCORE.RESTR.norm>
0

>  <SCORE.SYSTEM>
0

>  <SCORE.SYSTEM.CONST>
0

>  <SCORE.SYSTEM.DIHEDRAL>
0

>  <SCORE.SYSTEM.SOLV>
0

>  <SCORE.SYSTEM.norm>
0

>  <SCORE.heavy>
27

>  <SCORE.norm>
-0.523458

>  <RMSD>
1.163

$$$$
ligand
 OpenBabel11021811483D
libRbt.so/2013.1/901 2013/11/27
 27 29  0  0  0  0  0  0  0  0999 V2000
   46.1839   56.4548   28.4875 N   0  0  0  0  0  0  0  0  0  0  0  0
   47.6499   56.5130   28.5561 C   0  0  2  0  0  0  0  0  0  0  0  0
   48.1149   57.7051   27.7751 C   0  0  0  0  0  0  0  0  0  0  0  0
   47.6430   57.9329   26.6726 O   0  0  0  0  0  0  0  0  0  0  0  0
   48.2630   55.2386   27.9567 C   0  0  0  0  0  0  0  0  0  0  0  0
   47.9298   54.0565   28.8621 C   0  0  0  0  0  0  0  0  0  0  0  0
   48.7454   54.1359   30.4888 S   0  0  2  0  0  0  0  0  0  0  0  0
   50.1514   52.9894   30.3513 C   0  0  0  0  0  0  0  0  0  0  0  0
   47.7774   53.2275   31.7472 C   0  0  0  0  0  0  0  0  0  0  0  0
   48.5292   53.5073   33.0252 C   0  0  1  0  0  0  0  0  0  0  0  0
   48.7731   54.8744   32.9756 O   0  0  0  0  0  0  0  0  0  0  0  0
   47.8695   53.3702   34.3982 C   0  0  1  0  0  0  0  0  0  0  0  0
   48.0214   52.0903   34.9417 O   0  0  0  0  0  0  0  0  0  0  0  0
   48.6905   54.5097   35.1715 C   0  0  1  0  0  0  0  0  0  0  0  0
   50.1161   54.3497   35.1294 O   0  0  0  0  0  0  0  0  0  0  0  0
   48.1428   55.4948   34.1646 C   0  0  1  0  0  0  0  0  0  0  0  0
   48.9538   58.4526   28.2530 O   0  0  0  0  0  0  0  0  0  0  0  0
   45.6831   58.9967   31.5273 N   0  0  0  0  0  0  0  0  0  0  0  0
   45.4141   57.7078   31.7415 C   0  0  0  0  0  0  0  0  0  0  0  0
   46.1790   56.9511   32.5276 N   0  0  0  0  0  0  0  0  0  0  0  0
   47.3246   57.4228   33.0374 C   0  0  0  0  0  0  0  0  0  0  0  0
   47.6835   58.7833   32.7749 C   0  0  0  0  0  0  0  0  0  0  0  0
   46.7898   59.5633   31.9905 C   0  0  0  0  0  0  0  0  0  0  0  0
   47.0498   60.8752   31.7092 N   0  0  0  0  0  0  0  0  0  0  0  0
   48.8634   59.0068   33.3857 N   0  0  0  0  0  0  0  0  0  0  0  0
   49.2578   57.9079   33.9903 C   0  0  0  0  0  0  0  0  0  0  0  0
   48.3474   56.8923   33.8299 N   0  0  0  0  0  0  0  0  0  0  0  0
  2  1  1  6  0  0  0
  2  3  1  0  0  0  0
  2  5  1  0  0  0  0
  3  4  1  0  0  0  0
  3 17  1  0  0  0  0
  5  6  1  0  0  0  0
  7  6  1  6  0  0  0
  7  8  1  0  0  0  0
  7  9  1  0  0  0  0
 10  9  1  6  0  0  0
 10 11  1  0  0  0  0
 10 12  1  0  0  0  0
 11 16  1  0  0  0  0
 12 13  1  1  0  0  0
 12 14  1  0  0  0  0
 14 15  1  6  0  0  0
 14 16  1  0  0  0  0
 16 27  1  1  0  0  0
 18 19  2  0  0  0  0
 18 23  1  0  0  0  0
 19 20  1  0  0  0  0
 20 21  2  0  0  0  0
 21 22  1  0  0  0  0
 21 27  1  0  0  0  0
 22 23  2  0  0  0  0
 22 25  1  0  0  0  0
 23 24  1  0  0  0  0
 25 26  2  0  0  0  0
 26 27  1  0  0  0  0
M  END
>  <CHROM.1>
-45.23658311,-67.92267018,-67.28490031,-101.34057945,-175.10787517,45.69715071
87.03354904,48.00680596,56.09514901,31.59909215,-2.38191138,-1.31083347,1.45339019

>  <Name>
ligand

>  <RI>
0

>  <Rbt.Current_Directory>
/home/itssahil/PROJECTS/Mol_Feturizer/New_Systems/rnas/3IQN

>  <Rbt.Executable>
rbdock ($Id: //depot/dev/client3/rdock/2013.1/src/exe/rbdock.cxx#4 $)

>  <Rbt.Library>
libRbt.so (2013.1, Build901 2013/11/27)

>  <Rbt.Parameter_File>
/export/apps/rDock/src/rDock_2013.1_src/data/scripts/dock_solv.prm

>  <Rbt.Receptor>
prm/pocket_docking_2.prm

>  <SCORE>
-16.8684

>  <SCORE.INTER>
-15.1473

>  <SCORE.INTER.CONST>
1

>  <SCORE.INTER.POLAR>
0

>  <SCORE.INTER.ROT>
7

>  <SCORE.INTER.SOLV>
17.9203

>  <SCORE.INTER.VDW>
-24.3383

>  <SCORE.INTER.norm>
-0.56101

>  <SCORE.INTRA>
-1.72853

>  <SCORE.INTRA.DIHEDRAL>
-2.97434

>  <SCORE.INTRA.DIHEDRAL.0>
10.0365

>  <SCORE.INTRA.POLAR>
0

>  <SCORE.INTRA.POLAR.0>
0

>  <SCORE.INTRA.REPUL>
0

>  <SCORE.INTRA.REPUL.0>
0

>  <SCORE.INTRA.SOLV>
0.34676

>  <SCORE.INTRA.SOLV.lig_0>
-48.6728

>  <SCORE.INTRA.VDW>
-0.414737

>  <SCORE.INTRA.VDW.0>
-1.10662

>  <SCORE.INTRA.norm>
-0.0640195

>  <SCORE.RESTR>
0.00735779

>  <SCORE.RESTR.CAVITY>
0.00735779

>  <SCORE.RESTR.norm>
0.000272511

>  <SCORE.SYSTEM>
0

>  <SCORE.SYSTEM.CONST>
0

>  <SCORE.SYSTEM.DIHEDRAL>
0

>  <SCORE.SYSTEM.SOLV>
0

>  <SCORE.SYSTEM.norm>
0

>  <SCORE.heavy>
27

>  <SCORE.norm>
-0.624757

>  <RMSD>
1.271

$$$$
ligand
 OpenBabel11021811483D
libRbt.so/2013.1/901 2013/11/27
 27 29  0  0  0  0  0  0  0  0999 V2000
   49.3630   55.4194   27.3583 N   0  0  0  0  0  0  0  0  0  0  0  0
   48.9994   55.6506   28.7625 C   0  0  2  0  0  0  0  0  0  0  0  0
   48.5831   57.0826   28.9158 C   0  0  0  0  0  0  0  0  0  0  0  0
   48.5135   57.5811   30.0279 O   0  0  0  0  0  0  0  0  0  0  0  0
   50.1997   55.3667   29.6780 C   0  0  0  0  0  0  0  0  0  0  0  0
   50.6560   53.9266   29.4628 C   0  0  0  0  0  0  0  0  0  0  0  0
   49.5450   52.6937   30.2133 S   0  0  2  0  0  0  0  0  0  0  0  0
   48.5389   52.0813   28.8265 C   0  0  0  0  0  0  0  0  0  0  0  0
   48.2177   53.5110   31.1705 C   0  0  0  0  0  0  0  0  0  0  0  0
   48.8675   53.7653   32.5085 C   0  0  1  0  0  0  0  0  0  0  0  0
   49.0206   55.1458   32.5473 O   0  0  0  0  0  0  0  0  0  0  0  0
   48.1339   53.5080   33.8256 C   0  0  1  0  0  0  0  0  0  0  0  0
   48.3380   52.2116   34.3098 O   0  0  0  0  0  0  0  0  0  0  0  0
   48.8258   54.6520   34.7106 C   0  0  1  0  0  0  0  0  0  0  0  0
   50.2587   54.5866   34.7546 O   0  0  0  0  0  0  0  0  0  0  0  0
   48.2766   55.6556   33.7230 C   0  0  1  0  0  0  0  0  0  0  0  0
   48.3303   57.7492   27.9245 O   0  0  0  0  0  0  0  0  0  0  0  0
   45.4982   59.2342   31.5453 N   0  0  0  0  0  0  0  0  0  0  0  0
   45.2909   57.9238   31.6846 C   0  0  0  0  0  0  0  0  0  0  0  0
   46.1409   57.1447   32.3522 N   0  0  0  0  0  0  0  0  0  0  0  0
   47.3067   57.6243   32.8059 C   0  0  0  0  0  0  0  0  0  0  0  0
   47.5973   59.0130   32.6169 C   0  0  0  0  0  0  0  0  0  0  0  0
   46.6183   59.8103   31.9625 C   0  0  0  0  0  0  0  0  0  0  0  0
   46.8105   61.1479   31.7588 N   0  0  0  0  0  0  0  0  0  0  0  0
   48.8137   59.2394   33.1502 N   0  0  0  0  0  0  0  0  0  0  0  0
   49.2918   58.1172   33.6408 C   0  0  0  0  0  0  0  0  0  0  0  0
   48.4065   57.0802   33.4768 N   0  0  0  0  0  0  0  0  0  0  0  0
  2  1  1  6  0  0  0
  2  3  1  0  0  0  0
  2  5  1  0  0  0  0
  3  4  1  0  0  0  0
  3 17  1  0  0  0  0
  5  6  1  0  0  0  0
  7  6  1  6  0  0  0
  7  8  1  0  0  0  0
  7  9  1  0  0  0  0
 10  9  1  6  0  0  0
 10 11  1  0  0  0  0
 10 12  1  0  0  0  0
 11 16  1  0  0  0  0
 12 13  1  1  0  0  0
 12 14  1  0  0  0  0
 14 15  1  6  0  0  0
 14 16  1  0  0  0  0
 16 27  1  1  0  0  0
 18 19  2  0  0  0  0
 18 23  1  0  0  0  0
 19 20  1  0  0  0  0
 20 21  2  0  0  0  0
 21 22  1  0  0  0  0
 21 27  1  0  0  0  0
 22 23  2  0  0  0  0
 22 25  1  0  0  0  0
 23 24  1  0  0  0  0
 25 26  2  0  0  0  0
 26 27  1  0  0  0  0
M  END
>  <CHROM.1>
-164.29363944,-58.02030161,-74.28309794,100.36617808,-84.19443721,110.04829722
95.43070463,48.40790198,55.94694382,31.53039062,-0.09559390,1.22108494,-1.28855543

>  <Name>
ligand

>  <RI>
0

>  <Rbt.Current_Directory>
/home/itssahil/PROJECTS/Mol_Feturizer/New_Systems/rnas/3IQN

>  <Rbt.Executable>
rbdock ($Id: //depot/dev/client3/rdock/2013.1/src/exe/rbdock.cxx#4 $)

>  <Rbt.Library>
libRbt.so (2013.1, Build901 2013/11/27)

>  <Rbt.Parameter_File>
/export/apps/rDock/src/rDock_2013.1_src/data/scripts/dock_solv.prm

>  <Rbt.Receptor>
prm/pocket_docking_2.prm

>  <SCORE>
-15.0139

>  <SCORE.INTER>
-14.8246

>  <SCORE.INTER.CONST>
1

>  <SCORE.INTER.POLAR>
0

>  <SCORE.INTER.ROT>
7

>  <SCORE.INTER.SOLV>
19.2345

>  <SCORE.INTER.VDW>
-24.5612

>  <SCORE.INTER.norm>
-0.54906

>  <SCORE.INTRA>
-0.257417

>  <SCORE.INTRA.DIHEDRAL>
3.45233

>  <SCORE.INTRA.DIHEDRAL.0>
10.0365

>  <SCORE.INTRA.POLAR>
0

>  <SCORE.INTRA.POLAR.0>
0

>  <SCORE.INTRA.REPUL>
0

>  <SCORE.INTRA.REPUL.0>
0

>  <SCORE.INTRA.SOLV>
1.24822

>  <SCORE.INTRA.SOLV.lig_0>
-48.6728

>  <SCORE.INTRA.VDW>
-2.60769

>  <SCORE.INTRA.VDW.0>
-1.10662

>  <SCORE.INTRA.norm>
-0.00953395

>  <SCORE.RESTR>
0.0680904

>  <SCORE.RESTR.CAVITY>
0.0680904

>  <SCORE.RESTR.norm>
0.00252187

>  <SCORE.SYSTEM>
0

>  <SCORE.SYSTEM.CONST>
0

>  <SCORE.SYSTEM.DIHEDRAL>
0

>  <SCORE.SYSTEM.SOLV>
0

>  <SCORE.SYSTEM.norm>
0

>  <SCORE.heavy>
27

>  <SCORE.norm>
-0.556072

>  <RMSD>
1.277

$$$$
ligand
 OpenBabel11021811483D
libRbt.so/2013.1/901 2013/11/27
 27 29  0  0  0  0  0  0  0  0999 V2000
   48.4916   55.2978   25.2590 N   0  0  0  0  0  0  0  0  0  0  0  0
   47.7365   55.1882   26.5141 C   0  0  2  0  0  0  0  0  0  0  0  0
   47.0784   56.5067   26.7892 C   0  0  0  0  0  0  0  0  0  0  0  0
   45.9118   56.5425   27.1466 O   0  0  0  0  0  0  0  0  0  0  0  0
   48.6791   54.8356   27.6745 C   0  0  0  0  0  0  0  0  0  0  0  0
   47.8493   54.3175   28.8455 C   0  0  0  0  0  0  0  0  0  0  0  0
   48.7962   54.1633   30.3937 S   0  0  2  0  0  0  0  0  0  0  0  0
   49.9760   52.8152   30.0753 C   0  0  0  0  0  0  0  0  0  0  0  0
   47.7961   53.3472   31.6897 C   0  0  0  0  0  0  0  0  0  0  0  0
   48.5671   53.6413   32.9531 C   0  0  1  0  0  0  0  0  0  0  0  0
   48.7952   55.0106   32.8928 O   0  0  0  0  0  0  0  0  0  0  0  0
   47.9328   53.5039   34.3380 C   0  0  1  0  0  0  0  0  0  0  0  0
   48.1080   52.2283   34.8849 O   0  0  0  0  0  0  0  0  0  0  0  0
   48.7549   54.6559   35.0915 C   0  0  1  0  0  0  0  0  0  0  0  0
   50.1811   54.5109   35.0253 O   0  0  0  0  0  0  0  0  0  0  0  0
   48.1791   55.6301   34.0897 C   0  0  1  0  0  0  0  0  0  0  0  0
   47.7183   57.5397   26.6692 O   0  0  0  0  0  0  0  0  0  0  0  0
   45.6256   59.0984   31.4976 N   0  0  0  0  0  0  0  0  0  0  0  0
   45.3738   57.8080   31.7231 C   0  0  0  0  0  0  0  0  0  0  0  0
   46.1638   57.0616   32.4938 N   0  0  0  0  0  0  0  0  0  0  0  0
   47.3167   57.5459   32.9746 C   0  0  0  0  0  0  0  0  0  0  0  0
   47.6567   58.9086   32.6985 C   0  0  0  0  0  0  0  0  0  0  0  0
   46.7376   59.6771   31.9324 C   0  0  0  0  0  0  0  0  0  0  0  0
   46.9787   60.9901   31.6400 N   0  0  0  0  0  0  0  0  0  0  0  0
   48.8486   59.1453   33.2805 N   0  0  0  0  0  0  0  0  0  0  0  0
   49.2673   58.0526   33.8799 C   0  0  0  0  0  0  0  0  0  0  0  0
   48.3628   57.0281   33.7449 N   0  0  0  0  0  0  0  0  0  0  0  0
  2  1  1  6  0  0  0
  2  3  1  0  0  0  0
  2  5  1  0  0  0  0
  3  4  1  0  0  0  0
  3 17  1  0  0  0  0
  5  6  1  0  0  0  0
  7  6  1  6  0  0  0
  7  8  1  0  0  0  0
  7  9  1  0  0  0  0
 10  9  1  6  0  0  0
 10 11  1  0  0  0  0
 10 12  1  0  0  0  0
 11 16  1  0  0  0  0
 12 13  1  1  0  0  0
 12 14  1  0  0  0  0
 14 15  1  6  0  0  0
 14 16  1  0  0  0  0
 16 27  1  1  0  0  0
 18 19  2  0  0  0  0
 18 23  1  0  0  0  0
 19 20  1  0  0  0  0
 20 21  2  0  0  0  0
 21 22  1  0  0  0  0
 21 27  1  0  0  0  0
 22 23  2  0  0  0  0
 22 25  1  0  0  0  0
 23 24  1  0  0  0  0
 25 26  2  0  0  0  0
 26 27  1  0  0  0  0
M  END
>  <CHROM.1>
135.00286934,-162.94710091,-168.92302115,-67.80419072,-165.21473880,49.45848418
87.39799370,47.95425853,55.94933845,31.26690141,-1.97468919,-1.24067851,1.28739629

>  <Name>
ligand

>  <RI>
0

>  <Rbt.Current_Directory>
/home/itssahil/PROJECTS/Mol_Feturizer/New_Systems/rnas/3IQN

>  <Rbt.Executable>
rbdock ($Id: //depot/dev/client3/rdock/2013.1/src/exe/rbdock.cxx#4 $)

>  <Rbt.Library>
libRbt.so (2013.1, Build901 2013/11/27)

>  <Rbt.Parameter_File>
/export/apps/rDock/src/rDock_2013.1_src/data/scripts/dock_solv.prm

>  <Rbt.Receptor>
prm/pocket_docking_2.prm

>  <SCORE>
-15.9312

>  <SCORE.INTER>
-13.1344

>  <SCORE.INTER.CONST>
1

>  <SCORE.INTER.POLAR>
0

>  <SCORE.INTER.ROT>
7

>  <SCORE.INTER.SOLV>
20.4419

>  <SCORE.INTER.VDW>
-23.8369

>  <SCORE.INTER.norm>
-0.48646

>  <SCORE.INTRA>
-2.81786

>  <SCORE.INTRA.DIHEDRAL>
-4.03676

>  <SCORE.INTRA.DIHEDRAL.0>
10.0365

>  <SCORE.INTRA.POLAR>
0

>  <SCORE.INTRA.POLAR.0>
0

>  <SCORE.INTRA.REPUL>
0

>  <SCORE.INTRA.REPUL.0>
0

>  <SCORE.INTRA.SOLV>
-1.07953

>  <SCORE.INTRA.SOLV.lig_0>
-48.6728

>  <SCORE.INTRA.VDW>
-0.25971

>  <SCORE.INTRA.VDW.0>
-1.10662

>  <SCORE.INTRA.norm>
-0.104365

>  <SCORE.RESTR>
0.0211274

>  <SCORE.RESTR.CAVITY>
0.0211274

>  <SCORE.RESTR.norm>
0.000782497

>  <SCORE.SYSTEM>
0

>  <SCORE.SYSTEM.CONST>
0

>  <SCORE.SYSTEM.DIHEDRAL>
0

>  <SCORE.SYSTEM.SOLV>
0

>  <SCORE.SYSTEM.norm>
0

>  <SCORE.heavy>
27

>  <SCORE.norm>
-0.590043

>  <RMSD>
1.280

$$$$
ligand
 OpenBabel11021811483D
libRbt.so/2013.1/901 2013/11/27
 27 29  0  0  0  0  0  0  0  0999 V2000
   47.2823   55.8394   27.6392 N   0  0  0  0  0  0  0  0  0  0  0  0
   48.3451   55.8457   28.6530 C   0  0  2  0  0  0  0  0  0  0  0  0
   48.6053   57.2650   29.0596 C   0  0  0  0  0  0  0  0  0  0  0  0
   48.2594   58.1808   28.3303 O   0  0  0  0  0  0  0  0  0  0  0  0
   49.6324   55.2342   28.0800 C   0  0  0  0  0  0  0  0  0  0  0  0
   50.5788   54.9060   29.2311 C   0  0  0  0  0  0  0  0  0  0  0  0
   50.1664   53.3532   30.0892 S   0  0  2  0  0  0  0  0  0  0  0  0
   49.5528   52.2542   28.7754 C   0  0  0  0  0  0  0  0  0  0  0  0
   48.6149   53.5285   31.0421 C   0  0  0  0  0  0  0  0  0  0  0  0
   49.1029   53.7615   32.4509 C   0  0  1  0  0  0  0  0  0  0  0  0
   49.2126   55.1437   32.5410 O   0  0  0  0  0  0  0  0  0  0  0  0
   48.2333   53.4498   33.6698 C   0  0  1  0  0  0  0  0  0  0  0  0
   48.4173   52.1458   34.1416 O   0  0  0  0  0  0  0  0  0  0  0  0
   48.7895   54.5854   34.6555 C   0  0  1  0  0  0  0  0  0  0  0  0
   50.2097   54.5541   34.8597 O   0  0  0  0  0  0  0  0  0  0  0  0
   48.3274   55.6022   33.6373 C   0  0  1  0  0  0  0  0  0  0  0  0
   49.1490   57.4991   30.1275 O   0  0  0  0  0  0  0  0  0  0  0  0
   45.6180   59.1993   31.4036 N   0  0  0  0  0  0  0  0  0  0  0  0
   45.4277   57.8818   31.4902 C   0  0  0  0  0  0  0  0  0  0  0  0
   46.2504   57.0967   32.1846 N   0  0  0  0  0  0  0  0  0  0  0  0
   47.3773   57.5818   32.7228 C   0  0  0  0  0  0  0  0  0  0  0  0
   47.6523   58.9805   32.5941 C   0  0  0  0  0  0  0  0  0  0  0  0
   46.6997   59.7811   31.9057 C   0  0  0  0  0  0  0  0  0  0  0  0
   46.8784   61.1275   31.7547 N   0  0  0  0  0  0  0  0  0  0  0  0
   48.8297   59.2109   33.2072 N   0  0  0  0  0  0  0  0  0  0  0  0
   49.2986   58.0822   33.6918 C   0  0  0  0  0  0  0  0  0  0  0  0
   48.4447   57.0359   33.4428 N   0  0  0  0  0  0  0  0  0  0  0  0
  2  1  1  6  0  0  0
  2  3  1  0  0  0  0
  2  5  1  0  0  0  0
  3  4  1  0  0  0  0
  3 17  1  0  0  0  0
  5  6  1  0  0  0  0
  7  6  1  6  0  0  0
  7  8  1  0  0  0  0
  7  9  1  0  0  0  0
 10  9  1  6  0  0  0
 10 11  1  0  0  0  0
 10 12  1  0  0  0  0
 11 16  1  0  0  0  0
 12 13  1  1  0  0  0
 12 14  1  0  0  0  0
 14 15  1  6  0  0  0
 14 16  1  0  0  0  0
 16 27  1  1  0  0  0
 18 19  2  0  0  0  0
 18 23  1  0  0  0  0
 19 20  1  0  0  0  0
 20 21  2  0  0  0  0
 21 22  1  0  0  0  0
 21 27  1  0  0  0  0
 22 23  2  0  0  0  0
 22 25  1  0  0  0  0
 23 24  1  0  0  0  0
 25 26  2  0  0  0  0
 26 27  1  0  0  0  0
M  END
>  <CHROM.1>
-20.01465264,-164.77262976,79.69892956,35.36872233,-99.76222668,90.47029594
98.47068546,48.46060539,56.05826926,31.44494496,-0.04945141,1.18580362,-1.41900918

>  <Name>
ligand

>  <RI>
0

>  <Rbt.Current_Directory>
/home/itssahil/PROJECTS/Mol_Feturizer/New_Systems/rnas/3IQN

>  <Rbt.Executable>
rbdock ($Id: //depot/dev/client3/rdock/2013.1/src/exe/rbdock.cxx#4 $)

>  <Rbt.Library>
libRbt.so (2013.1, Build901 2013/11/27)

>  <Rbt.Parameter_File>
/export/apps/rDock/src/rDock_2013.1_src/data/scripts/dock_solv.prm

>  <Rbt.Receptor>
prm/pocket_docking_2.prm

>  <SCORE>
-17.3653

>  <SCORE.INTER>
-15.1211

>  <SCORE.INTER.CONST>
1

>  <SCORE.INTER.POLAR>
0

>  <SCORE.INTER.ROT>
7

>  <SCORE.INTER.SOLV>
18.5161

>  <SCORE.INTER.VDW>
-24.5194

>  <SCORE.INTER.norm>
-0.560042

>  <SCORE.INTRA>
-2.27167

>  <SCORE.INTRA.DIHEDRAL>
1.47855

>  <SCORE.INTRA.DIHEDRAL.0>
10.0365

>  <SCORE.INTRA.POLAR>
0

>  <SCORE.INTRA.POLAR.0>
0

>  <SCORE.INTRA.REPUL>
0

>  <SCORE.INTRA.REPUL.0>
0

>  <SCORE.INTRA.SOLV>
-0.37646

>  <SCORE.INTRA.SOLV.lig_0>
-48.6728

>  <SCORE.INTRA.VDW>
-2.82271

>  <SCORE.INTRA.VDW.0>
-1.10662

>  <SCORE.INTRA.norm>
-0.0841358

>  <SCORE.RESTR>
0.0274567

>  <SCORE.RESTR.CAVITY>
0.0274567

>  <SCORE.RESTR.norm>
0.00101691

>  <SCORE.SYSTEM>
0

>  <SCORE.SYSTEM.CONST>
0

>  <SCORE.SYSTEM.DIHEDRAL>
0

>  <SCORE.SYSTEM.SOLV>
0

>  <SCORE.SYSTEM.norm>
0

>  <SCORE.heavy>
27

>  <SCORE.norm>
-0.643161

>  <RMSD>
1.309

$$$$
ligand
 OpenBabel11021811483D
libRbt.so/2013.1/901 2013/11/27
 27 29  0  0  0  0  0  0  0  0999 V2000
   48.1709   55.2130   27.0789 N   0  0  0  0  0  0  0  0  0  0  0  0
   47.8605   56.1595   28.1582 C   0  0  2  0  0  0  0  0  0  0  0  0
   48.9025   57.2374   28.1590 C   0  0  0  0  0  0  0  0  0  0  0  0
   48.5800   58.3964   28.3660 O   0  0  0  0  0  0  0  0  0  0  0  0
   47.8675   55.4412   29.5159 C   0  0  0  0  0  0  0  0  0  0  0  0
   49.2393   54.8097   29.7342 C   0  0  0  0  0  0  0  0  0  0  0  0
   49.1668   53.1766   30.5374 S   0  0  2  0  0  0  0  0  0  0  0  0
   48.4099   52.0879   29.2915 C   0  0  0  0  0  0  0  0  0  0  0  0
   47.8329   53.1251   31.7880 C   0  0  0  0  0  0  0  0  0  0  0  0
   48.5587   53.4297   33.0754 C   0  0  1  0  0  0  0  0  0  0  0  0
   48.8205   54.7920   32.9958 O   0  0  0  0  0  0  0  0  0  0  0  0
   47.8660   53.3367   34.4357 C   0  0  1  0  0  0  0  0  0  0  0  0
   47.9895   52.0698   35.0159 O   0  0  0  0  0  0  0  0  0  0  0  0
   48.6831   54.4864   35.1980 C   0  0  1  0  0  0  0  0  0  0  0  0
   50.1071   54.3086   35.1932 O   0  0  0  0  0  0  0  0  0  0  0  0
   48.1709   55.4510   34.1532 C   0  0  1  0  0  0  0  0  0  0  0  0
   50.0732   56.9481   27.9677 O   0  0  0  0  0  0  0  0  0  0  0  0
   45.6563   59.0113   31.6493 N   0  0  0  0  0  0  0  0  0  0  0  0
   45.3580   57.7352   31.8984 C   0  0  0  0  0  0  0  0  0  0  0  0
   46.1491   56.9598   32.6388 N   0  0  0  0  0  0  0  0  0  0  0  0
   47.3437   57.3953   33.0611 C   0  0  0  0  0  0  0  0  0  0  0  0
   47.7308   58.7392   32.7566 C   0  0  0  0  0  0  0  0  0  0  0  0
   46.8121   59.5426   32.0266 C   0  0  0  0  0  0  0  0  0  0  0  0
   47.0976   60.8413   31.7108 N   0  0  0  0  0  0  0  0  0  0  0  0
   48.9578   58.9265   33.2805 N   0  0  0  0  0  0  0  0  0  0  0  0
   49.3550   57.8204   33.8702 C   0  0  0  0  0  0  0  0  0  0  0  0
   48.4004   56.8367   33.7870 N   0  0  0  0  0  0  0  0  0  0  0  0
  2  1  1  6  0  0  0
  2  3  1  0  0  0  0
  2  5  1  0  0  0  0
  3  4  1  0  0  0  0
  3 17  1  0  0  0  0
  5  6  1  0  0  0  0
  7  6  1  6  0  0  0
  7  8  1  0  0  0  0
  7  9  1  0  0  0  0
 10  9  1  6  0  0  0
 10 11  1  0  0  0  0
 10 12  1  0  0  0  0
 11 16  1  0  0  0  0
 12 13  1  1  0  0  0
 12 14  1  0  0  0  0
 14 15  1  6  0  0  0
 14 16  1  0  0  0  0
 16 27  1  1  0  0  0
 18 19  2  0  0  0  0
 18 23  1  0  0  0  0
 19 20  1  0  0  0  0
 20 21  2  0  0  0  0
 21 22  1  0  0  0  0
 21 27  1  0  0  0  0
 22 23  2  0  0  0  0
 22 25  1  0  0  0  0
 23 24  1  0  0  0  0
 25 26  2  0  0  0  0
 26 27  1  0  0  0  0
M  END
>  <CHROM.1>
140.49492720,58.45654988,-141.57723431,68.57637690,-96.01608230,74.13071956
92.60702026,48.20680186,55.87711682,31.67223102,-2.13132837,-1.32902447,1.89408986

>  <Name>
ligand

>  <RI>
0

>  <Rbt.Current_Directory>
/home/itssahil/PROJECTS/Mol_Feturizer/New_Systems/rnas/3IQN

>  <Rbt.Executable>
rbdock ($Id: //depot/dev/client3/rdock/2013.1/src/exe/rbdock.cxx#4 $)

>  <Rbt.Library>
libRbt.so (2013.1, Build901 2013/11/27)

>  <Rbt.Parameter_File>
/export/apps/rDock/src/rDock_2013.1_src/data/scripts/dock_solv.prm

>  <Rbt.Receptor>
prm/pocket_docking_2.prm

>  <SCORE>
-16.647

>  <SCORE.INTER>
-15.7844

>  <SCORE.INTER.CONST>
1

>  <SCORE.INTER.POLAR>
0

>  <SCORE.INTER.ROT>
7

>  <SCORE.INTER.SOLV>
17.1667

>  <SCORE.INTER.VDW>
-24.5119

>  <SCORE.INTER.norm>
-0.584609

>  <SCORE.INTRA>
-0.911263

>  <SCORE.INTRA.DIHEDRAL>
0.62817

>  <SCORE.INTRA.DIHEDRAL.0>
10.0365

>  <SCORE.INTRA.POLAR>
0

>  <SCORE.INTRA.POLAR.0>
0

>  <SCORE.INTRA.REPUL>
0

>  <SCORE.INTRA.REPUL.0>
0

>  <SCORE.INTRA.SOLV>
0.665633

>  <SCORE.INTRA.SOLV.lig_0>
-48.6728

>  <SCORE.INTRA.VDW>
-1.55816

>  <SCORE.INTRA.VDW.0>
-1.10662

>  <SCORE.INTRA.norm>
-0.0337505

>  <SCORE.RESTR>
0.0486803

>  <SCORE.RESTR.CAVITY>
0.0486803

>  <SCORE.RESTR.norm>
0.00180297

>  <SCORE.SYSTEM>
0

>  <SCORE.SYSTEM.CONST>
0

>  <SCORE.SYSTEM.DIHEDRAL>
0

>  <SCORE.SYSTEM.SOLV>
0

>  <SCORE.SYSTEM.norm>
0

>  <SCORE.heavy>
27

>  <SCORE.norm>
-0.616557

>  <RMSD>
1.312

$$$$
ligand
 OpenBabel11021811483D
libRbt.so/2013.1/901 2013/11/27
 27 29  0  0  0  0  0  0  0  0999 V2000
   46.9388   56.0111   28.2343 N   0  0  0  0  0  0  0  0  0  0  0  0
   48.1428   55.9177   29.0704 C   0  0  2  0  0  0  0  0  0  0  0  0
   48.6997   57.2971   29.2567 C   0  0  0  0  0  0  0  0  0  0  0  0
   49.4669   57.5249   30.1785 O   0  0  0  0  0  0  0  0  0  0  0  0
   49.1958   55.0290   28.3917 C   0  0  0  0  0  0  0  0  0  0  0  0
   50.2747   54.6747   29.4109 C   0  0  0  0  0  0  0  0  0  0  0  0
   49.9485   53.1202   30.3023 S   0  0  2  0  0  0  0  0  0  0  0  0
   49.3130   51.9876   29.0280 C   0  0  0  0  0  0  0  0  0  0  0  0
   48.4350   53.2590   31.3201 C   0  0  0  0  0  0  0  0  0  0  0  0
   48.9761   53.5213   32.7041 C   0  0  1  0  0  0  0  0  0  0  0  0
   49.1409   54.9005   32.7414 O   0  0  0  0  0  0  0  0  0  0  0  0
   48.1346   53.2860   33.9594 C   0  0  1  0  0  0  0  0  0  0  0  0
   48.2841   51.9929   34.4717 O   0  0  0  0  0  0  0  0  0  0  0  0
   48.7646   54.4324   34.8865 C   0  0  1  0  0  0  0  0  0  0  0  0
   50.1883   54.3528   35.0481 O   0  0  0  0  0  0  0  0  0  0  0  0
   48.3091   55.4307   33.8472 C   0  0  1  0  0  0  0  0  0  0  0  0
   48.3949   58.1840   28.4749 O   0  0  0  0  0  0  0  0  0  0  0  0
   45.6973   59.0386   31.5168 N   0  0  0  0  0  0  0  0  0  0  0  0
   45.4617   57.7329   31.6548 C   0  0  0  0  0  0  0  0  0  0  0  0
   46.2659   56.9447   32.3670 N   0  0  0  0  0  0  0  0  0  0  0  0
   47.4168   57.4083   32.8722 C   0  0  0  0  0  0  0  0  0  0  0  0
   47.7394   58.7906   32.6882 C   0  0  0  0  0  0  0  0  0  0  0  0
   46.8060   59.5991   31.9829 C   0  0  0  0  0  0  0  0  0  0  0  0
   47.0301   60.9319   31.7798 N   0  0  0  0  0  0  0  0  0  0  0  0
   48.9328   59.0009   33.2770 N   0  0  0  0  0  0  0  0  0  0  0  0
   49.3683   57.8745   33.7971 C   0  0  0  0  0  0  0  0  0  0  0  0
   48.4744   56.8511   33.5981 N   0  0  0  0  0  0  0  0  0  0  0  0
  2  1  1  6  0  0  0
  2  3  1  0  0  0  0
  2  5  1  0  0  0  0
  3  4  1  0  0  0  0
  3 17  1  0  0  0  0
  5  6  1  0  0  0  0
  7  6  1  6  0  0  0
  7  8  1  0  0  0  0
  7  9  1  0  0  0  0
 10  9  1  6  0  0  0
 10 11  1  0  0  0  0
 10 12  1  0  0  0  0
 11 16  1  0  0  0  0
 12 13  1  1  0  0  0
 12 14  1  0  0  0  0
 14 15  1  6  0  0  0
 14 16  1  0  0  0  0
 16 27  1  1  0  0  0
 18 19  2  0  0  0  0
 18 23  1  0  0  0  0
 19 20  1  0  0  0  0
 20 21  2  0  0  0  0
 21 22  1  0  0  0  0
 21 27  1  0  0  0  0
 22 23  2  0  0  0  0
 22 25  1  0  0  0  0
 23 24  1  0  0  0  0
 25 26  2  0  0  0  0
 26 27  1  0  0  0  0
M  END
>  <CHROM.1>
160.55291772,-166.33194429,91.69838488,40.98187827,-99.84214201,86.22562663
97.44492738,48.40853055,55.90529986,31.64919859,-2.94165556,-1.23602928,1.72005001

>  <Name>
ligand

>  <RI>
0

>  <Rbt.Current_Directory>
/home/itssahil/PROJECTS/Mol_Feturizer/New_Systems/rnas/3IQN

>  <Rbt.Executable>
rbdock ($Id: //depot/dev/client3/rdock/2013.1/src/exe/rbdock.cxx#4 $)

>  <Rbt.Library>
libRbt.so (2013.1, Build901 2013/11/27)

>  <Rbt.Parameter_File>
/export/apps/rDock/src/rDock_2013.1_src/data/scripts/dock_solv.prm

>  <Rbt.Receptor>
prm/pocket_docking_2.prm

>  <SCORE>
-17.995

>  <SCORE.INTER>
-15.4654

>  <SCORE.INTER.CONST>
1

>  <SCORE.INTER.POLAR>
0

>  <SCORE.INTER.ROT>
7

>  <SCORE.INTER.SOLV>
17.9894

>  <SCORE.INTER.VDW>
-24.5734

>  <SCORE.INTER.norm>
-0.572793

>  <SCORE.INTRA>
-2.62774

>  <SCORE.INTRA.DIHEDRAL>
1.92272

>  <SCORE.INTRA.DIHEDRAL.0>
10.0365

>  <SCORE.INTRA.POLAR>
0

>  <SCORE.INTRA.POLAR.0>
0

>  <SCORE.INTRA.REPUL>
0

>  <SCORE.INTRA.REPUL.0>
0

>  <SCORE.INTRA.SOLV>
-0.737358

>  <SCORE.INTRA.SOLV.lig_0>
-48.6728

>  <SCORE.INTRA.VDW>
-3.22042

>  <SCORE.INTRA.VDW.0>
-1.10662

>  <SCORE.INTRA.norm>
-0.0973238

>  <SCORE.RESTR>
0.0981941

>  <SCORE.RESTR.CAVITY>
0.0981941

>  <SCORE.RESTR.norm>
0.00363682

>  <SCORE.SYSTEM>
0

>  <SCORE.SYSTEM.CONST>
0

>  <SCORE.SYSTEM.DIHEDRAL>
0

>  <SCORE.SYSTEM.SOLV>
0

>  <SCORE.SYSTEM.norm>
0

>  <SCORE.heavy>
27

>  <SCORE.norm>
-0.66648

>  <RMSD>
1.367

$$$$
ligand
 OpenBabel11021811483D
libRbt.so/2013.1/901 2013/11/27
 27 29  0  0  0  0  0  0  0  0999 V2000
   48.1882   55.9681   26.0633 N   0  0  0  0  0  0  0  0  0  0  0  0
   47.9516   55.4817   27.4289 C   0  0  2  0  0  0  0  0  0  0  0  0
   48.6194   56.4193   28.3893 C   0  0  0  0  0  0  0  0  0  0  0  0
   48.0606   56.7244   29.4309 O   0  0  0  0  0  0  0  0  0  0  0  0
   48.5360   54.0717   27.6016 C   0  0  0  0  0  0  0  0  0  0  0  0
   47.8674   53.4027   28.7990 C   0  0  0  0  0  0  0  0  0  0  0  0
   48.5456   53.9390   30.4020 S   0  0  2  0  0  0  0  0  0  0  0  0
   50.0499   52.9388   30.6192 C   0  0  0  0  0  0  0  0  0  0  0  0
   47.5638   53.2551   31.7856 C   0  0  0  0  0  0  0  0  0  0  0  0
   48.4236   53.5445   32.9914 C   0  0  1  0  0  0  0  0  0  0  0  0
   48.6924   54.9040   32.8902 O   0  0  0  0  0  0  0  0  0  0  0  0
   47.8755   53.4526   34.4162 C   0  0  1  0  0  0  0  0  0  0  0  0
   48.0435   52.1814   34.9754 O   0  0  0  0  0  0  0  0  0  0  0  0
   48.7818   54.5887   35.0935 C   0  0  1  0  0  0  0  0  0  0  0  0
   50.1953   54.3941   34.9394 O   0  0  0  0  0  0  0  0  0  0  0  0
   48.1752   55.5646   34.1117 C   0  0  1  0  0  0  0  0  0  0  0  0
   49.7279   56.8617   28.1319 O   0  0  0  0  0  0  0  0  0  0  0  0
   45.6006   59.0553   31.5710 N   0  0  0  0  0  0  0  0  0  0  0  0
   45.3229   57.7777   31.8356 C   0  0  0  0  0  0  0  0  0  0  0  0
   46.1274   57.0236   32.5835 N   0  0  0  0  0  0  0  0  0  0  0  0
   47.3156   57.4827   32.9985 C   0  0  0  0  0  0  0  0  0  0  0  0
   47.6810   58.8289   32.6777 C   0  0  0  0  0  0  0  0  0  0  0  0
   46.7486   59.6092   31.9401 C   0  0  0  0  0  0  0  0  0  0  0  0
   47.0130   60.9084   31.6086 N   0  0  0  0  0  0  0  0  0  0  0  0
   48.9058   59.0416   33.1971 N   0  0  0  0  0  0  0  0  0  0  0  0
   49.3213   57.9490   33.7990 C   0  0  0  0  0  0  0  0  0  0  0  0
   48.3822   56.9494   33.7290 N   0  0  0  0  0  0  0  0  0  0  0  0
  2  1  1  6  0  0  0
  2  3  1  0  0  0  0
  2  5  1  0  0  0  0
  3  4  1  0  0  0  0
  3 17  1  0  0  0  0
  5  6  1  0  0  0  0
  7  6  1  6  0  0  0
  7  8  1  0  0  0  0
  7  9  1  0  0  0  0
 10  9  1  6  0  0  0
 10 11  1  0  0  0  0
 10 12  1  0  0  0  0
 11 16  1  0  0  0  0
 12 13  1  1  0  0  0
 12 14  1  0  0  0  0
 14 15  1  6  0  0  0
 14 16  1  0  0  0  0
 16 27  1  1  0  0  0
 18 19  2  0  0  0  0
 18 23  1  0  0  0  0
 19 20  1  0  0  0  0
 20 21  2  0  0  0  0
 21 22  1  0  0  0  0
 21 27  1  0  0  0  0
 22 23  2  0  0  0  0
 22 25  1  0  0  0  0
 23 24  1  0  0  0  0
 25 26  2  0  0  0  0
 26 27  1  0  0  0  0
M  END
>  <CHROM.1>
139.61642946,-159.83563078,-79.45895645,-81.73817526,168.28374073,52.23700196
86.43389044,48.12854177,55.83942479,31.55709199,-1.59186551,-1.30589041,1.61327902

>  <Name>
ligand

>  <RI>
0

>  <Rbt.Current_Directory>
/home/itssahil/PROJECTS/Mol_Feturizer/New_Systems/rnas/3IQN

>  <Rbt.Executable>
rbdock ($Id: //depot/dev/client3/rdock/2013.1/src/exe/rbdock.cxx#4 $)

>  <Rbt.Library>
libRbt.so (2013.1, Build901 2013/11/27)

>  <Rbt.Parameter_File>
/export/apps/rDock/src/rDock_2013.1_src/data/scripts/dock_solv.prm

>  <Rbt.Receptor>
prm/pocket_docking_2.prm

>  <SCORE>
-14.3806

>  <SCORE.INTER>
-11.7983

>  <SCORE.INTER.CONST>
1

>  <SCORE.INTER.POLAR>
0

>  <SCORE.INTER.ROT>
7

>  <SCORE.INTER.SOLV>
19.9621

>  <SCORE.INTER.VDW>
-22.7862

>  <SCORE.INTER.norm>
-0.436973

>  <SCORE.INTRA>
-2.58913

>  <SCORE.INTRA.DIHEDRAL>
-3.3978

>  <SCORE.INTRA.DIHEDRAL.0>
10.0365

>  <SCORE.INTRA.POLAR>
0

>  <SCORE.INTRA.POLAR.0>
0

>  <SCORE.INTRA.REPUL>
0

>  <SCORE.INTRA.REPUL.0>
0

>  <SCORE.INTRA.SOLV>
-0.901359

>  <SCORE.INTRA.SOLV.lig_0>
-48.6728

>  <SCORE.INTRA.VDW>
-0.439548

>  <SCORE.INTRA.VDW.0>
-1.10662

>  <SCORE.INTRA.norm>
-0.0958936

>  <SCORE.RESTR>
0.00679176

>  <SCORE.RESTR.CAVITY>
0.00679176

>  <SCORE.RESTR.norm>
0.000251547

>  <SCORE.SYSTEM>
0

>  <SCORE.SYSTEM.CONST>
0

>  <SCORE.SYSTEM.DIHEDRAL>
0

>  <SCORE.SYSTEM.SOLV>
0

>  <SCORE.SYSTEM.norm>
0

>  <SCORE.heavy>
27

>  <SCORE.norm>
-0.532615

>  <RMSD>
1.469

$$$$
ligand
 OpenBabel11021811483D
libRbt.so/2013.1/901 2013/11/27
 27 29  0  0  0  0  0  0  0  0999 V2000
   48.0181   56.6211   26.6894 N   0  0  0  0  0  0  0  0  0  0  0  0
   47.6847   56.5271   28.1168 C   0  0  2  0  0  0  0  0  0  0  0  0
   48.2784   57.7093   28.8220 C   0  0  0  0  0  0  0  0  0  0  0  0
   47.7050   58.1962   29.7835 O   0  0  0  0  0  0  0  0  0  0  0  0
   48.2591   55.2341   28.7147 C   0  0  0  0  0  0  0  0  0  0  0  0
   47.7063   55.0535   30.1254 C   0  0  0  0  0  0  0  0  0  0  0  0
   48.0601   53.4156   30.8391 S   0  0  2  0  0  0  0  0  0  0  0  0
   47.1694   52.2474   29.7657 C   0  0  0  0  0  0  0  0  0  0  0  0
   47.1029   53.1548   32.3759 C   0  0  0  0  0  0  0  0  0  0  0  0
   48.1184   53.4178   33.4606 C   0  0  1  0  0  0  0  0  0  0  0  0
   48.5023   54.7357   33.2449 O   0  0  0  0  0  0  0  0  0  0  0  0
   47.7304   53.4569   34.9394 C   0  0  1  0  0  0  0  0  0  0  0  0
   47.8390   52.2062   35.5565 O   0  0  0  0  0  0  0  0  0  0  0  0
   48.8122   54.5287   35.4410 C   0  0  1  0  0  0  0  0  0  0  0  0
   50.1738   54.1833   35.1472 O   0  0  0  0  0  0  0  0  0  0  0  0
   48.1933   55.5085   34.4709 C   0  0  1  0  0  0  0  0  0  0  0  0
   49.3425   58.1706   28.4403 O   0  0  0  0  0  0  0  0  0  0  0  0
   45.7738   59.0088   31.7945 N   0  0  0  0  0  0  0  0  0  0  0  0
   45.4129   57.7782   32.1619 C   0  0  0  0  0  0  0  0  0  0  0  0
   46.1923   57.0161   32.9281 N   0  0  0  0  0  0  0  0  0  0  0  0
   47.4301   57.4075   33.2590 C   0  0  0  0  0  0  0  0  0  0  0  0
   47.8808   58.6955   32.8270 C   0  0  0  0  0  0  0  0  0  0  0  0
   46.9765   59.4944   32.0745 C   0  0  0  0  0  0  0  0  0  0  0  0
   47.3227   60.7428   31.6395 N   0  0  0  0  0  0  0  0  0  0  0  0
   49.1414   58.8460   33.2782 N   0  0  0  0  0  0  0  0  0  0  0  0
   49.5008   57.7679   33.9395 C   0  0  0  0  0  0  0  0  0  0  0  0
   48.4864   56.8431   33.9810 N   0  0  0  0  0  0  0  0  0  0  0  0
  2  1  1  6  0  0  0
  2  3  1  0  0  0  0
  2  5  1  0  0  0  0
  3  4  1  0  0  0  0
  3 17  1  0  0  0  0
  5  6  1  0  0  0  0
  7  6  1  6  0  0  0
  7  8  1  0  0  0  0
  7  9  1  0  0  0  0
 10  9  1  6  0  0  0
 10 11  1  0  0  0  0
 10 12  1  0  0  0  0
 11 16  1  0  0  0  0
 12 13  1  1  0  0  0
 12 14  1  0  0  0  0
 14 15  1  6  0  0  0
 14 16  1  0  0  0  0
 16 27  1  6  0  0  0
 18 19  2  0  0  0  0
 18 23  1  0  0  0  0
 19 20  1  0  0  0  0
 20 21  2  0  0  0  0
 21 22  1  0  0  0  0
 21 27  1  0  0  0  0
 22 23  2  0  0  0  0
 22 25  1  0  0  0  0
 23 24  1  0  0  0  0
 25 26  2  0  0  0  0
 26 27  1  0  0  0  0
M  END
>  <CHROM.1>
146.87612276,-170.78781785,169.46589363,-63.79009903,-101.08339507,60.57376382
82.32433435,47.91591956,56.02257172,31.92288510,-3.01736562,-1.48261483,0.88204954

>  <Name>
ligand

>  <RI>
0

>  <Rbt.Current_Directory>
/home/itssahil/PROJECTS/Mol_Feturizer/New_Systems/rnas/3IQN

>  <Rbt.Executable>
rbdock ($Id: //depot/dev/client3/rdock/2013.1/src/exe/rbdock.cxx#4 $)

>  <Rbt.Library>
libRbt.so (2013.1, Build901 2013/11/27)

>  <Rbt.Parameter_File>
/export/apps/rDock/src/rDock_2013.1_src/data/scripts/dock_solv.prm

>  <Rbt.Receptor>
prm/pocket_docking_3.prm

>  <SCORE>
-18.8554

>  <SCORE.INTER>
-14.6103

>  <SCORE.INTER.CONST>
1

>  <SCORE.INTER.POLAR>
0

>  <SCORE.INTER.ROT>
7

>  <SCORE.INTER.SOLV>
20.0518

>  <SCORE.INTER.VDW>
-24.6908

>  <SCORE.INTER.norm>
-0.541122

>  <SCORE.INTRA>
-4.24513

>  <SCORE.INTRA.DIHEDRAL>
-3.3504

>  <SCORE.INTRA.DIHEDRAL.0>
10.0365

>  <SCORE.INTRA.POLAR>
0

>  <SCORE.INTRA.POLAR.0>
0

>  <SCORE.INTRA.REPUL>
0

>  <SCORE.INTRA.REPUL.0>
0

>  <SCORE.INTRA.SOLV>
-0.326142

>  <SCORE.INTRA.SOLV.lig_0>
-48.6728

>  <SCORE.INTRA.VDW>
-2.40687

>  <SCORE.INTRA.VDW.0>
-1.10662

>  <SCORE.INTRA.norm>
-0.157227

>  <SCORE.RESTR>
0

>  <SCORE.RESTR.CAVITY>
0

>  <SCORE.RESTR.norm>
0

>  <SCORE.SYSTEM>
0

>  <SCORE.SYSTEM.CONST>
0

>  <SCORE.SYSTEM.DIHEDRAL>
0

>  <SCORE.SYSTEM.SOLV>
0

>  <SCORE.SYSTEM.norm>
0

>  <SCORE.heavy>
27

>  <SCORE.norm>
-0.698349

>  <RMSD>
1.531

$$$$
ligand
 OpenBabel11021811483D
libRbt.so/2013.1/901 2013/11/27
 27 29  0  0  0  0  0  0  0  0999 V2000
   46.7282   56.8719   29.0251 N   0  0  0  0  0  0  0  0  0  0  0  0
   48.0049   56.6687   29.7222 C   0  0  2  0  0  0  0  0  0  0  0  0
   48.8376   57.9046   29.5581 C   0  0  0  0  0  0  0  0  0  0  0  0
   48.9386   58.4298   28.4608 O   0  0  0  0  0  0  0  0  0  0  0  0
   48.7524   55.4663   29.1266 C   0  0  0  0  0  0  0  0  0  0  0  0
   49.9460   55.1353   30.0177 C   0  0  0  0  0  0  0  0  0  0  0  0
   49.9123   53.4367   30.6742 S   0  0  2  0  0  0  0  0  0  0  0  0
   49.4702   52.4027   29.2439 C   0  0  0  0  0  0  0  0  0  0  0  0
   48.4122   53.1587   31.6832 C   0  0  0  0  0  0  0  0  0  0  0  0
   48.8720   53.4956   33.0804 C   0  0  1  0  0  0  0  0  0  0  0  0
   49.0649   54.8712   33.0448 O   0  0  0  0  0  0  0  0  0  0  0  0
   47.9492   53.3535   34.2917 C   0  0  1  0  0  0  0  0  0  0  0  0
   48.0378   52.0919   34.8895 O   0  0  0  0  0  0  0  0  0  0  0  0
   48.5458   54.5431   35.1861 C   0  0  1  0  0  0  0  0  0  0  0  0
   49.9547   54.4474   35.4421 O   0  0  0  0  0  0  0  0  0  0  0  0
   48.1780   55.4837   34.0618 C   0  0  1  0  0  0  0  0  0  0  0  0
   49.3990   58.3897   30.5278 O   0  0  0  0  0  0  0  0  0  0  0  0
   45.6309   59.0802   31.6439 N   0  0  0  0  0  0  0  0  0  0  0  0
   45.3493   57.7932   31.8528 C   0  0  0  0  0  0  0  0  0  0  0  0
   46.1460   57.0076   32.5763 N   0  0  0  0  0  0  0  0  0  0  0  0
   47.3308   57.4475   33.0209 C   0  0  0  0  0  0  0  0  0  0  0  0
   47.7006   58.8053   32.7593 C   0  0  0  0  0  0  0  0  0  0  0  0
   46.7759   59.6167   32.0460 C   0  0  0  0  0  0  0  0  0  0  0  0
   47.0448   60.9281   31.7709 N   0  0  0  0  0  0  0  0  0  0  0  0
   48.9208   58.9945   33.2983 N   0  0  0  0  0  0  0  0  0  0  0  0
   49.3295   57.8773   33.8583 C   0  0  0  0  0  0  0  0  0  0  0  0
   48.3901   56.8828   33.7385 N   0  0  0  0  0  0  0  0  0  0  0  0
  2  1  1  6  0  0  0
  2  3  1  0  0  0  0
  2  5  1  0  0  0  0
  3  4  1  0  0  0  0
  3 17  1  0  0  0  0
  5  6  1  0  0  0  0
  7  6  1  6  0  0  0
  7  8  1  0  0  0  0
  7  9  1  0  0  0  0
 10  9  1  6  0  0  0
 10 11  1  0  0  0  0
 10 12  1  0  0  0  0
 11 16  1  0  0  0  0
 12 13  1  1  0  0  0
 12 14  1  0  0  0  0
 14 15  1  6  0  0  0
 14 16  1  0  0  0  0
 16 27  1  1  0  0  0
 18 19  2  0  0  0  0
 18 23  1  0  0  0  0
 19 20  1  0  0  0  0
 20 21  2  0  0  0  0
 21 22  1  0  0  0  0
 21 27  1  0  0  0  0
 22 23  2  0  0  0  0
 22 25  1  0  0  0  0
 23 24  1  0  0  0  0
 25 26  2  0  0  0  0
 26 27  1  0  0  0  0
M  END
>  <CHROM.1>
-45.87125196,-170.34977970,121.40586984,45.17103460,-92.46750958,69.39355934
103.10908602,48.33151664,56.11833034,31.94315707,-2.44024861,-1.22022144
1.99011856

>  <Name>
ligand

>  <RI>
0

>  <Rbt.Current_Directory>
/home/itssahil/PROJECTS/Mol_Feturizer/New_Systems/rnas/3IQN

>  <Rbt.Executable>
rbdock ($Id: //depot/dev/client3/rdock/2013.1/src/exe/rbdock.cxx#4 $)

>  <Rbt.Library>
libRbt.so (2013.1, Build901 2013/11/27)

>  <Rbt.Parameter_File>
/export/apps/rDock/src/rDock_2013.1_src/data/scripts/dock_solv.prm

>  <Rbt.Receptor>
prm/pocket_docking_3.prm

>  <SCORE>
-20.2671

>  <SCORE.INTER>
-17.1391

>  <SCORE.INTER.CONST>
1

>  <SCORE.INTER.POLAR>
0

>  <SCORE.INTER.ROT>
7

>  <SCORE.INTER.SOLV>
17.9039

>  <SCORE.INTER.VDW>
-25.6607

>  <SCORE.INTER.norm>
-0.634783

>  <SCORE.INTRA>
-3.12797

>  <SCORE.INTRA.DIHEDRAL>
1.27325

>  <SCORE.INTRA.DIHEDRAL.0>
10.0365

>  <SCORE.INTRA.POLAR>
0

>  <SCORE.INTRA.POLAR.0>
0

>  <SCORE.INTRA.REPUL>
0

>  <SCORE.INTRA.REPUL.0>
0

>  <SCORE.INTRA.SOLV>
0.28493

>  <SCORE.INTRA.SOLV.lig_0>
-48.6728

>  <SCORE.INTRA.VDW>
-3.90706

>  <SCORE.INTRA.VDW.0>
-1.10662

>  <SCORE.INTRA.norm>
-0.115851

>  <SCORE.RESTR>
0

>  <SCORE.RESTR.CAVITY>
0

>  <SCORE.RESTR.norm>
0

>  <SCORE.SYSTEM>
0

>  <SCORE.SYSTEM.CONST>
0

>  <SCORE.SYSTEM.DIHEDRAL>
0

>  <SCORE.SYSTEM.SOLV>
0

>  <SCORE.SYSTEM.norm>
0

>  <SCORE.heavy>
27

>  <SCORE.norm>
-0.750633

>  <RMSD>
1.549

$$$$
ligand
 OpenBabel11021811483D
libRbt.so/2013.1/901 2013/11/27
 27 29  0  0  0  0  0  0  0  0999 V2000
   50.1055   56.2309   29.6735 N   0  0  0  0  0  0  0  0  0  0  0  0
   49.5281   55.1865   28.8173 C   0  0  2  0  0  0  0  0  0  0  0  0
   50.0270   55.3898   27.4183 C   0  0  0  0  0  0  0  0  0  0  0  0
   51.0485   54.8329   27.0488 O   0  0  0  0  0  0  0  0  0  0  0  0
   47.9946   55.2734   28.8305 C   0  0  0  0  0  0  0  0  0  0  0  0
   47.5004   55.0739   30.2603 C   0  0  0  0  0  0  0  0  0  0  0  0
   47.9413   53.4514   30.9607 S   0  0  2  0  0  0  0  0  0  0  0  0
   47.0605   52.2489   29.9173 C   0  0  0  0  0  0  0  0  0  0  0  0
   47.0475   53.1550   32.5289 C   0  0  0  0  0  0  0  0  0  0  0  0
   48.0951   53.4347   33.5782 C   0  0  1  0  0  0  0  0  0  0  0  0
   48.4861   54.7424   33.3181 O   0  0  0  0  0  0  0  0  0  0  0  0
   47.7484   53.5158   35.0656 C   0  0  1  0  0  0  0  0  0  0  0  0
   47.8615   52.2802   35.7117 O   0  0  0  0  0  0  0  0  0  0  0  0
   48.8544   54.5883   35.5096 C   0  0  1  0  0  0  0  0  0  0  0  0
   50.2039   54.2210   35.1877 O   0  0  0  0  0  0  0  0  0  0  0  0
   48.2189   55.5496   34.5317 C   0  0  1  0  0  0  0  0  0  0  0  0
   49.3994   56.1004   26.6488 O   0  0  0  0  0  0  0  0  0  0  0  0
   45.8105   58.9493   31.7191 N   0  0  0  0  0  0  0  0  0  0  0  0
   45.4505   57.7306   32.1247 C   0  0  0  0  0  0  0  0  0  0  0  0
   46.2259   56.9974   32.9225 N   0  0  0  0  0  0  0  0  0  0  0  0
   47.4596   57.4041   33.2503 C   0  0  0  0  0  0  0  0  0  0  0  0
   47.9098   58.6784   32.7789 C   0  0  0  0  0  0  0  0  0  0  0  0
   47.0093   59.4483   31.9925 C   0  0  0  0  0  0  0  0  0  0  0  0
   47.3550   60.6826   31.5186 N   0  0  0  0  0  0  0  0  0  0  0  0
   49.1661   58.8485   33.2353 N   0  0  0  0  0  0  0  0  0  0  0  0
   49.5234   57.7945   33.9354 C   0  0  0  0  0  0  0  0  0  0  0  0
   48.5117   56.8680   33.9996 N   0  0  0  0  0  0  0  0  0  0  0  0
  2  1  1  1  0  0  0
  2  3  1  0  0  0  0
  2  5  1  0  0  0  0
  3  4  1  0  0  0  0
  3 17  1  0  0  0  0
  5  6  1  0  0  0  0
  7  6  1  6  0  0  0
  7  8  1  0  0  0  0
  7  9  1  0  0  0  0
 10  9  1  6  0  0  0
 10 11  1  0  0  0  0
 10 12  1  0  0  0  0
 11 16  1  0  0  0  0
 12 13  1  1  0  0  0
 12 14  1  0  0  0  0
 14 15  1  6  0  0  0
 14 16  1  0  0  0  0
 16 27  1  6  0  0  0
 18 19  2  0  0  0  0
 18 23  1  0  0  0  0
 19 20  1  0  0  0  0
 20 21  2  0  0  0  0
 21 22  1  0  0  0  0
 21 27  1  0  0  0  0
 22 23  2  0  0  0  0
 22 25  1  0  0  0  0
 23 24  1  0  0  0  0
 25 26  2  0  0  0  0
 26 27  1  0  0  0  0
M  END
>  <CHROM.1>
90.95916961,-60.37691512,-61.22002127,-63.63970277,-102.02336937,57.72553197
80.08078456,48.22634627,55.67900219,31.86475475,0.74984390,1.32997801,-0.71125334

>  <Name>
ligand

>  <RI>
0

>  <Rbt.Current_Directory>
/home/itssahil/PROJECTS/Mol_Feturizer/New_Systems/rnas/3IQN

>  <Rbt.Executable>
rbdock ($Id: //depot/dev/client3/rdock/2013.1/src/exe/rbdock.cxx#4 $)

>  <Rbt.Library>
libRbt.so (2013.1, Build901 2013/11/27)

>  <Rbt.Parameter_File>
/export/apps/rDock/src/rDock_2013.1_src/data/scripts/dock_solv.prm

>  <Rbt.Receptor>
prm/pocket_docking_3.prm

>  <SCORE>
-15.7897

>  <SCORE.INTER>
-12.9736

>  <SCORE.INTER.CONST>
1

>  <SCORE.INTER.POLAR>
0

>  <SCORE.INTER.ROT>
7

>  <SCORE.INTER.SOLV>
19.2976

>  <SCORE.INTER.VDW>
-23.3483

>  <SCORE.INTER.norm>
-0.480504

>  <SCORE.INTRA>
-2.8161

>  <SCORE.INTRA.DIHEDRAL>
-3.90308

>  <SCORE.INTRA.DIHEDRAL.0>
10.0365

>  <SCORE.INTRA.POLAR>
0

>  <SCORE.INTRA.POLAR.0>
0

>  <SCORE.INTRA.REPUL>
0

>  <SCORE.INTRA.REPUL.0>
0

>  <SCORE.INTRA.SOLV>
0.353507

>  <SCORE.INTRA.SOLV.lig_0>
-48.6728

>  <SCORE.INTRA.VDW>
-1.04131

>  <SCORE.INTRA.VDW.0>
-1.10662

>  <SCORE.INTRA.norm>
-0.1043

>  <SCORE.RESTR>
0

>  <SCORE.RESTR.CAVITY>
0

>  <SCORE.RESTR.norm>
0

>  <SCORE.SYSTEM>
0

>  <SCORE.SYSTEM.CONST>
0

>  <SCORE.SYSTEM.DIHEDRAL>
0

>  <SCORE.SYSTEM.SOLV>
0

>  <SCORE.SYSTEM.norm>
0

>  <SCORE.heavy>
27

>  <SCORE.norm>
-0.584804

>  <RMSD>
1.712

$$$$
ligand
 OpenBabel11021811483D
libRbt.so/2013.1/901 2013/11/27
 27 29  0  0  0  0  0  0  0  0999 V2000
   49.0633   57.5774   28.7180 N   0  0  0  0  0  0  0  0  0  0  0  0
   49.2243   56.5725   27.6590 C   0  0  2  0  0  0  0  0  0  0  0  0
   47.9207   56.4362   26.9315 C   0  0  0  0  0  0  0  0  0  0  0  0
   47.6070   55.3641   26.4392 O   0  0  0  0  0  0  0  0  0  0  0  0
   49.6153   55.2165   28.2653 C   0  0  0  0  0  0  0  0  0  0  0  0
   48.6778   54.9063   29.4286 C   0  0  0  0  0  0  0  0  0  0  0  0
   48.9679   53.2719   30.1783 S   0  0  2  0  0  0  0  0  0  0  0  0
   48.1926   52.0966   29.0259 C   0  0  0  0  0  0  0  0  0  0  0  0
   47.8657   53.0098   31.6144 C   0  0  0  0  0  0  0  0  0  0  0  0
   48.4585   53.9109   32.6698 C   0  0  1  0  0  0  0  0  0  0  0  0
   47.9224   55.1598   32.3807 O   0  0  0  0  0  0  0  0  0  0  0  0
   48.1013   53.7666   34.1498 C   0  0  1  0  0  0  0  0  0  0  0  0
   48.9660   52.9021   34.8294 O   0  0  0  0  0  0  0  0  0  0  0  0
   48.2444   55.3045   34.5801 C   0  0  1  0  0  0  0  0  0  0  0  0
   49.5214   55.8894   34.2857 O   0  0  0  0  0  0  0  0  0  0  0  0
   47.1657   55.6188   33.5692 C   0  0  1  0  0  0  0  0  0  0  0  0
   47.1704   57.3958   26.8482 O   0  0  0  0  0  0  0  0  0  0  0  0
   48.7766   60.0459   31.8160 N   0  0  0  0  0  0  0  0  0  0  0  0
   49.4387   59.0202   32.3536 C   0  0  0  0  0  0  0  0  0  0  0  0
   48.8211   57.8957   32.7133 N   0  0  0  0  0  0  0  0  0  0  0  0
   47.4860   57.7956   32.6657 C   0  0  0  0  0  0  0  0  0  0  0  0
   46.7328   58.9014   32.1571 C   0  0  0  0  0  0  0  0  0  0  0  0
   47.4533   60.0465   31.7190 C   0  0  0  0  0  0  0  0  0  0  0  0
   46.8108   61.1372   31.2040 N   0  0  0  0  0  0  0  0  0  0  0  0
   45.4319   58.5563   32.2183 N   0  0  0  0  0  0  0  0  0  0  0  0
   45.3236   57.3464   32.7215 C   0  0  0  0  0  0  0  0  0  0  0  0
   46.5549   56.8094   33.0068 N   0  0  0  0  0  0  0  0  0  0  0  0
  2  1  1  1  0  0  0
  2  3  1  0  0  0  0
  2  5  1  0  0  0  0
  3  4  1  0  0  0  0
  3 17  1  0  0  0  0
  5  6  1  0  0  0  0
  7  6  1  6  0  0  0
  7  8  1  0  0  0  0
  7  9  1  0  0  0  0
 10  9  1  6  0  0  0
 10 11  1  0  0  0  0
 10 12  1  0  0  0  0
 11 16  1  0  0  0  0
 12 13  1  1  0  0  0
 12 14  1  0  0  0  0
 14 15  1  6  0  0  0
 14 16  1  0  0  0  0
 16 27  1  6  0  0  0
 18 19  2  0  0  0  0
 18 23  1  0  0  0  0
 19 20  1  0  0  0  0
 20 21  2  0  0  0  0
 21 22  1  0  0  0  0
 21 27  1  0  0  0  0
 22 23  2  0  0  0  0
 22 25  1  0  0  0  0
 23 24  1  0  0  0  0
 25 26  2  0  0  0  0
 26 27  1  0  0  0  0
M  END
>  <CHROM.1>
-149.11514204,48.27178938,176.51154340,-77.65823827,-73.00068619,83.07719412
-65.31183210,48.04962616,56.14662915,31.17965379,0.84666842,1.36424890,-1.33270234

>  <Name>
ligand

>  <RI>
0

>  <Rbt.Current_Directory>
/home/itssahil/PROJECTS/Mol_Feturizer/New_Systems/rnas/3IQN

>  <Rbt.Executable>
rbdock ($Id: //depot/dev/client3/rdock/2013.1/src/exe/rbdock.cxx#4 $)

>  <Rbt.Library>
libRbt.so (2013.1, Build901 2013/11/27)

>  <Rbt.Parameter_File>
/export/apps/rDock/src/rDock_2013.1_src/data/scripts/dock_solv.prm

>  <Rbt.Receptor>
prm/pocket_docking_3.prm

>  <SCORE>
-14.1648

>  <SCORE.INTER>
-11.8522

>  <SCORE.INTER.CONST>
1

>  <SCORE.INTER.POLAR>
0

>  <SCORE.INTER.ROT>
7

>  <SCORE.INTER.SOLV>
21.077

>  <SCORE.INTER.VDW>
-23.1938

>  <SCORE.INTER.norm>
-0.43897

>  <SCORE.INTRA>
-2.31265

>  <SCORE.INTRA.DIHEDRAL>
-4.21503

>  <SCORE.INTRA.DIHEDRAL.0>
10.0365

>  <SCORE.INTRA.POLAR>
0

>  <SCORE.INTRA.POLAR.0>
0

>  <SCORE.INTRA.REPUL>
0

>  <SCORE.INTRA.REPUL.0>
0

>  <SCORE.INTRA.SOLV>
0.0546697

>  <SCORE.INTRA.SOLV.lig_0>
-48.6728

>  <SCORE.INTRA.VDW>
-0.232467

>  <SCORE.INTRA.VDW.0>
-1.10662

>  <SCORE.INTRA.norm>
-0.0856536

>  <SCORE.RESTR>
0

>  <SCORE.RESTR.CAVITY>
0

>  <SCORE.RESTR.norm>
0

>  <SCORE.SYSTEM>
0

>  <SCORE.SYSTEM.CONST>
0

>  <SCORE.SYSTEM.DIHEDRAL>
0

>  <SCORE.SYSTEM.SOLV>
0

>  <SCORE.SYSTEM.norm>
0

>  <SCORE.heavy>
27

>  <SCORE.norm>
-0.524624

>  <RMSD>
1.863

$$$$
ligand
 OpenBabel11021811483D
libRbt.so/2013.1/901 2013/11/27
 27 29  0  0  0  0  0  0  0  0999 V2000
   46.6668   57.5088   28.5467 N   0  0  0  0  0  0  0  0  0  0  0  0
   47.8870   56.7149   28.3512 C   0  0  2  0  0  0  0  0  0  0  0  0
   47.9523   56.2904   26.9149 C   0  0  0  0  0  0  0  0  0  0  0  0
   48.1905   55.1265   26.6339 O   0  0  0  0  0  0  0  0  0  0  0  0
   47.8637   55.4704   29.2512 C   0  0  0  0  0  0  0  0  0  0  0  0
   49.2843   54.9298   29.3843 C   0  0  0  0  0  0  0  0  0  0  0  0
   49.3623   53.2706   30.1315 S   0  0  2  0  0  0  0  0  0  0  0  0
   48.5837   52.1788   28.9018 C   0  0  0  0  0  0  0  0  0  0  0  0
   48.1245   53.0997   31.4674 C   0  0  0  0  0  0  0  0  0  0  0  0
   48.6871   53.9651   32.5682 C   0  0  1  0  0  0  0  0  0  0  0  0
   48.1269   55.2140   32.3291 O   0  0  0  0  0  0  0  0  0  0  0  0
   48.3184   53.7473   34.0364 C   0  0  1  0  0  0  0  0  0  0  0  0
   49.1950   52.8719   34.6862 O   0  0  0  0  0  0  0  0  0  0  0  0
   48.4239   55.2671   34.5361 C   0  0  1  0  0  0  0  0  0  0  0  0
   49.6908   55.8916   34.2819 O   0  0  0  0  0  0  0  0  0  0  0  0
   47.3487   55.6033   33.5286 C   0  0  1  0  0  0  0  0  0  0  0  0
   47.7510   57.1090   26.0316 O   0  0  0  0  0  0  0  0  0  0  0  0
   48.8987   59.9848   31.6132 N   0  0  0  0  0  0  0  0  0  0  0  0
   49.5821   58.9471   32.0985 C   0  0  0  0  0  0  0  0  0  0  0  0
   48.9734   57.8385   32.5178 N   0  0  0  0  0  0  0  0  0  0  0  0
   47.6373   57.7681   32.5863 C   0  0  0  0  0  0  0  0  0  0  0  0
   46.8674   58.8880   32.1372 C   0  0  0  0  0  0  0  0  0  0  0  0
   47.5722   60.0146   31.6309 C   0  0  0  0  0  0  0  0  0  0  0  0
   46.9116   61.1169   31.1661 N   0  0  0  0  0  0  0  0  0  0  0  0
   45.5694   58.5725   32.3128 N   0  0  0  0  0  0  0  0  0  0  0  0
   45.4785   57.3677   32.8315 C   0  0  0  0  0  0  0  0  0  0  0  0
   46.7179   56.8046   33.0130 N   0  0  0  0  0  0  0  0  0  0  0  0
  2  1  1  6  0  0  0
  2  3  1  0  0  0  0
  2  5  1  0  0  0  0
  3  4  1  0  0  0  0
  3 17  1  0  0  0  0
  5  6  1  0  0  0  0
  7  6  1  6  0  0  0
  7  8  1  0  0  0  0
  7  9  1  0  0  0  0
 10  9  1  6  0  0  0
 10 11  1  0  0  0  0
 10 12  1  0  0  0  0
 11 16  1  0  0  0  0
 12 13  1  1  0  0  0
 12 14  1  0  0  0  0
 14 15  1  6  0  0  0
 14 16  1  0  0  0  0
 16 27  1  6  0  0  0
 18 19  2  0  0  0  0
 18 23  1  0  0  0  0
 19 20  1  0  0  0  0
 20 21  2  0  0  0  0
 21 22  1  0  0  0  0
 21 27  1  0  0  0  0
 22 23  2  0  0  0  0
 22 25  1  0  0  0  0
 23 24  1  0  0  0  0
 25 26  2  0  0  0  0
 26 27  1  0  0  0  0
M  END
>  <CHROM.1>
-131.99700714,-161.40047455,-167.98268213,67.14992872,-71.55807087,90.53647563
-58.57592706,48.08087090,56.13126319,31.15012682,0.97990651,1.31595288,-1.67508687

>  <Name>
ligand

>  <RI>
0

>  <Rbt.Current_Directory>
/home/itssahil/PROJECTS/Mol_Feturizer/New_Systems/rnas/3IQN

>  <Rbt.Executable>
rbdock ($Id: //depot/dev/client3/rdock/2013.1/src/exe/rbdock.cxx#4 $)

>  <Rbt.Library>
libRbt.so (2013.1, Build901 2013/11/27)

>  <Rbt.Parameter_File>
/export/apps/rDock/src/rDock_2013.1_src/data/scripts/dock_solv.prm

>  <Rbt.Receptor>
prm/pocket_docking_2.prm

>  <SCORE>
-13.0521

>  <SCORE.INTER>
-10.9822

>  <SCORE.INTER.CONST>
1

>  <SCORE.INTER.POLAR>
0

>  <SCORE.INTER.ROT>
7

>  <SCORE.INTER.SOLV>
18.2983

>  <SCORE.INTER.VDW>
-21.6876

>  <SCORE.INTER.norm>
-0.40675

>  <SCORE.INTRA>
-2.36029

>  <SCORE.INTRA.DIHEDRAL>
-1.8088

>  <SCORE.INTRA.DIHEDRAL.0>
10.0365

>  <SCORE.INTRA.POLAR>
0

>  <SCORE.INTRA.POLAR.0>
0

>  <SCORE.INTRA.REPUL>
0

>  <SCORE.INTRA.REPUL.0>
0

>  <SCORE.INTRA.SOLV>
-0.674394

>  <SCORE.INTRA.SOLV.lig_0>
-48.6728

>  <SCORE.INTRA.VDW>
-1.1187

>  <SCORE.INTRA.VDW.0>
-1.10662

>  <SCORE.INTRA.norm>
-0.0874183

>  <SCORE.RESTR>
0.290458

>  <SCORE.RESTR.CAVITY>
0.290458

>  <SCORE.RESTR.norm>
0.0107577

>  <SCORE.SYSTEM>
0

>  <SCORE.SYSTEM.CONST>
0

>  <SCORE.SYSTEM.DIHEDRAL>
0

>  <SCORE.SYSTEM.SOLV>
0

>  <SCORE.SYSTEM.norm>
0

>  <SCORE.heavy>
27

>  <SCORE.norm>
-0.48341

>  <RMSD>
1.909

$$$$
ligand
 OpenBabel11021811483D
libRbt.so/2013.1/901 2013/11/27
 27 29  0  0  0  0  0  0  0  0999 V2000
   47.7489   55.8471   29.1712 N   0  0  0  0  0  0  0  0  0  0  0  0
   48.8026   56.5420   28.4201 C   0  0  2  0  0  0  0  0  0  0  0  0
   48.1921   57.1403   27.1885 C   0  0  0  0  0  0  0  0  0  0  0  0
   47.8141   58.3010   27.1982 O   0  0  0  0  0  0  0  0  0  0  0  0
   49.9079   55.5554   28.0148 C   0  0  0  0  0  0  0  0  0  0  0  0
   50.7293   55.1984   29.2502 C   0  0  0  0  0  0  0  0  0  0  0  0
   50.3533   53.5465   29.9191 S   0  0  2  0  0  0  0  0  0  0  0  0
   49.9722   52.5365   28.4545 C   0  0  0  0  0  0  0  0  0  0  0  0
   48.7005   53.5223   30.7022 C   0  0  0  0  0  0  0  0  0  0  0  0
   48.9522   54.1469   32.0525 C   0  0  1  0  0  0  0  0  0  0  0  0
   48.2918   55.3674   31.9832 O   0  0  0  0  0  0  0  0  0  0  0  0
   48.3644   53.5605   33.3369 C   0  0  1  0  0  0  0  0  0  0  0  0
   49.2164   52.6306   33.9420 O   0  0  0  0  0  0  0  0  0  0  0  0
   48.1927   54.9234   34.1638 C   0  0  1  0  0  0  0  0  0  0  0  0
   49.3973   55.6905   34.3051 O   0  0  0  0  0  0  0  0  0  0  0  0
   47.2753   55.3992   33.0610 C   0  0  1  0  0  0  0  0  0  0  0  0
   48.0900   56.4671   26.1750 O   0  0  0  0  0  0  0  0  0  0  0  0
   48.6542   60.0942   31.9099 N   0  0  0  0  0  0  0  0  0  0  0  0
   49.3743   59.0290   32.2653 C   0  0  0  0  0  0  0  0  0  0  0  0
   48.8122   57.8405   32.4814 N   0  0  0  0  0  0  0  0  0  0  0  0
   47.4804   57.6948   32.4728 C   0  0  0  0  0  0  0  0  0  0  0  0
   46.6679   58.8312   32.1613 C   0  0  0  0  0  0  0  0  0  0  0  0
   47.3286   60.0556   31.8668 C   0  0  0  0  0  0  0  0  0  0  0  0
   46.6268   61.1825   31.5424 N   0  0  0  0  0  0  0  0  0  0  0  0
   45.3836   58.4290   32.2232 N   0  0  0  0  0  0  0  0  0  0  0  0
   45.3392   57.1558   32.5483 C   0  0  0  0  0  0  0  0  0  0  0  0
   46.5997   56.6331   32.7030 N   0  0  0  0  0  0  0  0  0  0  0  0
  2  1  1  6  0  0  0
  2  3  1  0  0  0  0
  2  5  1  0  0  0  0
  3  4  1  0  0  0  0
  3 17  1  0  0  0  0
  5  6  1  0  0  0  0
  7  6  1  6  0  0  0
  7  8  1  0  0  0  0
  7  9  1  0  0  0  0
 10  9  1  6  0  0  0
 10 11  1  0  0  0  0
 10 12  1  0  0  0  0
 11 16  1  0  0  0  0
 12 13  1  1  0  0  0
 12 14  1  0  0  0  0
 14 15  1  6  0  0  0
 14 16  1  0  0  0  0
 16 27  1  1  0  0  0
 18 19  2  0  0  0  0
 18 23  1  0  0  0  0
 19 20  1  0  0  0  0
 20 21  2  0  0  0  0
 21 22  1  0  0  0  0
 21 27  1  0  0  0  0
 22 23  2  0  0  0  0
 22 25  1  0  0  0  0
 23 24  1  0  0  0  0
 25 26  2  0  0  0  0
 26 27  1  0  0  0  0
M  END
>  <CHROM.1>
94.57726986,-73.56287575,103.87187192,34.16447758,-79.75346899,111.21123244
-48.84771237,48.36801823,56.21817440,30.99800374,0.01121368,1.14944157,-1.16118078

>  <Name>
ligand

>  <RI>
0

>  <Rbt.Current_Directory>
/home/itssahil/PROJECTS/Mol_Feturizer/New_Systems/rnas/3IQN

>  <Rbt.Executable>
rbdock ($Id: //depot/dev/client3/rdock/2013.1/src/exe/rbdock.cxx#4 $)

>  <Rbt.Library>
libRbt.so (2013.1, Build901 2013/11/27)

>  <Rbt.Parameter_File>
/export/apps/rDock/src/rDock_2013.1_src/data/scripts/dock_solv.prm

>  <Rbt.Receptor>
prm/pocket_docking_3.prm

>  <SCORE>
-10.575

>  <SCORE.INTER>
-14.8262

>  <SCORE.INTER.CONST>
1

>  <SCORE.INTER.POLAR>
0

>  <SCORE.INTER.ROT>
7

>  <SCORE.INTER.SOLV>
17.4442

>  <SCORE.INTER.VDW>
-23.9655

>  <SCORE.INTER.norm>
-0.549118

>  <SCORE.INTRA>
4.25115

>  <SCORE.INTRA.DIHEDRAL>
4.65079

>  <SCORE.INTRA.DIHEDRAL.0>
10.0365

>  <SCORE.INTRA.POLAR>
0

>  <SCORE.INTRA.POLAR.0>
0

>  <SCORE.INTRA.REPUL>
0

>  <SCORE.INTRA.REPUL.0>
0

>  <SCORE.INTRA.SOLV>
4.18897

>  <SCORE.INTRA.SOLV.lig_0>
-48.6728

>  <SCORE.INTRA.VDW>
-0.168725

>  <SCORE.INTRA.VDW.0>
-1.10662

>  <SCORE.INTRA.norm>
0.15745

>  <SCORE.RESTR>
0

>  <SCORE.RESTR.CAVITY>
0

>  <SCORE.RESTR.norm>
0

>  <SCORE.SYSTEM>
0

>  <SCORE.SYSTEM.CONST>
0

>  <SCORE.SYSTEM.DIHEDRAL>
0

>  <SCORE.SYSTEM.SOLV>
0

>  <SCORE.SYSTEM.norm>
0

>  <SCORE.heavy>
27

>  <SCORE.norm>
-0.391668

>  <RMSD>
1.950

$$$$
ligand
 OpenBabel11021811483D
libRbt.so/2013.1/901 2013/11/27
 27 29  0  0  0  0  0  0  0  0999 V2000
   49.4944   57.5145   28.2589 N   0  0  0  0  0  0  0  0  0  0  0  0
   48.7440   56.3974   27.6703 C   0  0  2  0  0  0  0  0  0  0  0  0
   47.5200   56.1571   28.5019 C   0  0  0  0  0  0  0  0  0  0  0  0
   47.0492   55.0337   28.5825 O   0  0  0  0  0  0  0  0  0  0  0  0
   49.6065   55.1266   27.6515 C   0  0  0  0  0  0  0  0  0  0  0  0
   50.3204   54.9937   28.9935 C   0  0  0  0  0  0  0  0  0  0  0  0
   50.1156   53.3567   29.7654 S   0  0  2  0  0  0  0  0  0  0  0  0
   49.6024   52.2689   28.4002 C   0  0  0  0  0  0  0  0  0  0  0  0
   48.5789   53.2919   30.7555 C   0  0  0  0  0  0  0  0  0  0  0  0
   48.9589   54.0136   32.0250 C   0  0  1  0  0  0  0  0  0  0  0  0
   48.3229   55.2438   31.9118 O   0  0  0  0  0  0  0  0  0  0  0  0
   48.4695   53.5483   33.3972 C   0  0  1  0  0  0  0  0  0  0  0  0
   49.3486   52.6445   34.0030 O   0  0  0  0  0  0  0  0  0  0  0  0
   48.3999   54.9768   34.1219 C   0  0  1  0  0  0  0  0  0  0  0  0
   49.6292   55.7168   34.0998 O   0  0  0  0  0  0  0  0  0  0  0  0
   47.4029   55.3907   33.0641 C   0  0  1  0  0  0  0  0  0  0  0  0
   47.0080   57.0849   29.1083 O   0  0  0  0  0  0  0  0  0  0  0  0
   48.7861   60.0157   31.6625 N   0  0  0  0  0  0  0  0  0  0  0  0
   49.5072   58.9627   32.0507 C   0  0  0  0  0  0  0  0  0  0  0  0
   48.9422   57.7901   32.3353 N   0  0  0  0  0  0  0  0  0  0  0  0
   47.6096   57.6546   32.3643 C   0  0  0  0  0  0  0  0  0  0  0  0
   46.7978   58.7816   32.0188 C   0  0  0  0  0  0  0  0  0  0  0  0
   47.4596   59.9856   31.6519 C   0  0  0  0  0  0  0  0  0  0  0  0
   46.7580   61.1016   31.2914 N   0  0  0  0  0  0  0  0  0  0  0  0
   45.5125   58.3928   32.1291 N   0  0  0  0  0  0  0  0  0  0  0  0
   45.4672   57.1365   32.5145 C   0  0  0  0  0  0  0  0  0  0  0  0
   46.7274   56.6118   32.6644 N   0  0  0  0  0  0  0  0  0  0  0  0
  2  1  1  1  0  0  0
  2  3  1  0  0  0  0
  2  5  1  0  0  0  0
  3  4  1  0  0  0  0
  3 17  1  0  0  0  0
  5  6  1  0  0  0  0
  7  6  1  6  0  0  0
  7  8  1  0  0  0  0
  7  9  1  0  0  0  0
 10  9  1  6  0  0  0
 10 11  1  0  0  0  0
 10 12  1  0  0  0  0
 11 16  1  0  0  0  0
 12 13  1  1  0  0  0
 12 14  1  0  0  0  0
 14 15  1  6  0  0  0
 14 16  1  0  0  0  0
 16 27  1  1  0  0  0
 18 19  2  0  0  0  0
 18 23  1  0  0  0  0
 19 20  1  0  0  0  0
 20 21  2  0  0  0  0
 21 22  1  0  0  0  0
 21 27  1  0  0  0  0
 22 23  2  0  0  0  0
 22 25  1  0  0  0  0
 23 24  1  0  0  0  0
 25 26  2  0  0  0  0
 26 27  1  0  0  0  0
M  END
>  <CHROM.1>
-150.07824221,44.03907257,129.00524693,18.93225642,-78.44185287,105.62585201
-52.98042948,48.34307936,56.05348375,31.06365774,-3.09282663,-1.21066090
1.95337771

>  <Name>
ligand

>  <RI>
0

>  <Rbt.Current_Directory>
/home/itssahil/PROJECTS/Mol_Feturizer/New_Systems/rnas/3IQN

>  <Rbt.Executable>
rbdock ($Id: //depot/dev/client3/rdock/2013.1/src/exe/rbdock.cxx#4 $)

>  <Rbt.Library>
libRbt.so (2013.1, Build901 2013/11/27)

>  <Rbt.Parameter_File>
/export/apps/rDock/src/rDock_2013.1_src/data/scripts/dock_solv.prm

>  <Rbt.Receptor>
prm/pocket_docking_2.prm

>  <SCORE>
-5.75787

>  <SCORE.INTER>
-9.24652

>  <SCORE.INTER.CONST>
1

>  <SCORE.INTER.POLAR>
0

>  <SCORE.INTER.ROT>
7

>  <SCORE.INTER.SOLV>
21.93

>  <SCORE.INTER.VDW>
-21.741

>  <SCORE.INTER.norm>
-0.342464

>  <SCORE.INTRA>
3.47878

>  <SCORE.INTRA.DIHEDRAL>
6.72683

>  <SCORE.INTRA.DIHEDRAL.0>
10.0365

>  <SCORE.INTRA.POLAR>
0

>  <SCORE.INTRA.POLAR.0>
0

>  <SCORE.INTRA.REPUL>
0

>  <SCORE.INTRA.REPUL.0>
0

>  <SCORE.INTRA.SOLV>
0.109584

>  <SCORE.INTRA.SOLV.lig_0>
-48.6728

>  <SCORE.INTRA.VDW>
0.0605678

>  <SCORE.INTRA.VDW.0>
-1.10662

>  <SCORE.INTRA.norm>
0.128844

>  <SCORE.RESTR>
0.0098833

>  <SCORE.RESTR.CAVITY>
0.0098833

>  <SCORE.RESTR.norm>
0.000366048

>  <SCORE.SYSTEM>
0

>  <SCORE.SYSTEM.CONST>
0

>  <SCORE.SYSTEM.DIHEDRAL>
0

>  <SCORE.SYSTEM.SOLV>
0

>  <SCORE.SYSTEM.norm>
0

>  <SCORE.heavy>
27

>  <SCORE.norm>
-0.213254

>  <RMSD>
1.964

$$$$
ligand
 OpenBabel11021811483D
libRbt.so/2013.1/901 2013/11/27
 27 29  0  0  0  0  0  0  0  0999 V2000
   47.7093   57.8094   28.3779 N   0  0  0  0  0  0  0  0  0  0  0  0
   48.7753   56.8190   28.1778 C   0  0  2  0  0  0  0  0  0  0  0  0
   48.4001   55.9449   27.0191 C   0  0  0  0  0  0  0  0  0  0  0  0
   49.0479   55.9922   25.9855 O   0  0  0  0  0  0  0  0  0  0  0  0
   48.9434   55.9546   29.4364 C   0  0  0  0  0  0  0  0  0  0  0  0
   50.2385   55.1563   29.3186 C   0  0  0  0  0  0  0  0  0  0  0  0
   50.0869   53.4375   29.9017 S   0  0  2  0  0  0  0  0  0  0  0  0
   49.5462   52.5040   28.4366 C   0  0  0  0  0  0  0  0  0  0  0  0
   48.5857   53.2277   30.9256 C   0  0  0  0  0  0  0  0  0  0  0  0
   48.9414   53.9438   32.2053 C   0  0  1  0  0  0  0  0  0  0  0  0
   48.3469   55.1918   32.0648 O   0  0  0  0  0  0  0  0  0  0  0  0
   48.3892   53.4997   33.5607 C   0  0  1  0  0  0  0  0  0  0  0  0
   49.2185   52.5729   34.2011 O   0  0  0  0  0  0  0  0  0  0  0  0
   48.3364   54.9331   34.2772 C   0  0  1  0  0  0  0  0  0  0  0  0
   49.5874   55.6360   34.2968 O   0  0  0  0  0  0  0  0  0  0  0  0
   47.3910   55.3715   33.1827 C   0  0  1  0  0  0  0  0  0  0  0  0
   47.4561   55.1772   27.1204 O   0  0  0  0  0  0  0  0  0  0  0  0
   48.9630   59.9382   31.7887 N   0  0  0  0  0  0  0  0  0  0  0  0
   49.6381   58.8658   32.2056 C   0  0  0  0  0  0  0  0  0  0  0  0
   49.0275   57.7142   32.4819 N   0  0  0  0  0  0  0  0  0  0  0  0
   47.6910   57.6218   32.4728 C   0  0  0  0  0  0  0  0  0  0  0  0
   46.9263   58.7713   32.0954 C   0  0  0  0  0  0  0  0  0  0  0  0
   47.6371   59.9505   31.7394 C   0  0  0  0  0  0  0  0  0  0  0  0
   46.9827   61.0854   31.3503 N   0  0  0  0  0  0  0  0  0  0  0  0
   45.6265   58.4248   32.1708 N   0  0  0  0  0  0  0  0  0  0  0  0
   45.5295   57.1739   32.5638 C   0  0  0  0  0  0  0  0  0  0  0  0
   46.7672   56.6103   32.7544 N   0  0  0  0  0  0  0  0  0  0  0  0
  2  1  1  1  0  0  0
  2  3  1  0  0  0  0
  2  5  1  0  0  0  0
  3  4  1  0  0  0  0
  3 17  1  0  0  0  0
  5  6  1  0  0  0  0
  7  6  1  6  0  0  0
  7  8  1  0  0  0  0
  7  9  1  0  0  0  0
 10  9  1  6  0  0  0
 10 11  1  0  0  0  0
 10 12  1  0  0  0  0
 11 16  1  0  0  0  0
 12 13  1  1  0  0  0
 12 14  1  0  0  0  0
 14 15  1  6  0  0  0
 14 16  1  0  0  0  0
 16 27  1  1  0  0  0
 18 19  2  0  0  0  0
 18 23  1  0  0  0  0
 19 20  1  0  0  0  0
 20 21  2  0  0  0  0
 21 22  1  0  0  0  0
 21 27  1  0  0  0  0
 22 23  2  0  0  0  0
 22 25  1  0  0  0  0
 23 24  1  0  0  0  0
 25 26  2  0  0  0  0
 26 27  1  0  0  0  0
M  END
>  <CHROM.1>
112.63328369,-167.68412523,-139.03050807,88.60250874,-72.30737059,98.33406127
-52.52539714,48.40542467,56.05802689,31.02020252,0.35090306,1.25105686,-1.27816232

>  <Name>
ligand

>  <RI>
0

>  <Rbt.Current_Directory>
/home/itssahil/PROJECTS/Mol_Feturizer/New_Systems/rnas/3IQN

>  <Rbt.Executable>
rbdock ($Id: //depot/dev/client3/rdock/2013.1/src/exe/rbdock.cxx#4 $)

>  <Rbt.Library>
libRbt.so (2013.1, Build901 2013/11/27)

>  <Rbt.Parameter_File>
/export/apps/rDock/src/rDock_2013.1_src/data/scripts/dock_solv.prm

>  <Rbt.Receptor>
prm/pocket_docking_2.prm

>  <SCORE>
-11.2618

>  <SCORE.INTER>
-11.3514

>  <SCORE.INTER.CONST>
1

>  <SCORE.INTER.POLAR>
0

>  <SCORE.INTER.ROT>
7

>  <SCORE.INTER.SOLV>
19.6037

>  <SCORE.INTER.VDW>
-22.3688

>  <SCORE.INTER.norm>
-0.420423

>  <SCORE.INTRA>
0.0805182

>  <SCORE.INTRA.DIHEDRAL>
4.50707

>  <SCORE.INTRA.DIHEDRAL.0>
10.0365

>  <SCORE.INTRA.POLAR>
0

>  <SCORE.INTRA.POLAR.0>
0

>  <SCORE.INTRA.REPUL>
0

>  <SCORE.INTRA.REPUL.0>
0

>  <SCORE.INTRA.SOLV>
-0.728318

>  <SCORE.INTRA.SOLV.lig_0>
-48.6728

>  <SCORE.INTRA.VDW>
-1.80886

>  <SCORE.INTRA.VDW.0>
-1.10662

>  <SCORE.INTRA.norm>
0.00298215

>  <SCORE.RESTR>
0.00904318

>  <SCORE.RESTR.CAVITY>
0.00904318

>  <SCORE.RESTR.norm>
0.000334933

>  <SCORE.SYSTEM>
0

>  <SCORE.SYSTEM.CONST>
0

>  <SCORE.SYSTEM.DIHEDRAL>
0

>  <SCORE.SYSTEM.SOLV>
0

>  <SCORE.SYSTEM.norm>
0

>  <SCORE.heavy>
27

>  <SCORE.norm>
-0.417105

>  <RMSD>
1.965

$$$$
ligand
 OpenBabel11021811483D
libRbt.so/2013.1/901 2013/11/27
 27 29  0  0  0  0  0  0  0  0999 V2000
   47.8531   58.2865   28.5737 N   0  0  0  0  0  0  0  0  0  0  0  0
   48.7171   57.1844   28.1308 C   0  0  2  0  0  0  0  0  0  0  0  0
   48.2389   56.7155   26.7896 C   0  0  0  0  0  0  0  0  0  0  0  0
   47.1139   56.9996   26.4105 O   0  0  0  0  0  0  0  0  0  0  0  0
   48.6527   56.0209   29.1316 C   0  0  0  0  0  0  0  0  0  0  0  0
   50.0583   55.4616   29.3308 C   0  0  0  0  0  0  0  0  0  0  0  0
   50.0956   53.6539   29.5502 S   0  0  2  0  0  0  0  0  0  0  0  0
   49.5083   52.9886   27.9619 C   0  0  0  0  0  0  0  0  0  0  0  0
   48.7092   53.0978   30.6059 C   0  0  0  0  0  0  0  0  0  0  0  0
   49.0006   53.7594   31.9304 C   0  0  1  0  0  0  0  0  0  0  0  0
   48.3845   55.0004   31.8254 O   0  0  0  0  0  0  0  0  0  0  0  0
   48.4079   53.2405   33.2413 C   0  0  1  0  0  0  0  0  0  0  0  0
   49.2329   52.3014   33.8693 O   0  0  0  0  0  0  0  0  0  0  0  0
   48.2967   54.6369   34.0213 C   0  0  1  0  0  0  0  0  0  0  0  0
   49.5303   55.3633   34.1218 O   0  0  0  0  0  0  0  0  0  0  0  0
   47.3835   55.1075   32.9128 C   0  0  1  0  0  0  0  0  0  0  0  0
   48.9839   56.0636   26.0750 O   0  0  0  0  0  0  0  0  0  0  0  0
   48.8537   59.8554   32.1609 N   0  0  0  0  0  0  0  0  0  0  0  0
   49.5307   58.7795   32.5654 C   0  0  0  0  0  0  0  0  0  0  0  0
   48.9576   57.5797   32.6522 N   0  0  0  0  0  0  0  0  0  0  0  0
   47.6411   57.4276   32.4562 C   0  0  0  0  0  0  0  0  0  0  0  0
   46.8658   58.5723   32.0857 C   0  0  0  0  0  0  0  0  0  0  0  0
   47.5467   59.8118   31.9362 C   0  0  0  0  0  0  0  0  0  0  0  0
   46.8830   60.9481   31.5676 N   0  0  0  0  0  0  0  0  0  0  0  0
   45.5895   58.1611   31.9550 N   0  0  0  0  0  0  0  0  0  0  0  0
   45.5156   56.8746   32.2166 C   0  0  0  0  0  0  0  0  0  0  0  0
   46.7491   56.3523   32.5191 N   0  0  0  0  0  0  0  0  0  0  0  0
  2  1  1  1  0  0  0
  2  3  1  0  0  0  0
  2  5  1  0  0  0  0
  3  4  1  0  0  0  0
  3 17  1  0  0  0  0
  5  6  1  0  0  0  0
  7  6  1  6  0  0  0
  7  8  1  0  0  0  0
  7  9  1  0  0  0  0
 10  9  1  6  0  0  0
 10 11  1  0  0  0  0
 10 12  1  0  0  0  0
 11 16  1  0  0  0  0
 12 13  1  1  0  0  0
 12 14  1  0  0  0  0
 14 15  1  6  0  0  0
 14 16  1  0  0  0  0
 16 27  1  1  0  0  0
 18 19  2  0  0  0  0
 18 23  1  0  0  0  0
 19 20  1  0  0  0  0
 20 21  2  0  0  0  0
 21 22  1  0  0  0  0
 21 27  1  0  0  0  0
 22 23  2  0  0  0  0
 22 25  1  0  0  0  0
 23 24  1  0  0  0  0
 25 26  2  0  0  0  0
 26 27  1  0  0  0  0
M  END
>  <CHROM.1>
-18.10183944,-138.55932626,-143.81231410,64.84997855,-63.49717347,87.97370698
-58.80064619,48.35272387,56.11048454,30.87278848,2.78088703,-1.23167564,1.85416399

>  <Name>
ligand

>  <RI>
0

>  <Rbt.Current_Directory>
/home/itssahil/PROJECTS/Mol_Feturizer/New_Systems/rnas/3IQN

>  <Rbt.Executable>
rbdock ($Id: //depot/dev/client3/rdock/2013.1/src/exe/rbdock.cxx#4 $)

>  <Rbt.Library>
libRbt.so (2013.1, Build901 2013/11/27)

>  <Rbt.Parameter_File>
/export/apps/rDock/src/rDock_2013.1_src/data/scripts/dock_solv.prm

>  <Rbt.Receptor>
prm/pocket_docking_2.prm

>  <SCORE>
-11.09

>  <SCORE.INTER>
-10.6365

>  <SCORE.INTER.CONST>
1

>  <SCORE.INTER.POLAR>
0

>  <SCORE.INTER.ROT>
7

>  <SCORE.INTER.SOLV>
20.1539

>  <SCORE.INTER.VDW>
-22.0756

>  <SCORE.INTER.norm>
-0.393944

>  <SCORE.INTRA>
-0.469936

>  <SCORE.INTRA.DIHEDRAL>
4.00016

>  <SCORE.INTRA.DIHEDRAL.0>
10.0365

>  <SCORE.INTRA.POLAR>
0

>  <SCORE.INTRA.POLAR.0>
0

>  <SCORE.INTRA.REPUL>
0

>  <SCORE.INTRA.REPUL.0>
0

>  <SCORE.INTRA.SOLV>
0.2413

>  <SCORE.INTRA.SOLV.lig_0>
-48.6728

>  <SCORE.INTRA.VDW>
-2.59067

>  <SCORE.INTRA.VDW.0>
-1.10662

>  <SCORE.INTRA.norm>
-0.0174051

>  <SCORE.RESTR>
0.0164636

>  <SCORE.RESTR.CAVITY>
0.0164636

>  <SCORE.RESTR.norm>
0.000609763

>  <SCORE.SYSTEM>
0

>  <SCORE.SYSTEM.CONST>
0

>  <SCORE.SYSTEM.DIHEDRAL>
0

>  <SCORE.SYSTEM.SOLV>
0

>  <SCORE.SYSTEM.norm>
0

>  <SCORE.heavy>
27

>  <SCORE.norm>
-0.410739

>  <RMSD>
1.967

$$$$
ligand
 OpenBabel11021811483D
libRbt.so/2013.1/901 2013/11/27
 27 29  0  0  0  0  0  0  0  0999 V2000
   48.9921   57.8405   29.1366 N   0  0  0  0  0  0  0  0  0  0  0  0
   49.1928   56.8525   28.0685 C   0  0  2  0  0  0  0  0  0  0  0  0
   47.8572   56.5135   27.4780 C   0  0  0  0  0  0  0  0  0  0  0  0
   46.8542   56.5622   28.1721 O   0  0  0  0  0  0  0  0  0  0  0  0
   49.8393   55.5792   28.6343 C   0  0  0  0  0  0  0  0  0  0  0  0
   49.0624   55.1379   29.8711 C   0  0  0  0  0  0  0  0  0  0  0  0
   49.0980   53.3377   30.1463 S   0  0  2  0  0  0  0  0  0  0  0  0
   48.3022   52.6340   28.6691 C   0  0  0  0  0  0  0  0  0  0  0  0
   47.8486   52.8443   31.3878 C   0  0  0  0  0  0  0  0  0  0  0  0
   48.2538   53.6286   32.6116 C   0  0  1  0  0  0  0  0  0  0  0  0
   47.7812   54.9103   32.3574 O   0  0  0  0  0  0  0  0  0  0  0  0
   47.6454   53.3522   33.9873 C   0  0  1  0  0  0  0  0  0  0  0  0
   48.3758   52.4092   34.7181 O   0  0  0  0  0  0  0  0  0  0  0  0
   47.7186   54.8390   34.5829 C   0  0  1  0  0  0  0  0  0  0  0  0
   49.0298   55.4222   34.5703 O   0  0  0  0  0  0  0  0  0  0  0  0
   46.8323   55.2703   33.4372 C   0  0  1  0  0  0  0  0  0  0  0  0
   47.7768   56.2048   26.2994 O   0  0  0  0  0  0  0  0  0  0  0  0
   48.7315   59.8213   32.4622 N   0  0  0  0  0  0  0  0  0  0  0  0
   49.2854   58.7358   33.0047 C   0  0  0  0  0  0  0  0  0  0  0  0
   48.6137   57.5920   33.1307 N   0  0  0  0  0  0  0  0  0  0  0  0
   47.3098   57.5204   32.8316 C   0  0  0  0  0  0  0  0  0  0  0  0
   46.6609   58.6842   32.3091 C   0  0  0  0  0  0  0  0  0  0  0  0
   47.4480   59.8545   32.1271 C   0  0  0  0  0  0  0  0  0  0  0  0
   46.9091   61.0021   31.6169 N   0  0  0  0  0  0  0  0  0  0  0  0
   45.3710   58.3575   32.0978 N   0  0  0  0  0  0  0  0  0  0  0  0
   45.1740   57.1056   32.4480 C   0  0  0  0  0  0  0  0  0  0  0  0
   46.3332   56.5215   32.8964 N   0  0  0  0  0  0  0  0  0  0  0  0
  2  1  1  1  0  0  0
  2  3  1  0  0  0  0
  2  5  1  0  0  0  0
  3  4  1  0  0  0  0
  3 17  1  0  0  0  0
  5  6  1  0  0  0  0
  7  6  1  6  0  0  0
  7  8  1  0  0  0  0
  7  9  1  0  0  0  0
 10  9  1  6  0  0  0
 10 11  1  0  0  0  0
 10 12  1  0  0  0  0
 11 16  1  0  0  0  0
 12 13  1  1  0  0  0
 12 14  1  0  0  0  0
 14 15  1  6  0  0  0
 14 16  1  0  0  0  0
 16 27  1  1  0  0  0
 18 19  2  0  0  0  0
 18 23  1  0  0  0  0
 19 20  1  0  0  0  0
 20 21  2  0  0  0  0
 21 22  1  0  0  0  0
 21 27  1  0  0  0  0
 22 23  2  0  0  0  0
 22 25  1  0  0  0  0
 23 24  1  0  0  0  0
 25 26  2  0  0  0  0
 26 27  1  0  0  0  0
M  END
>  <CHROM.1>
-30.15357690,49.43085705,150.34331150,-61.50977056,-59.16038550,78.09778460
-65.98746360,47.94064021,56.03114048,31.35144621,-3.10443967,-1.35114225
2.18108136

>  <Name>
ligand

>  <RI>
0

>  <Rbt.Current_Directory>
/home/itssahil/PROJECTS/Mol_Feturizer/New_Systems/rnas/3IQN

>  <Rbt.Executable>
rbdock ($Id: //depot/dev/client3/rdock/2013.1/src/exe/rbdock.cxx#4 $)

>  <Rbt.Library>
libRbt.so (2013.1, Build901 2013/11/27)

>  <Rbt.Parameter_File>
/export/apps/rDock/src/rDock_2013.1_src/data/scripts/dock_solv.prm

>  <Rbt.Receptor>
prm/pocket_docking_2.prm

>  <SCORE>
-12.4498

>  <SCORE.INTER>
-10.7914

>  <SCORE.INTER.CONST>
1

>  <SCORE.INTER.POLAR>
0

>  <SCORE.INTER.ROT>
7

>  <SCORE.INTER.SOLV>
20.0258

>  <SCORE.INTER.VDW>
-22.1362

>  <SCORE.INTER.norm>
-0.399681

>  <SCORE.INTRA>
-2.12623

>  <SCORE.INTRA.DIHEDRAL>
-2.49437

>  <SCORE.INTRA.DIHEDRAL.0>
10.0365

>  <SCORE.INTRA.POLAR>
0

>  <SCORE.INTRA.POLAR.0>
0

>  <SCORE.INTRA.REPUL>
0

>  <SCORE.INTRA.REPUL.0>
0

>  <SCORE.INTRA.SOLV>
0.134017

>  <SCORE.INTRA.SOLV.lig_0>
-48.6728

>  <SCORE.INTRA.VDW>
-0.946058

>  <SCORE.INTRA.VDW.0>
-1.10662

>  <SCORE.INTRA.norm>
-0.0787494

>  <SCORE.RESTR>
0.467807

>  <SCORE.RESTR.CAVITY>
0.467807

>  <SCORE.RESTR.norm>
0.0173262

>  <SCORE.SYSTEM>
0

>  <SCORE.SYSTEM.CONST>
0

>  <SCORE.SYSTEM.DIHEDRAL>
0

>  <SCORE.SYSTEM.SOLV>
0

>  <SCORE.SYSTEM.norm>
0

>  <SCORE.heavy>
27

>  <SCORE.norm>
-0.461104

>  <RMSD>
1.982

$$$$
ligand
 OpenBabel11021811483D
libRbt.so/2013.1/901 2013/11/27
 27 29  0  0  0  0  0  0  0  0999 V2000
   46.8691   56.4020   28.4120 N   0  0  0  0  0  0  0  0  0  0  0  0
   48.0780   55.9778   27.6937 C   0  0  2  0  0  0  0  0  0  0  0  0
   47.7393   55.8278   26.2411 C   0  0  0  0  0  0  0  0  0  0  0  0
   46.5984   55.5504   25.9070 O   0  0  0  0  0  0  0  0  0  0  0  0
   48.5806   54.6341   28.2425 C   0  0  0  0  0  0  0  0  0  0  0  0
   48.4937   54.6586   29.7657 C   0  0  0  0  0  0  0  0  0  0  0  0
   48.6440   53.0110   30.5276 S   0  0  2  0  0  0  0  0  0  0  0  0
   47.5015   51.9619   29.5766 C   0  0  0  0  0  0  0  0  0  0  0  0
   47.7814   52.9584   32.1398 C   0  0  0  0  0  0  0  0  0  0  0  0
   48.5342   53.9738   32.9641 C   0  0  1  0  0  0  0  0  0  0  0  0
   47.9713   55.1883   32.5915 O   0  0  0  0  0  0  0  0  0  0  0  0
   48.4027   54.0371   34.4865 C   0  0  1  0  0  0  0  0  0  0  0  0
   49.3525   53.2456   35.1410 O   0  0  0  0  0  0  0  0  0  0  0  0
   48.6222   55.6136   34.6789 C   0  0  1  0  0  0  0  0  0  0  0  0
   49.8453   56.1174   34.1223 O   0  0  0  0  0  0  0  0  0  0  0  0
   47.4063   55.8222   33.8059 C   0  0  1  0  0  0  0  0  0  0  0  0
   48.6043   55.9995   25.3967 O   0  0  0  0  0  0  0  0  0  0  0  0
   48.7794   60.0952   31.5419 N   0  0  0  0  0  0  0  0  0  0  0  0
   49.5031   59.1352   32.1199 C   0  0  0  0  0  0  0  0  0  0  0  0
   48.9403   58.0383   32.6255 N   0  0  0  0  0  0  0  0  0  0  0  0
   47.6080   57.9113   32.6866 C   0  0  0  0  0  0  0  0  0  0  0  0
   46.7937   58.9521   32.1369 C   0  0  0  0  0  0  0  0  0  0  0  0
   47.4528   60.0639   31.5440 C   0  0  0  0  0  0  0  0  0  0  0  0
   46.7487   61.0911   30.9811 N   0  0  0  0  0  0  0  0  0  0  0  0
   45.5092   58.5918   32.3259 N   0  0  0  0  0  0  0  0  0  0  0  0
   45.4667   57.4320   32.9437 C   0  0  0  0  0  0  0  0  0  0  0  0
   46.7281   56.9450   33.1844 N   0  0  0  0  0  0  0  0  0  0  0  0
  2  1  1  1  0  0  0
  2  3  1  0  0  0  0
  2  5  1  0  0  0  0
  3  4  1  0  0  0  0
  3 17  1  0  0  0  0
  5  6  1  0  0  0  0
  7  6  1  6  0  0  0
  7  8  1  0  0  0  0
  7  9  1  0  0  0  0
 10  9  1  6  0  0  0
 10 11  1  0  0  0  0
 10 12  1  0  0  0  0
 11 16  1  0  0  0  0
 12 13  1  1  0  0  0
 12 14  1  0  0  0  0
 14 15  1  6  0  0  0
 14 16  1  0  0  0  0
 16 27  1  6  0  0  0
 18 19  2  0  0  0  0
 18 23  1  0  0  0  0
 19 20  1  0  0  0  0
 20 21  2  0  0  0  0
 21 22  1  0  0  0  0
 21 27  1  0  0  0  0
 22 23  2  0  0  0  0
 22 25  1  0  0  0  0
 23 24  1  0  0  0  0
 25 26  2  0  0  0  0
 26 27  1  0  0  0  0
M  END
>  <CHROM.1>
-27.67665422,-42.68219070,165.13126373,-47.89706949,-62.54109165,82.41301871
-70.83021593,47.93193438,56.03402146,31.17784199,1.80241607,1.37556471,-2.02413893

>  <Name>
ligand

>  <RI>
0

>  <Rbt.Current_Directory>
/home/itssahil/PROJECTS/Mol_Feturizer/New_Systems/rnas/3IQN

>  <Rbt.Executable>
rbdock ($Id: //depot/dev/client3/rdock/2013.1/src/exe/rbdock.cxx#4 $)

>  <Rbt.Library>
libRbt.so (2013.1, Build901 2013/11/27)

>  <Rbt.Parameter_File>
/export/apps/rDock/src/rDock_2013.1_src/data/scripts/dock_solv.prm

>  <Rbt.Receptor>
prm/pocket_docking_2.prm

>  <SCORE>
-12.5299

>  <SCORE.INTER>
-11.5932

>  <SCORE.INTER.CONST>
1

>  <SCORE.INTER.POLAR>
0

>  <SCORE.INTER.ROT>
7

>  <SCORE.INTER.SOLV>
17.8164

>  <SCORE.INTER.VDW>
-21.9342

>  <SCORE.INTER.norm>
-0.429377

>  <SCORE.INTRA>
-1.24986

>  <SCORE.INTRA.DIHEDRAL>
-2.32998

>  <SCORE.INTRA.DIHEDRAL.0>
10.0365

>  <SCORE.INTRA.POLAR>
0

>  <SCORE.INTRA.POLAR.0>
0

>  <SCORE.INTRA.REPUL>
0

>  <SCORE.INTRA.REPUL.0>
0

>  <SCORE.INTRA.SOLV>
0.312986

>  <SCORE.INTRA.SOLV.lig_0>
-48.6728

>  <SCORE.INTRA.VDW>
-0.241363

>  <SCORE.INTRA.VDW.0>
-1.10662

>  <SCORE.INTRA.norm>
-0.0462912

>  <SCORE.RESTR>
0.313115

>  <SCORE.RESTR.CAVITY>
0.313115

>  <SCORE.RESTR.norm>
0.0115968

>  <SCORE.SYSTEM>
0

>  <SCORE.SYSTEM.CONST>
0

>  <SCORE.SYSTEM.DIHEDRAL>
0

>  <SCORE.SYSTEM.SOLV>
0

>  <SCORE.SYSTEM.norm>
0

>  <SCORE.heavy>
27

>  <SCORE.norm>
-0.464071

>  <RMSD>
2.002

$$$$
ligand
 OpenBabel11021811483D
libRbt.so/2013.1/901 2013/11/27
 27 29  0  0  0  0  0  0  0  0999 V2000
   49.9380   57.0433   30.0683 N   0  0  0  0  0  0  0  0  0  0  0  0
   49.5182   55.6796   29.7200 C   0  0  2  0  0  0  0  0  0  0  0  0
   50.4415   55.1540   28.6623 C   0  0  0  0  0  0  0  0  0  0  0  0
   50.1145   54.1859   27.9944 O   0  0  0  0  0  0  0  0  0  0  0  0
   48.0785   55.6849   29.1847 C   0  0  0  0  0  0  0  0  0  0  0  0
   47.1539   55.0975   30.2469 C   0  0  0  0  0  0  0  0  0  0  0  0
   47.6451   53.4317   30.7956 S   0  0  2  0  0  0  0  0  0  0  0  0
   46.7078   52.3018   29.7208 C   0  0  0  0  0  0  0  0  0  0  0  0
   46.8512   53.0107   32.3888 C   0  0  0  0  0  0  0  0  0  0  0  0
   47.9295   53.3149   33.3996 C   0  0  1  0  0  0  0  0  0  0  0  0
   48.2281   54.6533   33.1755 O   0  0  0  0  0  0  0  0  0  0  0  0
   47.6508   53.3176   34.9033 C   0  0  1  0  0  0  0  0  0  0  0  0
   47.8691   52.0678   35.4924 O   0  0  0  0  0  0  0  0  0  0  0  0
   48.7103   54.4391   35.3396 C   0  0  1  0  0  0  0  0  0  0  0  0
   50.0623   54.1687   34.9415 O   0  0  0  0  0  0  0  0  0  0  0  0
   47.9716   55.3956   34.4321 C   0  0  1  0  0  0  0  0  0  0  0  0
   51.5114   55.7075   28.4628 O   0  0  0  0  0  0  0  0  0  0  0  0
   45.3577   58.6294   31.6074 N   0  0  0  0  0  0  0  0  0  0  0  0
   45.0991   57.3723   31.9712 C   0  0  0  0  0  0  0  0  0  0  0  0
   45.9107   56.6937   32.7812 N   0  0  0  0  0  0  0  0  0  0  0  0
   47.0884   57.2044   33.1650 C   0  0  0  0  0  0  0  0  0  0  0  0
   47.4338   58.5268   32.7400 C   0  0  0  0  0  0  0  0  0  0  0  0
   46.4938   59.2301   31.9375 C   0  0  0  0  0  0  0  0  0  0  0  0
   46.7392   60.5031   31.5052 N   0  0  0  0  0  0  0  0  0  0  0  0
   48.6514   58.8008   33.2476 N   0  0  0  0  0  0  0  0  0  0  0  0
   49.0806   57.7666   33.9369 C   0  0  0  0  0  0  0  0  0  0  0  0
   48.1585   56.7489   33.9415 N   0  0  0  0  0  0  0  0  0  0  0  0
  2  1  1  6  0  0  0
  2  3  1  0  0  0  0
  2  5  1  0  0  0  0
  3  4  1  0  0  0  0
  3 17  1  0  0  0  0
  5  6  1  0  0  0  0
  7  6  1  6  0  0  0
  7  8  1  0  0  0  0
  7  9  1  0  0  0  0
 10  9  1  6  0  0  0
 10 11  1  0  0  0  0
 10 12  1  0  0  0  0
 11 16  1  0  0  0  0
 12 13  1  1  0  0  0
 12 14  1  0  0  0  0
 14 15  1  6  0  0  0
 14 16  1  0  0  0  0
 16 27  1  6  0  0  0
 18 19  2  0  0  0  0
 18 23  1  0  0  0  0
 19 20  1  0  0  0  0
 20 21  2  0  0  0  0
 21 22  1  0  0  0  0
 21 27  1  0  0  0  0
 22 23  2  0  0  0  0
 22 25  1  0  0  0  0
 23 24  1  0  0  0  0
 25 26  2  0  0  0  0
 26 27  1  0  0  0  0
M  END
>  <CHROM.1>
-162.65171262,-106.57099172,-55.61332961,-92.58478740,-98.17894991,57.37773672
74.84700813,48.04158201,55.58616057,31.97980494,-0.35578513,1.20210262,-0.66073091

>  <Name>
ligand

>  <RI>
0

>  <Rbt.Current_Directory>
/home/itssahil/PROJECTS/Mol_Feturizer/New_Systems/rnas/3IQN

>  <Rbt.Executable>
rbdock ($Id: //depot/dev/client3/rdock/2013.1/src/exe/rbdock.cxx#4 $)

>  <Rbt.Library>
libRbt.so (2013.1, Build901 2013/11/27)

>  <Rbt.Parameter_File>
/export/apps/rDock/src/rDock_2013.1_src/data/scripts/dock_solv.prm

>  <Rbt.Receptor>
prm/pocket_docking_2.prm

>  <SCORE>
-6.64696

>  <SCORE.INTER>
-8.69146

>  <SCORE.INTER.CONST>
1

>  <SCORE.INTER.POLAR>
0

>  <SCORE.INTER.ROT>
7

>  <SCORE.INTER.SOLV>
18.9149

>  <SCORE.INTER.VDW>
-20.3659

>  <SCORE.INTER.norm>
-0.321906

>  <SCORE.INTRA>
-1.23583

>  <SCORE.INTRA.DIHEDRAL>
2.52597

>  <SCORE.INTRA.DIHEDRAL.0>
10.0365

>  <SCORE.INTRA.POLAR>
0

>  <SCORE.INTRA.POLAR.0>
0

>  <SCORE.INTRA.REPUL>
0

>  <SCORE.INTRA.REPUL.0>
0

>  <SCORE.INTRA.SOLV>
-0.219435

>  <SCORE.INTRA.SOLV.lig_0>
-48.6728

>  <SCORE.INTRA.VDW>
-2.38909

>  <SCORE.INTRA.VDW.0>
-1.10662

>  <SCORE.INTRA.norm>
-0.0457713

>  <SCORE.RESTR>
3.28032

>  <SCORE.RESTR.CAVITY>
3.28032

>  <SCORE.RESTR.norm>
0.121493

>  <SCORE.SYSTEM>
0

>  <SCORE.SYSTEM.CONST>
0

>  <SCORE.SYSTEM.DIHEDRAL>
0

>  <SCORE.SYSTEM.SOLV>
0

>  <SCORE.SYSTEM.norm>
0

>  <SCORE.heavy>
27

>  <SCORE.norm>
-0.246184

>  <RMSD>
2.032

$$$$
ligand
 OpenBabel11021811483D
libRbt.so/2013.1/901 2013/11/27
 27 29  0  0  0  0  0  0  0  0999 V2000
   49.8549   56.6977   29.4078 N   0  0  0  0  0  0  0  0  0  0  0  0
   49.0959   56.4806   28.1693 C   0  0  2  0  0  0  0  0  0  0  0  0
   48.0622   57.5599   28.0504 C   0  0  0  0  0  0  0  0  0  0  0  0
   47.5577   58.0336   29.0560 O   0  0  0  0  0  0  0  0  0  0  0  0
   48.4024   55.1104   28.2018 C   0  0  0  0  0  0  0  0  0  0  0  0
   49.4292   54.0454   28.5755 C   0  0  0  0  0  0  0  0  0  0  0  0
   48.6822   52.4937   29.1687 S   0  0  2  0  0  0  0  0  0  0  0  0
   47.4492   52.0664   27.9008 C   0  0  0  0  0  0  0  0  0  0  0  0
   47.5395   52.8122   30.5610 C   0  0  0  0  0  0  0  0  0  0  0  0
   48.3922   53.5906   31.5326 C   0  0  1  0  0  0  0  0  0  0  0  0
   47.8341   54.8630   31.5203 O   0  0  0  0  0  0  0  0  0  0  0  0
   48.3994   53.2809   33.0303 C   0  0  1  0  0  0  0  0  0  0  0  0
   49.3803   52.3474   33.3811 O   0  0  0  0  0  0  0  0  0  0  0  0
   48.6812   54.7612   33.5780 C   0  0  1  0  0  0  0  0  0  0  0  0
   49.8638   55.3777   33.0479 O   0  0  0  0  0  0  0  0  0  0  0  0
   47.3987   55.1847   32.8997 C   0  0  1  0  0  0  0  0  0  0  0  0
   47.7407   57.9716   26.9468 O   0  0  0  0  0  0  0  0  0  0  0  0
   48.6971   59.9515   31.9718 N   0  0  0  0  0  0  0  0  0  0  0  0
   49.4381   58.8755   32.2414 C   0  0  0  0  0  0  0  0  0  0  0  0
   48.8939   57.6709   32.4084 N   0  0  0  0  0  0  0  0  0  0  0  0
   47.5639   57.5119   32.4365 C   0  0  0  0  0  0  0  0  0  0  0  0
   46.7315   58.6556   32.2179 C   0  0  0  0  0  0  0  0  0  0  0  0
   47.3712   59.9015   31.9713 C   0  0  0  0  0  0  0  0  0  0  0  0
   46.6491   61.0375   31.7356 N   0  0  0  0  0  0  0  0  0  0  0  0
   45.4535   58.2371   32.3001 N   0  0  0  0  0  0  0  0  0  0  0  0
   45.4313   56.9471   32.5535 C   0  0  0  0  0  0  0  0  0  0  0  0
   46.7007   56.4297   32.6356 N   0  0  0  0  0  0  0  0  0  0  0  0
  2  1  1  1  0  0  0
  2  3  1  0  0  0  0
  2  5  1  0  0  0  0
  3  4  1  0  0  0  0
  3 17  1  0  0  0  0
  5  6  1  0  0  0  0
  7  6  1  6  0  0  0
  7  8  1  0  0  0  0
  7  9  1  0  0  0  0
 10  9  1  6  0  0  0
 10 11  1  0  0  0  0
 10 12  1  0  0  0  0
 11 16  1  0  0  0  0
 12 13  1  6  0  0  0
 12 14  1  0  0  0  0
 14 15  1  6  0  0  0
 14 16  1  0  0  0  0
 16 27  1  6  0  0  0
 18 19  2  0  0  0  0
 18 23  1  0  0  0  0
 19 20  1  0  0  0  0
 20 21  2  0  0  0  0
 21 22  1  0  0  0  0
 21 27  1  0  0  0  0
 22 23  2  0  0  0  0
 22 25  1  0  0  0  0
 23 24  1  0  0  0  0
 25 26  2  0  0  0  0
 26 27  1  0  0  0  0
M  END
>  <CHROM.1>
-32.07379539,-50.55563682,161.50359759,50.66398594,-53.43589555,111.67819862
-76.75986211,48.07961703,55.97970944,30.89104718,-0.08508010,1.39249443,-1.22486570

>  <Name>
ligand

>  <RI>
0

>  <Rbt.Current_Directory>
/home/itssahil/PROJECTS/Mol_Feturizer/New_Systems/rnas/3IQN

>  <Rbt.Executable>
rbdock ($Id: //depot/dev/client3/rdock/2013.1/src/exe/rbdock.cxx#4 $)

>  <Rbt.Library>
libRbt.so (2013.1, Build901 2013/11/27)

>  <Rbt.Parameter_File>
/export/apps/rDock/src/rDock_2013.1_src/data/scripts/dock_solv.prm

>  <Rbt.Receptor>
prm/pocket_docking_2.prm

>  <SCORE>
-11.1065

>  <SCORE.INTER>
-9.64544

>  <SCORE.INTER.CONST>
1

>  <SCORE.INTER.POLAR>
0

>  <SCORE.INTER.ROT>
7

>  <SCORE.INTER.SOLV>
19.0921

>  <SCORE.INTER.VDW>
-21.061

>  <SCORE.INTER.norm>
-0.357239

>  <SCORE.INTRA>
-1.48272

>  <SCORE.INTRA.DIHEDRAL>
-0.0809809

>  <SCORE.INTRA.DIHEDRAL.0>
10.0365

>  <SCORE.INTRA.POLAR>
0

>  <SCORE.INTRA.POLAR.0>
0

>  <SCORE.INTRA.REPUL>
0

>  <SCORE.INTRA.REPUL.0>
0

>  <SCORE.INTRA.SOLV>
2.18476

>  <SCORE.INTRA.SOLV.lig_0>
-48.6728

>  <SCORE.INTRA.VDW>
-2.53461

>  <SCORE.INTRA.VDW.0>
-1.10662

>  <SCORE.INTRA.norm>
-0.0549157

>  <SCORE.RESTR>
0.0217067

>  <SCORE.RESTR.CAVITY>
0.0217067

>  <SCORE.RESTR.norm>
0.000803952

>  <SCORE.SYSTEM>
0

>  <SCORE.SYSTEM.CONST>
0

>  <SCORE.SYSTEM.DIHEDRAL>
0

>  <SCORE.SYSTEM.SOLV>
0

>  <SCORE.SYSTEM.norm>
0

>  <SCORE.heavy>
27

>  <SCORE.norm>
-0.41135

>  <RMSD>
2.043

$$$$
ligand
 OpenBabel11021811483D
libRbt.so/2013.1/901 2013/11/27
 27 29  0  0  0  0  0  0  0  0999 V2000
   46.1919   55.0659   26.8348 N   0  0  0  0  0  0  0  0  0  0  0  0
   47.1268   55.9754   27.5102 C   0  0  2  0  0  0  0  0  0  0  0  0
   47.7696   56.8497   26.4758 C   0  0  0  0  0  0  0  0  0  0  0  0
   47.4938   58.0378   26.4258 O   0  0  0  0  0  0  0  0  0  0  0  0
   48.2107   55.1750   28.2477 C   0  0  0  0  0  0  0  0  0  0  0  0
   47.6885   54.7919   29.6292 C   0  0  0  0  0  0  0  0  0  0  0  0
   48.5594   53.3722   30.3662 S   0  0  2  0  0  0  0  0  0  0  0  0
   47.9175   51.9260   29.4678 C   0  0  0  0  0  0  0  0  0  0  0  0
   47.8857   52.9833   32.0217 C   0  0  0  0  0  0  0  0  0  0  0  0
   48.5790   53.9812   32.9165 C   0  0  1  0  0  0  0  0  0  0  0  0
   48.0117   55.1985   32.5601 O   0  0  0  0  0  0  0  0  0  0  0  0
   48.3742   53.9874   34.4321 C   0  0  1  0  0  0  0  0  0  0  0  0
   49.3066   53.1894   35.1034 O   0  0  0  0  0  0  0  0  0  0  0  0
   48.5544   55.5595   34.6901 C   0  0  1  0  0  0  0  0  0  0  0  0
   49.7928   56.1040   34.2110 O   0  0  0  0  0  0  0  0  0  0  0  0
   47.3777   55.7785   33.7673 C   0  0  1  0  0  0  0  0  0  0  0  0
   48.5792   56.3715   25.6970 O   0  0  0  0  0  0  0  0  0  0  0  0
   48.7833   60.0921   31.6028 N   0  0  0  0  0  0  0  0  0  0  0  0
   49.4983   59.1231   32.1766 C   0  0  0  0  0  0  0  0  0  0  0  0
   48.9285   58.0169   32.6530 N   0  0  0  0  0  0  0  0  0  0  0  0
   47.5956   57.8870   32.6884 C   0  0  0  0  0  0  0  0  0  0  0  0
   46.7893   58.9362   32.1427 C   0  0  0  0  0  0  0  0  0  0  0  0
   47.4570   60.0591   31.5810 C   0  0  0  0  0  0  0  0  0  0  0  0
   46.7612   61.0950   31.0238 N   0  0  0  0  0  0  0  0  0  0  0  0
   45.5023   58.5710   32.3027 N   0  0  0  0  0  0  0  0  0  0  0  0
   45.4509   57.4005   32.8994 C   0  0  0  0  0  0  0  0  0  0  0  0
   46.7086   56.9110   33.1537 N   0  0  0  0  0  0  0  0  0  0  0  0
  2  1  1  6  0  0  0
  2  3  1  0  0  0  0
  2  5  1  0  0  0  0
  3  4  1  0  0  0  0
  3 17  1  0  0  0  0
  5  6  1  0  0  0  0
  7  6  1  6  0  0  0
  7  8  1  0  0  0  0
  7  9  1  0  0  0  0
 10  9  1  6  0  0  0
 10 11  1  0  0  0  0
 10 12  1  0  0  0  0
 11 16  1  0  0  0  0
 12 13  1  1  0  0  0
 12 14  1  0  0  0  0
 14 15  1  6  0  0  0
 14 16  1  0  0  0  0
 16 27  1  6  0  0  0
 18 19  2  0  0  0  0
 18 23  1  0  0  0  0
 19 20  1  0  0  0  0
 20 21  2  0  0  0  0
 21 22  1  0  0  0  0
 21 27  1  0  0  0  0
 22 23  2  0  0  0  0
 22 25  1  0  0  0  0
 23 24  1  0  0  0  0
 25 26  2  0  0  0  0
 26 27  1  0  0  0  0
M  END
>  <CHROM.1>
110.05838943,-85.50641892,158.76268296,-75.19993247,-81.37031918,70.06750504
-68.59494241,47.87626150,56.17549826,31.13053354,-2.22963595,-1.39169807
1.04341358

>  <Name>
ligand

>  <RI>
0

>  <Rbt.Current_Directory>
/home/itssahil/PROJECTS/Mol_Feturizer/New_Systems/rnas/3IQN

>  <Rbt.Executable>
rbdock ($Id: //depot/dev/client3/rdock/2013.1/src/exe/rbdock.cxx#4 $)

>  <Rbt.Library>
libRbt.so (2013.1, Build901 2013/11/27)

>  <Rbt.Parameter_File>
/export/apps/rDock/src/rDock_2013.1_src/data/scripts/dock_solv.prm

>  <Rbt.Receptor>
prm/pocket_docking_2.prm

>  <SCORE>
-12.3119

>  <SCORE.INTER>
-11.0404

>  <SCORE.INTER.CONST>
1

>  <SCORE.INTER.POLAR>
0

>  <SCORE.INTER.ROT>
7

>  <SCORE.INTER.SOLV>
21.4074

>  <SCORE.INTER.VDW>
-22.7628

>  <SCORE.INTER.norm>
-0.408905

>  <SCORE.INTRA>
-2.25824

>  <SCORE.INTRA.DIHEDRAL>
-1.86516

>  <SCORE.INTRA.DIHEDRAL.0>
10.0365

>  <SCORE.INTRA.POLAR>
0

>  <SCORE.INTRA.POLAR.0>
0

>  <SCORE.INTRA.REPUL>
0

>  <SCORE.INTRA.REPUL.0>
0

>  <SCORE.INTRA.SOLV>
-0.0613594

>  <SCORE.INTRA.SOLV.lig_0>
-48.6728

>  <SCORE.INTRA.VDW>
-1.29499

>  <SCORE.INTRA.VDW.0>
-1.10662

>  <SCORE.INTRA.norm>
-0.0836387

>  <SCORE.RESTR>
0.986792

>  <SCORE.RESTR.CAVITY>
0.986792

>  <SCORE.RESTR.norm>
0.0365478

>  <SCORE.SYSTEM>
0

>  <SCORE.SYSTEM.CONST>
0

>  <SCORE.SYSTEM.DIHEDRAL>
0

>  <SCORE.SYSTEM.SOLV>
0

>  <SCORE.SYSTEM.norm>
0

>  <SCORE.heavy>
27

>  <SCORE.norm>
-0.455995

>  <RMSD>
2.074

$$$$
ligand
 OpenBabel11021811483D
libRbt.so/2013.1/901 2013/11/27
 27 29  0  0  0  0  0  0  0  0999 V2000
   46.4765   57.0017   30.1611 N   0  0  0  0  0  0  0  0  0  0  0  0
   47.8849   57.0053   29.7444 C   0  0  2  0  0  0  0  0  0  0  0  0
   48.0268   57.9102   28.5576 C   0  0  0  0  0  0  0  0  0  0  0  0
   47.0997   58.0366   27.7736 O   0  0  0  0  0  0  0  0  0  0  0  0
   48.3315   55.5865   29.3613 C   0  0  0  0  0  0  0  0  0  0  0  0
   49.7609   55.3694   29.8489 C   0  0  0  0  0  0  0  0  0  0  0  0
   50.0418   53.7164   30.5603 S   0  0  2  0  0  0  0  0  0  0  0  0
   49.6078   52.5631   29.2215 C   0  0  0  0  0  0  0  0  0  0  0  0
   48.7106   53.2792   31.7362 C   0  0  0  0  0  0  0  0  0  0  0  0
   49.0114   54.1485   32.9324 C   0  0  1  0  0  0  0  0  0  0  0  0
   48.3967   55.3571   32.6287 O   0  0  0  0  0  0  0  0  0  0  0  0
   48.4259   53.8534   34.3141 C   0  0  1  0  0  0  0  0  0  0  0  0
   49.2532   53.0279   35.0829 O   0  0  0  0  0  0  0  0  0  0  0  0
   48.3219   55.3592   34.8550 C   0  0  1  0  0  0  0  0  0  0  0  0
   49.5573   56.0890   34.8276 O   0  0  0  0  0  0  0  0  0  0  0  0
   47.4026   55.6439   33.6896 C   0  0  1  0  0  0  0  0  0  0  0  0
   49.0654   58.5297   28.3892 O   0  0  0  0  0  0  0  0  0  0  0  0
   48.9268   60.0454   31.7994 N   0  0  0  0  0  0  0  0  0  0  0  0
   49.6100   59.0454   32.3585 C   0  0  0  0  0  0  0  0  0  0  0  0
   49.0137   57.9218   32.7551 N   0  0  0  0  0  0  0  0  0  0  0  0
   47.6800   57.7996   32.7234 C   0  0  0  0  0  0  0  0  0  0  0  0
   46.9046   58.8790   32.1920 C   0  0  0  0  0  0  0  0  0  0  0  0
   47.6027   60.0226   31.7155 C   0  0  0  0  0  0  0  0  0  0  0  0
   46.9382   61.0885   31.1770 N   0  0  0  0  0  0  0  0  0  0  0  0
   45.6100   58.5155   32.2753 N   0  0  0  0  0  0  0  0  0  0  0  0
   45.5256   57.3185   32.8126 C   0  0  0  0  0  0  0  0  0  0  0  0
   46.7679   56.8089   33.1006 N   0  0  0  0  0  0  0  0  0  0  0  0
  2  1  1  6  0  0  0
  2  3  1  0  0  0  0
  2  5  1  0  0  0  0
  3  4  1  0  0  0  0
  3 17  1  0  0  0  0
  5  6  1  0  0  0  0
  7  6  1  6  0  0  0
  7  8  1  0  0  0  0
  7  9  1  0  0  0  0
 10  9  1  6  0  0  0
 10 11  1  0  0  0  0
 10 12  1  0  0  0  0
 11 16  1  0  0  0  0
 12 13  1  1  0  0  0
 12 14  1  0  0  0  0
 14 15  1  6  0  0  0
 14 16  1  0  0  0  0
 16 27  1  1  0  0  0
 18 19  2  0  0  0  0
 18 23  1  0  0  0  0
 19 20  1  0  0  0  0
 20 21  2  0  0  0  0
 21 22  1  0  0  0  0
 21 27  1  0  0  0  0
 22 23  2  0  0  0  0
 22 25  1  0  0  0  0
 23 24  1  0  0  0  0
 25 26  2  0  0  0  0
 26 27  1  0  0  0  0
M  END
>  <CHROM.1>
-31.08415556,-141.55182242,139.17766492,58.15713149,-73.19230198,85.09815446
-52.27431945,48.26880272,56.46705919,31.64785444,-2.48596188,-1.20736358
1.87410646

>  <Name>
ligand

>  <RI>
0

>  <Rbt.Current_Directory>
/home/itssahil/PROJECTS/Mol_Feturizer/New_Systems/rnas/3IQN

>  <Rbt.Executable>
rbdock ($Id: //depot/dev/client3/rdock/2013.1/src/exe/rbdock.cxx#4 $)

>  <Rbt.Library>
libRbt.so (2013.1, Build901 2013/11/27)

>  <Rbt.Parameter_File>
/export/apps/rDock/src/rDock_2013.1_src/data/scripts/dock_solv.prm

>  <Rbt.Receptor>
prm/pocket_docking_2.prm

>  <SCORE>
-11.4531

>  <SCORE.INTER>
-12.2066

>  <SCORE.INTER.CONST>
1

>  <SCORE.INTER.POLAR>
0

>  <SCORE.INTER.ROT>
7

>  <SCORE.INTER.SOLV>
18.2824

>  <SCORE.INTER.VDW>
-22.4985

>  <SCORE.INTER.norm>
-0.452096

>  <SCORE.INTRA>
0.297324

>  <SCORE.INTRA.DIHEDRAL>
3.63645

>  <SCORE.INTRA.DIHEDRAL.0>
10.0365

>  <SCORE.INTRA.POLAR>
0

>  <SCORE.INTRA.POLAR.0>
0

>  <SCORE.INTRA.REPUL>
0

>  <SCORE.INTRA.REPUL.0>
0

>  <SCORE.INTRA.SOLV>
4.26999

>  <SCORE.INTRA.SOLV.lig_0>
-48.6728

>  <SCORE.INTRA.VDW>
-3.65589

>  <SCORE.INTRA.VDW.0>
-1.10662

>  <SCORE.INTRA.norm>
0.011012

>  <SCORE.RESTR>
0.456167

>  <SCORE.RESTR.CAVITY>
0.456167

>  <SCORE.RESTR.norm>
0.0168951

>  <SCORE.SYSTEM>
0

>  <SCORE.SYSTEM.CONST>
0

>  <SCORE.SYSTEM.DIHEDRAL>
0

>  <SCORE.SYSTEM.SOLV>
0

>  <SCORE.SYSTEM.norm>
0

>  <SCORE.heavy>
27

>  <SCORE.norm>
-0.424188

>  <RMSD>
2.104

$$$$
ligand
 OpenBabel11021811483D
libRbt.so/2013.1/901 2013/11/27
 27 29  0  0  0  0  0  0  0  0999 V2000
   46.6737   55.2876   26.1856 N   0  0  0  0  0  0  0  0  0  0  0  0
   46.5029   55.9750   27.4723 C   0  0  2  0  0  0  0  0  0  0  0  0
   47.1538   57.3224   27.3809 C   0  0  0  0  0  0  0  0  0  0  0  0
   48.1962   57.4546   26.7596 O   0  0  0  0  0  0  0  0  0  0  0  0
   47.1597   55.1658   28.6006 C   0  0  0  0  0  0  0  0  0  0  0  0
   48.5554   54.7393   28.1554 C   0  0  0  0  0  0  0  0  0  0  0  0
   49.3489   53.5558   29.2899 S   0  0  2  0  0  0  0  0  0  0  0  0
   49.4129   51.9974   28.3530 C   0  0  0  0  0  0  0  0  0  0  0  0
   48.1874   53.0345   30.6032 C   0  0  0  0  0  0  0  0  0  0  0  0
   48.7313   53.7193   31.8329 C   0  0  1  0  0  0  0  0  0  0  0  0
   48.1836   54.9949   31.7734 O   0  0  0  0  0  0  0  0  0  0  0  0
   48.3300   53.2864   33.2438 C   0  0  1  0  0  0  0  0  0  0  0  0
   49.1873   52.3154   33.7720 O   0  0  0  0  0  0  0  0  0  0  0  0
   48.4336   54.7127   33.9688 C   0  0  1  0  0  0  0  0  0  0  0  0
   49.7092   55.3569   33.8373 O   0  0  0  0  0  0  0  0  0  0  0  0
   47.3822   55.2063   33.0018 C   0  0  1  0  0  0  0  0  0  0  0  0
   46.6289   58.2860   27.9164 O   0  0  0  0  0  0  0  0  0  0  0  0
   48.9972   59.7778   31.6746 N   0  0  0  0  0  0  0  0  0  0  0  0
   49.6653   58.6722   32.0074 C   0  0  0  0  0  0  0  0  0  0  0  0
   49.0396   57.5282   32.2811 N   0  0  0  0  0  0  0  0  0  0  0  0
   47.7031   57.4728   32.3559 C   0  0  0  0  0  0  0  0  0  0  0  0
   46.9505   58.6565   32.0711 C   0  0  0  0  0  0  0  0  0  0  0  0
   47.6718   59.8284   31.7124 C   0  0  0  0  0  0  0  0  0  0  0  0
   47.0280   60.9949   31.4082 N   0  0  0  0  0  0  0  0  0  0  0  0
   45.6484   58.3433   32.2185 N   0  0  0  0  0  0  0  0  0  0  0  0
   45.5395   57.0814   32.5715 C   0  0  0  0  0  0  0  0  0  0  0  0
   46.7695   56.4771   32.6603 N   0  0  0  0  0  0  0  0  0  0  0  0
  2  1  1  6  0  0  0
  2  3  1  0  0  0  0
  2  5  1  0  0  0  0
  3  4  1  0  0  0  0
  3 17  1  0  0  0  0
  5  6  1  0  0  0  0
  7  6  1  6  0  0  0
  7  8  1  0  0  0  0
  7  9  1  0  0  0  0
 10  9  1  6  0  0  0
 10 11  1  0  0  0  0
 10 12  1  0  0  0  0
 11 16  1  0  0  0  0
 12 13  1  1  0  0  0
 12 14  1  0  0  0  0
 14 15  1  6  0  0  0
 14 16  1  0  0  0  0
 16 27  1  1  0  0  0
 18 19  2  0  0  0  0
 18 23  1  0  0  0  0
 19 20  1  0  0  0  0
 20 21  2  0  0  0  0
 21 22  1  0  0  0  0
 21 27  1  0  0  0  0
 22 23  2  0  0  0  0
 22 25  1  0  0  0  0
 23 24  1  0  0  0  0
 25 26  2  0  0  0  0
 26 27  1  0  0  0  0
M  END
>  <CHROM.1>
-37.43809767,46.97374023,-171.01340862,111.25395368,-108.51539288,84.14541090
-56.43025847,47.97916045,56.00749235,30.74703090,0.53031256,1.28699014,-1.97578103

>  <Name>
ligand

>  <RI>
0

>  <Rbt.Current_Directory>
/home/itssahil/PROJECTS/Mol_Feturizer/New_Systems/rnas/3IQN

>  <Rbt.Executable>
rbdock ($Id: //depot/dev/client3/rdock/2013.1/src/exe/rbdock.cxx#4 $)

>  <Rbt.Library>
libRbt.so (2013.1, Build901 2013/11/27)

>  <Rbt.Parameter_File>
/export/apps/rDock/src/rDock_2013.1_src/data/scripts/dock_solv.prm

>  <Rbt.Receptor>
prm/pocket_docking_2.prm

>  <SCORE>
-7.91068

>  <SCORE.INTER>
-9.24544

>  <SCORE.INTER.CONST>
1

>  <SCORE.INTER.POLAR>
0

>  <SCORE.INTER.ROT>
7

>  <SCORE.INTER.SOLV>
20.694

>  <SCORE.INTER.VDW>
-21.3283

>  <SCORE.INTER.norm>
-0.342424

>  <SCORE.INTRA>
1.3163

>  <SCORE.INTRA.DIHEDRAL>
3.96065

>  <SCORE.INTRA.DIHEDRAL.0>
10.0365

>  <SCORE.INTRA.POLAR>
0

>  <SCORE.INTRA.POLAR.0>
0

>  <SCORE.INTRA.REPUL>
0

>  <SCORE.INTRA.REPUL.0>
0

>  <SCORE.INTRA.SOLV>
0.0839802

>  <SCORE.INTRA.SOLV.lig_0>
-48.6728

>  <SCORE.INTRA.VDW>
-0.706016

>  <SCORE.INTRA.VDW.0>
-1.10662

>  <SCORE.INTRA.norm>
0.0487518

>  <SCORE.RESTR>
0.0184677

>  <SCORE.RESTR.CAVITY>
0.0184677

>  <SCORE.RESTR.norm>
0.00068399

>  <SCORE.SYSTEM>
0

>  <SCORE.SYSTEM.CONST>
0

>  <SCORE.SYSTEM.DIHEDRAL>
0

>  <SCORE.SYSTEM.SOLV>
0

>  <SCORE.SYSTEM.norm>
0

>  <SCORE.heavy>
27

>  <SCORE.norm>
-0.292988

>  <RMSD>
2.105

$$$$
ligand
 OpenBabel11021811483D
libRbt.so/2013.1/901 2013/11/27
 27 29  0  0  0  0  0  0  0  0999 V2000
   50.4955   55.0564   26.6487 N   0  0  0  0  0  0  0  0  0  0  0  0
   49.4646   55.2532   27.6762 C   0  0  2  0  0  0  0  0  0  0  0  0
   48.8887   56.6277   27.5141 C   0  0  0  0  0  0  0  0  0  0  0  0
   47.9487   56.8089   26.7565 O   0  0  0  0  0  0  0  0  0  0  0  0
   50.0767   55.1178   29.0785 C   0  0  0  0  0  0  0  0  0  0  0  0
   48.9584   54.8544   30.0827 C   0  0  0  0  0  0  0  0  0  0  0  0
   48.6786   53.0845   30.4093 S   0  0  2  0  0  0  0  0  0  0  0  0
   47.4660   52.5742   29.1525 C   0  0  0  0  0  0  0  0  0  0  0  0
   47.6398   52.8537   31.8971 C   0  0  0  0  0  0  0  0  0  0  0  0
   48.3217   53.7188   32.9284 C   0  0  1  0  0  0  0  0  0  0  0  0
   47.9239   55.0082   32.5970 O   0  0  0  0  0  0  0  0  0  0  0  0
   47.9452   53.6603   34.4096 C   0  0  1  0  0  0  0  0  0  0  0  0
   48.7095   52.7300   35.1218 O   0  0  0  0  0  0  0  0  0  0  0  0
   48.2509   55.1868   34.7932 C   0  0  1  0  0  0  0  0  0  0  0  0
   49.5845   55.6219   34.4901 O   0  0  0  0  0  0  0  0  0  0  0  0
   47.2162   55.5829   33.7652 C   0  0  1  0  0  0  0  0  0  0  0  0
   49.3533   57.5583   28.1535 O   0  0  0  0  0  0  0  0  0  0  0  0
   49.3023   59.6593   31.6917 N   0  0  0  0  0  0  0  0  0  0  0  0
   49.8507   58.5835   32.2586 C   0  0  0  0  0  0  0  0  0  0  0  0
   49.1101   57.5715   32.7089 N   0  0  0  0  0  0  0  0  0  0  0  0
   47.7727   57.6481   32.7247 C   0  0  0  0  0  0  0  0  0  0  0  0
   47.1461   58.8168   32.1860 C   0  0  0  0  0  0  0  0  0  0  0  0
   47.9872   59.8314   31.6520 C   0  0  0  0  0  0  0  0  0  0  0  0
   47.4679   60.9701   31.1030 N   0  0  0  0  0  0  0  0  0  0  0  0
   45.8159   58.6520   32.3230 N   0  0  0  0  0  0  0  0  0  0  0  0
   45.5757   57.4948   32.8993 C   0  0  0  0  0  0  0  0  0  0  0  0
   46.7390   56.8138   33.1618 N   0  0  0  0  0  0  0  0  0  0  0  0
  2  1  1  6  0  0  0
  2  3  1  0  0  0  0
  2  5  1  0  0  0  0
  3  4  1  0  0  0  0
  3 17  1  0  0  0  0
  5  6  1  0  0  0  0
  7  6  1  6  0  0  0
  7  8  1  0  0  0  0
  7  9  1  0  0  0  0
 10  9  1  6  0  0  0
 10 11  1  0  0  0  0
 10 12  1  0  0  0  0
 11 16  1  0  0  0  0
 12 13  1  1  0  0  0
 12 14  1  0  0  0  0
 14 15  1  6  0  0  0
 14 16  1  0  0  0  0
 16 27  1  6  0  0  0
 18 19  2  0  0  0  0
 18 23  1  0  0  0  0
 19 20  1  0  0  0  0
 20 21  2  0  0  0  0
 21 22  1  0  0  0  0
 21 27  1  0  0  0  0
 22 23  2  0  0  0  0
 22 25  1  0  0  0  0
 23 24  1  0  0  0  0
 25 26  2  0  0  0  0
 26 27  1  0  0  0  0
M  END
>  <CHROM.1>
87.77165312,-161.05942067,93.89941216,-88.85021301,-50.03004852,77.60997309
-61.71647503,48.32493919,55.98607844,31.34157288,-0.56748504,-1.33889695
2.64166300

>  <Name>
ligand

>  <RI>
0

>  <Rbt.Current_Directory>
/home/itssahil/PROJECTS/Mol_Feturizer/New_Systems/rnas/3IQN

>  <Rbt.Executable>
rbdock ($Id: //depot/dev/client3/rdock/2013.1/src/exe/rbdock.cxx#4 $)

>  <Rbt.Library>
libRbt.so (2013.1, Build901 2013/11/27)

>  <Rbt.Parameter_File>
/export/apps/rDock/src/rDock_2013.1_src/data/scripts/dock_solv.prm

>  <Rbt.Receptor>
prm/pocket_docking_2.prm

>  <SCORE>
-10.8449

>  <SCORE.INTER>
-11.5762

>  <SCORE.INTER.CONST>
1

>  <SCORE.INTER.POLAR>
0

>  <SCORE.INTER.ROT>
7

>  <SCORE.INTER.SOLV>
19.7102

>  <SCORE.INTER.VDW>
-22.5542

>  <SCORE.INTER.norm>
-0.428748

>  <SCORE.INTRA>
-0.440045

>  <SCORE.INTRA.DIHEDRAL>
0.685134

>  <SCORE.INTRA.DIHEDRAL.0>
10.0365

>  <SCORE.INTRA.POLAR>
0

>  <SCORE.INTRA.POLAR.0>
0

>  <SCORE.INTRA.REPUL>
0

>  <SCORE.INTRA.REPUL.0>
0

>  <SCORE.INTRA.SOLV>
-0.596613

>  <SCORE.INTRA.SOLV.lig_0>
-48.6728

>  <SCORE.INTRA.VDW>
-0.484305

>  <SCORE.INTRA.VDW.0>
-1.10662

>  <SCORE.INTRA.norm>
-0.0162979

>  <SCORE.RESTR>
1.17139

>  <SCORE.RESTR.CAVITY>
1.17139

>  <SCORE.RESTR.norm>
0.0433849

>  <SCORE.SYSTEM>
0

>  <SCORE.SYSTEM.CONST>
0

>  <SCORE.SYSTEM.DIHEDRAL>
0

>  <SCORE.SYSTEM.SOLV>
0

>  <SCORE.SYSTEM.norm>
0

>  <SCORE.heavy>
27

>  <SCORE.norm>
-0.401661

>  <RMSD>
2.117

$$$$
ligand
 OpenBabel11021811483D
libRbt.so/2013.1/901 2013/11/27
 27 29  0  0  0  0  0  0  0  0999 V2000
   46.6497   57.5104   29.0787 N   0  0  0  0  0  0  0  0  0  0  0  0
   47.6248   56.4611   28.7543 C   0  0  2  0  0  0  0  0  0  0  0  0
   48.5720   56.9955   27.7225 C   0  0  0  0  0  0  0  0  0  0  0  0
   48.1371   57.5049   26.7019 O   0  0  0  0  0  0  0  0  0  0  0  0
   46.9089   55.2215   28.1973 C   0  0  0  0  0  0  0  0  0  0  0  0
   47.9528   54.1706   27.8309 C   0  0  0  0  0  0  0  0  0  0  0  0
   49.0064   53.6753   29.2316 S   0  0  2  0  0  0  0  0  0  0  0  0
   49.7199   52.0801   28.7248 C   0  0  0  0  0  0  0  0  0  0  0  0
   47.9903   53.0843   30.6331 C   0  0  0  0  0  0  0  0  0  0  0  0
   48.6015   53.7881   31.8198 C   0  0  1  0  0  0  0  0  0  0  0  0
   48.0477   55.0616   31.7731 O   0  0  0  0  0  0  0  0  0  0  0  0
   48.2825   53.3750   33.2573 C   0  0  1  0  0  0  0  0  0  0  0  0
   49.1712   52.4136   33.7498 O   0  0  0  0  0  0  0  0  0  0  0  0
   48.4231   54.8120   33.9545 C   0  0  1  0  0  0  0  0  0  0  0  0
   49.6873   55.4568   33.7412 O   0  0  0  0  0  0  0  0  0  0  0  0
   47.3169   55.2893   33.0420 C   0  0  1  0  0  0  0  0  0  0  0  0
   49.7760   56.9327   27.9154 O   0  0  0  0  0  0  0  0  0  0  0  0
   48.8522   59.9092   31.7899 N   0  0  0  0  0  0  0  0  0  0  0  0
   49.5394   58.8111   32.1083 C   0  0  0  0  0  0  0  0  0  0  0  0
   48.9338   57.6517   32.3624 N   0  0  0  0  0  0  0  0  0  0  0  0
   47.5983   57.5709   32.4316 C   0  0  0  0  0  0  0  0  0  0  0  0
   46.8251   58.7448   32.1621 C   0  0  0  0  0  0  0  0  0  0  0  0
   47.5260   59.9350   31.8238 C   0  0  0  0  0  0  0  0  0  0  0  0
   46.8619   61.0940   31.5351 N   0  0  0  0  0  0  0  0  0  0  0  0
   45.5285   58.4056   32.3002 N   0  0  0  0  0  0  0  0  0  0  0  0
   45.4416   57.1367   32.6336 C   0  0  0  0  0  0  0  0  0  0  0  0
   46.6822   56.5538   32.7177 N   0  0  0  0  0  0  0  0  0  0  0  0
  2  1  1  6  0  0  0
  2  3  1  0  0  0  0
  2  5  1  0  0  0  0
  3  4  1  0  0  0  0
  3 17  1  0  0  0  0
  5  6  1  0  0  0  0
  7  6  1  6  0  0  0
  7  8  1  0  0  0  0
  7  9  1  0  0  0  0
 10  9  1  6  0  0  0
 10 11  1  0  0  0  0
 10 12  1  0  0  0  0
 11 16  1  0  0  0  0
 12 13  1  1  0  0  0
 12 14  1  0  0  0  0
 14 15  1  6  0  0  0
 14 16  1  0  0  0  0
 16 27  1  1  0  0  0
 18 19  2  0  0  0  0
 18 23  1  0  0  0  0
 19 20  1  0  0  0  0
 20 21  2  0  0  0  0
 21 22  1  0  0  0  0
 21 27  1  0  0  0  0
 22 23  2  0  0  0  0
 22 25  1  0  0  0  0
 23 24  1  0  0  0  0
 25 26  2  0  0  0  0
 26 27  1  0  0  0  0
M  END
>  <CHROM.1>
-51.81718364,178.24220849,58.13585294,160.89445131,-133.93085652,80.57781504
-60.39428764,48.07546154,56.09120114,30.91233414,3.10675407,-1.33016284,1.82794748

>  <Name>
ligand

>  <RI>
0

>  <Rbt.Current_Directory>
/home/itssahil/PROJECTS/Mol_Feturizer/New_Systems/rnas/3IQN

>  <Rbt.Executable>
rbdock ($Id: //depot/dev/client3/rdock/2013.1/src/exe/rbdock.cxx#4 $)

>  <Rbt.Library>
libRbt.so (2013.1, Build901 2013/11/27)

>  <Rbt.Parameter_File>
/export/apps/rDock/src/rDock_2013.1_src/data/scripts/dock_solv.prm

>  <Rbt.Receptor>
prm/pocket_docking_2.prm

>  <SCORE>
-11.9238

>  <SCORE.INTER>
-9.38731

>  <SCORE.INTER.CONST>
1

>  <SCORE.INTER.POLAR>
0

>  <SCORE.INTER.ROT>
7

>  <SCORE.INTER.SOLV>
17.0571

>  <SCORE.INTER.VDW>
-20.2106

>  <SCORE.INTER.norm>
-0.347678

>  <SCORE.INTRA>
-2.62334

>  <SCORE.INTRA.DIHEDRAL>
-0.818431

>  <SCORE.INTRA.DIHEDRAL.0>
10.0365

>  <SCORE.INTRA.POLAR>
0

>  <SCORE.INTRA.POLAR.0>
0

>  <SCORE.INTRA.REPUL>
0

>  <SCORE.INTRA.REPUL.0>
0

>  <SCORE.INTRA.SOLV>
1.19557

>  <SCORE.INTRA.SOLV.lig_0>
-48.6728

>  <SCORE.INTRA.VDW>
-2.81191

>  <SCORE.INTRA.VDW.0>
-1.10662

>  <SCORE.INTRA.norm>
-0.0971609

>  <SCORE.RESTR>
0.0868423

>  <SCORE.RESTR.CAVITY>
0.0868423

>  <SCORE.RESTR.norm>
0.00321638

>  <SCORE.SYSTEM>
0

>  <SCORE.SYSTEM.CONST>
0

>  <SCORE.SYSTEM.DIHEDRAL>
0

>  <SCORE.SYSTEM.SOLV>
0

>  <SCORE.SYSTEM.norm>
0

>  <SCORE.heavy>
27

>  <SCORE.norm>
-0.441623

>  <RMSD>
2.125

$$$$
ligand
 OpenBabel11021811483D
libRbt.so/2013.1/901 2013/11/27
 27 29  0  0  0  0  0  0  0  0999 V2000
   46.7340   57.4632   28.9943 N   0  0  0  0  0  0  0  0  0  0  0  0
   47.6650   56.3651   28.7032 C   0  0  2  0  0  0  0  0  0  0  0  0
   48.6346   56.8290   27.6582 C   0  0  0  0  0  0  0  0  0  0  0  0
   48.2280   57.1733   26.5598 O   0  0  0  0  0  0  0  0  0  0  0  0
   46.8988   55.1403   28.1815 C   0  0  0  0  0  0  0  0  0  0  0  0
   47.8989   54.0385   27.8438 C   0  0  0  0  0  0  0  0  0  0  0  0
   48.9488   53.5553   29.2515 S   0  0  2  0  0  0  0  0  0  0  0  0
   49.6330   51.9375   28.7771 C   0  0  0  0  0  0  0  0  0  0  0  0
   47.9278   53.0123   30.6687 C   0  0  0  0  0  0  0  0  0  0  0  0
   48.5571   53.7284   31.8384 C   0  0  1  0  0  0  0  0  0  0  0  0
   48.0097   55.0043   31.7813 O   0  0  0  0  0  0  0  0  0  0  0  0
   48.2532   53.3364   33.2851 C   0  0  1  0  0  0  0  0  0  0  0  0
   49.1425   52.3766   33.7797 O   0  0  0  0  0  0  0  0  0  0  0  0
   48.4101   54.7818   33.9612 C   0  0  1  0  0  0  0  0  0  0  0  0
   49.6752   55.4165   33.7240 O   0  0  0  0  0  0  0  0  0  0  0  0
   47.2956   55.2530   33.0556 C   0  0  1  0  0  0  0  0  0  0  0  0
   49.8271   56.8752   27.9163 O   0  0  0  0  0  0  0  0  0  0  0  0
   48.8420   59.8955   31.9045 N   0  0  0  0  0  0  0  0  0  0  0  0
   49.5252   58.7986   32.2357 C   0  0  0  0  0  0  0  0  0  0  0  0
   48.9191   57.6328   32.4568 N   0  0  0  0  0  0  0  0  0  0  0  0
   47.5826   57.5426   32.4784 C   0  0  0  0  0  0  0  0  0  0  0  0
   46.8112   58.7142   32.1938 C   0  0  0  0  0  0  0  0  0  0  0  0
   47.5153   59.9123   31.8922 C   0  0  0  0  0  0  0  0  0  0  0  0
   46.8538   61.0698   31.5920 N   0  0  0  0  0  0  0  0  0  0  0  0
   45.5129   58.3651   32.2830 N   0  0  0  0  0  0  0  0  0  0  0  0
   45.4231   57.0924   32.6004 C   0  0  0  0  0  0  0  0  0  0  0  0
   46.6639   56.5166   32.7220 N   0  0  0  0  0  0  0  0  0  0  0  0
  2  1  1  6  0  0  0
  2  3  1  0  0  0  0
  2  5  1  0  0  0  0
  3  4  1  0  0  0  0
  3 17  1  0  0  0  0
  5  6  1  0  0  0  0
  7  6  1  6  0  0  0
  7  8  1  0  0  0  0
  7  9  1  0  0  0  0
 10  9  1  6  0  0  0
 10 11  1  0  0  0  0
 10 12  1  0  0  0  0
 11 16  1  0  0  0  0
 12 13  1  1  0  0  0
 12 14  1  0  0  0  0
 14 15  1  6  0  0  0
 14 16  1  0  0  0  0
 16 27  1  1  0  0  0
 18 19  2  0  0  0  0
 18 23  1  0  0  0  0
 19 20  1  0  0  0  0
 20 21  2  0  0  0  0
 21 22  1  0  0  0  0
 21 27  1  0  0  0  0
 22 23  2  0  0  0  0
 22 25  1  0  0  0  0
 23 24  1  0  0  0  0
 25 26  2  0  0  0  0
 26 27  1  0  0  0  0
M  END
>  <CHROM.1>
-60.74143533,178.04074370,57.39377617,162.38320851,-134.05030372,81.55238166
-63.48809368,48.06345652,56.01954476,30.92424010,3.02732717,-1.34332636,1.82460733

>  <Name>
ligand

>  <RI>
0

>  <Rbt.Current_Directory>
/home/itssahil/PROJECTS/Mol_Feturizer/New_Systems/rnas/3IQN

>  <Rbt.Executable>
rbdock ($Id: //depot/dev/client3/rdock/2013.1/src/exe/rbdock.cxx#4 $)

>  <Rbt.Library>
libRbt.so (2013.1, Build901 2013/11/27)

>  <Rbt.Parameter_File>
/export/apps/rDock/src/rDock_2013.1_src/data/scripts/dock_solv.prm

>  <Rbt.Receptor>
prm/pocket_docking_2.prm

>  <SCORE>
-11.8465

>  <SCORE.INTER>
-9.34725

>  <SCORE.INTER.CONST>
1

>  <SCORE.INTER.POLAR>
0

>  <SCORE.INTER.ROT>
7

>  <SCORE.INTER.SOLV>
16.9922

>  <SCORE.INTER.VDW>
-20.1622

>  <SCORE.INTER.norm>
-0.346195

>  <SCORE.INTRA>
-2.60484

>  <SCORE.INTRA.DIHEDRAL>
-0.787887

>  <SCORE.INTRA.DIHEDRAL.0>
10.0365

>  <SCORE.INTRA.POLAR>
0

>  <SCORE.INTRA.POLAR.0>
0

>  <SCORE.INTRA.REPUL>
0

>  <SCORE.INTRA.REPUL.0>
0

>  <SCORE.INTRA.SOLV>
0.753868

>  <SCORE.INTRA.SOLV.lig_0>
-48.6728

>  <SCORE.INTRA.VDW>
-2.58783

>  <SCORE.INTRA.VDW.0>
-1.10662

>  <SCORE.INTRA.norm>
-0.0964754

>  <SCORE.RESTR>
0.105597

>  <SCORE.RESTR.CAVITY>
0.105597

>  <SCORE.RESTR.norm>
0.00391102

>  <SCORE.SYSTEM>
0

>  <SCORE.SYSTEM.CONST>
0

>  <SCORE.SYSTEM.DIHEDRAL>
0

>  <SCORE.SYSTEM.SOLV>
0

>  <SCORE.SYSTEM.norm>
0

>  <SCORE.heavy>
27

>  <SCORE.norm>
-0.438759

>  <RMSD>
2.127

$$$$
ligand
 OpenBabel11021811483D
libRbt.so/2013.1/901 2013/11/27
 27 29  0  0  0  0  0  0  0  0999 V2000
   46.6750   57.6733   29.1489 N   0  0  0  0  0  0  0  0  0  0  0  0
   47.3481   56.4545   28.6811 C   0  0  2  0  0  0  0  0  0  0  0  0
   47.9276   56.7228   27.3248 C   0  0  0  0  0  0  0  0  0  0  0  0
   49.0249   56.2753   27.0318 O   0  0  0  0  0  0  0  0  0  0  0  0
   46.3461   55.2940   28.5881 C   0  0  0  0  0  0  0  0  0  0  0  0
   47.0972   54.0216   28.2071 C   0  0  0  0  0  0  0  0  0  0  0  0
   48.3165   53.4978   29.4546 S   0  0  2  0  0  0  0  0  0  0  0  0
   49.0171   51.9560   28.7894 C   0  0  0  0  0  0  0  0  0  0  0  0
   47.4833   52.8031   30.9274 C   0  0  0  0  0  0  0  0  0  0  0  0
   48.1880   53.4864   32.0735 C   0  0  1  0  0  0  0  0  0  0  0  0
   47.7369   54.7989   32.0069 O   0  0  0  0  0  0  0  0  0  0  0  0
   47.8849   53.1389   33.5317 C   0  0  1  0  0  0  0  0  0  0  0  0
   48.7095   52.1219   34.0243 O   0  0  0  0  0  0  0  0  0  0  0  0
   48.1634   54.5778   34.1820 C   0  0  1  0  0  0  0  0  0  0  0  0
   49.4675   55.1120   33.9108 O   0  0  0  0  0  0  0  0  0  0  0  0
   47.0694   55.1188   33.2906 C   0  0  1  0  0  0  0  0  0  0  0  0
   47.2913   57.3758   26.5127 O   0  0  0  0  0  0  0  0  0  0  0  0
   48.9332   59.5892   31.9452 N   0  0  0  0  0  0  0  0  0  0  0  0
   49.5395   58.4483   32.2772 C   0  0  0  0  0  0  0  0  0  0  0  0
   48.8516   57.3420   32.5565 N   0  0  0  0  0  0  0  0  0  0  0  0
   47.5145   57.3623   32.6380 C   0  0  0  0  0  0  0  0  0  0  0  0
   46.8284   58.5861   32.3543 C   0  0  0  0  0  0  0  0  0  0  0  0
   47.6129   59.7146   31.9894 C   0  0  0  0  0  0  0  0  0  0  0  0
   47.0345   60.9150   31.6858 N   0  0  0  0  0  0  0  0  0  0  0  0
   45.5115   58.3471   32.5088 N   0  0  0  0  0  0  0  0  0  0  0  0
   45.3333   57.0940   32.8651 C   0  0  0  0  0  0  0  0  0  0  0  0
   46.5277   56.4215   32.9493 N   0  0  0  0  0  0  0  0  0  0  0  0
  2  1  1  6  0  0  0
  2  3  1  0  0  0  0
  2  5  1  0  0  0  0
  3  4  1  0  0  0  0
  3 17  1  0  0  0  0
  5  6  1  0  0  0  0
  7  6  1  6  0  0  0
  7  8  1  0  0  0  0
  7  9  1  0  0  0  0
 10  9  1  6  0  0  0
 10 11  1  0  0  0  0
 10 12  1  0  0  0  0
 11 16  1  0  0  0  0
 12 13  1  1  0  0  0
 12 14  1  0  0  0  0
 14 15  1  6  0  0  0
 14 16  1  0  0  0  0
 16 27  1  1  0  0  0
 18 19  2  0  0  0  0
 18 23  1  0  0  0  0
 19 20  1  0  0  0  0
 20 21  2  0  0  0  0
 21 22  1  0  0  0  0
 21 27  1  0  0  0  0
 22 23  2  0  0  0  0
 22 25  1  0  0  0  0
 23 24  1  0  0  0  0
 25 26  2  0  0  0  0
 26 27  1  0  0  0  0
M  END
>  <CHROM.1>
140.52527610,-175.56963839,63.29340647,178.23101835,-133.10013447,71.25723043
-61.90667044,47.74116873,55.88928646,31.03983496,2.76344201,-1.41510846,1.43938816

>  <Name>
ligand

>  <RI>
0

>  <Rbt.Current_Directory>
/home/itssahil/PROJECTS/Mol_Feturizer/New_Systems/rnas/3IQN

>  <Rbt.Executable>
rbdock ($Id: //depot/dev/client3/rdock/2013.1/src/exe/rbdock.cxx#4 $)

>  <Rbt.Library>
libRbt.so (2013.1, Build901 2013/11/27)

>  <Rbt.Parameter_File>
/export/apps/rDock/src/rDock_2013.1_src/data/scripts/dock_solv.prm

>  <Rbt.Receptor>
prm/pocket_docking_3.prm

>  <SCORE>
-13.8287

>  <SCORE.INTER>
-10.6451

>  <SCORE.INTER.CONST>
1

>  <SCORE.INTER.POLAR>
0

>  <SCORE.INTER.ROT>
7

>  <SCORE.INTER.SOLV>
17.0028

>  <SCORE.INTER.VDW>
-21.031

>  <SCORE.INTER.norm>
-0.394261

>  <SCORE.INTRA>
-3.18363

>  <SCORE.INTRA.DIHEDRAL>
-1.93946

>  <SCORE.INTRA.DIHEDRAL.0>
10.0365

>  <SCORE.INTRA.POLAR>
0

>  <SCORE.INTRA.POLAR.0>
0

>  <SCORE.INTRA.REPUL>
0

>  <SCORE.INTRA.REPUL.0>
0

>  <SCORE.INTRA.SOLV>
1.0142

>  <SCORE.INTRA.SOLV.lig_0>
-48.6728

>  <SCORE.INTRA.VDW>
-2.721

>  <SCORE.INTRA.VDW.0>
-1.10662

>  <SCORE.INTRA.norm>
-0.117912

>  <SCORE.RESTR>
0

>  <SCORE.RESTR.CAVITY>
0

>  <SCORE.RESTR.norm>
0

>  <SCORE.SYSTEM>
0

>  <SCORE.SYSTEM.CONST>
0

>  <SCORE.SYSTEM.DIHEDRAL>
0

>  <SCORE.SYSTEM.SOLV>
0

>  <SCORE.SYSTEM.norm>
0

>  <SCORE.heavy>
27

>  <SCORE.norm>
-0.512174

>  <RMSD>
2.134

$$$$
ligand
 OpenBabel11021811483D
libRbt.so/2013.1/901 2013/11/27
 27 29  0  0  0  0  0  0  0  0999 V2000
   45.6566   56.9892   28.2072 N   0  0  0  0  0  0  0  0  0  0  0  0
   46.9824   56.3574   28.1849 C   0  0  2  0  0  0  0  0  0  0  0  0
   47.9093   57.2264   27.3892 C   0  0  0  0  0  0  0  0  0  0  0  0
   47.5251   57.7327   26.3470 O   0  0  0  0  0  0  0  0  0  0  0  0
   46.9004   54.9682   27.5348 C   0  0  0  0  0  0  0  0  0  0  0  0
   48.2332   54.2514   27.7301 C   0  0  0  0  0  0  0  0  0  0  0  0
   48.9982   54.5711   29.3518 S   0  0  2  0  0  0  0  0  0  0  0  0
   50.7129   53.9904   29.1705 C   0  0  0  0  0  0  0  0  0  0  0  0
   48.4292   53.3522   30.5913 C   0  0  0  0  0  0  0  0  0  0  0  0
   48.8486   53.9741   31.9007 C   0  0  1  0  0  0  0  0  0  0  0  0
   48.2559   55.2306   31.8774 O   0  0  0  0  0  0  0  0  0  0  0  0
   48.3578   53.4359   33.2455 C   0  0  1  0  0  0  0  0  0  0  0  0
   49.2105   52.4635   33.7785 O   0  0  0  0  0  0  0  0  0  0  0  0
   48.3473   54.8146   34.0639 C   0  0  1  0  0  0  0  0  0  0  0  0
   49.6021   55.5109   34.0745 O   0  0  0  0  0  0  0  0  0  0  0  0
   47.3544   55.3327   33.0490 C   0  0  1  0  0  0  0  0  0  0  0  0
   49.0411   57.4365   27.7961 O   0  0  0  0  0  0  0  0  0  0  0  0
   48.8819   59.9333   31.7189 N   0  0  0  0  0  0  0  0  0  0  0  0
   49.5710   58.8313   32.0194 C   0  0  0  0  0  0  0  0  0  0  0  0
   48.9654   57.6783   32.3007 N   0  0  0  0  0  0  0  0  0  0  0  0
   47.6325   57.6087   32.4166 C   0  0  0  0  0  0  0  0  0  0  0  0
   46.8597   58.7874   32.1676 C   0  0  0  0  0  0  0  0  0  0  0  0
   47.5579   59.9700   31.7986 C   0  0  0  0  0  0  0  0  0  0  0  0
   46.8934   61.1329   31.5266 N   0  0  0  0  0  0  0  0  0  0  0  0
   45.5661   58.4595   32.3524 N   0  0  0  0  0  0  0  0  0  0  0  0
   45.4807   57.1931   32.6956 C   0  0  0  0  0  0  0  0  0  0  0  0
   46.7188   56.6005   32.7399 N   0  0  0  0  0  0  0  0  0  0  0  0
  2  1  1  6  0  0  0
  2  3  1  0  0  0  0
  2  5  1  0  0  0  0
  3  4  1  0  0  0  0
  3 17  1  0  0  0  0
  5  6  1  0  0  0  0
  7  6  1  6  0  0  0
  7  8  1  0  0  0  0
  7  9  1  0  0  0  0
 10  9  1  6  0  0  0
 10 11  1  0  0  0  0
 10 12  1  0  0  0  0
 11 16  1  0  0  0  0
 12 13  1  1  0  0  0
 12 14  1  0  0  0  0
 14 15  1  6  0  0  0
 14 16  1  0  0  0  0
 16 27  1  1  0  0  0
 18 19  2  0  0  0  0
 18 23  1  0  0  0  0
 19 20  1  0  0  0  0
 20 21  2  0  0  0  0
 21 22  1  0  0  0  0
 21 27  1  0  0  0  0
 22 23  2  0  0  0  0
 22 25  1  0  0  0  0
 23 24  1  0  0  0  0
 25 26  2  0  0  0  0
 26 27  1  0  0  0  0
M  END
>  <CHROM.1>
-42.33257885,-170.90753751,37.64273882,-165.70608301,-165.43097911,55.49652566
-49.24849209,48.03331278,56.29040114,30.85150698,-2.24722108,-1.26662703
1.46199975

>  <Name>
ligand

>  <RI>
0

>  <Rbt.Current_Directory>
/home/itssahil/PROJECTS/Mol_Feturizer/New_Systems/rnas/3IQN

>  <Rbt.Executable>
rbdock ($Id: //depot/dev/client3/rdock/2013.1/src/exe/rbdock.cxx#4 $)

>  <Rbt.Library>
libRbt.so (2013.1, Build901 2013/11/27)

>  <Rbt.Parameter_File>
/export/apps/rDock/src/rDock_2013.1_src/data/scripts/dock_solv.prm

>  <Rbt.Receptor>
prm/pocket_docking_2.prm

>  <SCORE>
-11.1439

>  <SCORE.INTER>
-10.0162

>  <SCORE.INTER.CONST>
1

>  <SCORE.INTER.POLAR>
0

>  <SCORE.INTER.ROT>
7

>  <SCORE.INTER.SOLV>
19.1438

>  <SCORE.INTER.VDW>
-21.3254

>  <SCORE.INTER.norm>
-0.370971

>  <SCORE.INTRA>
-1.34124

>  <SCORE.INTRA.DIHEDRAL>
-2.5218

>  <SCORE.INTRA.DIHEDRAL.0>
10.0365

>  <SCORE.INTRA.POLAR>
0

>  <SCORE.INTRA.POLAR.0>
0

>  <SCORE.INTRA.REPUL>
0

>  <SCORE.INTRA.REPUL.0>
0

>  <SCORE.INTRA.SOLV>
-0.439055

>  <SCORE.INTRA.SOLV.lig_0>
-48.6728

>  <SCORE.INTRA.VDW>
0.13919

>  <SCORE.INTRA.VDW.0>
-1.10662

>  <SCORE.INTRA.norm>
-0.0496755

>  <SCORE.RESTR>
0.213581

>  <SCORE.RESTR.CAVITY>
0.213581

>  <SCORE.RESTR.norm>
0.0079104

>  <SCORE.SYSTEM>
0

>  <SCORE.SYSTEM.CONST>
0

>  <SCORE.SYSTEM.DIHEDRAL>
0

>  <SCORE.SYSTEM.SOLV>
0

>  <SCORE.SYSTEM.norm>
0

>  <SCORE.heavy>
27

>  <SCORE.norm>
-0.412737

>  <RMSD>
2.173

$$$$
ligand
 OpenBabel11021811483D
libRbt.so/2013.1/901 2013/11/27
 27 29  0  0  0  0  0  0  0  0999 V2000
   48.8794   56.7604   28.1229 N   0  0  0  0  0  0  0  0  0  0  0  0
   48.2798   55.5984   27.4539 C   0  0  2  0  0  0  0  0  0  0  0  0
   48.3688   55.8055   25.9718 C   0  0  0  0  0  0  0  0  0  0  0  0
   47.4834   56.4088   25.3867 O   0  0  0  0  0  0  0  0  0  0  0  0
   46.8062   55.4500   27.8615 C   0  0  0  0  0  0  0  0  0  0  0  0
   46.7379   55.0525   29.3331 C   0  0  0  0  0  0  0  0  0  0  0  0
   47.3666   53.3749   29.6615 S   0  0  2  0  0  0  0  0  0  0  0  0
   46.1685   52.2713   28.8511 C   0  0  0  0  0  0  0  0  0  0  0  0
   47.0509   52.8898   31.3967 C   0  0  0  0  0  0  0  0  0  0  0  0
   48.0360   53.7300   32.1718 C   0  0  1  0  0  0  0  0  0  0  0  0
   47.5534   55.0252   32.0293 O   0  0  0  0  0  0  0  0  0  0  0  0
   48.1683   53.6250   33.6918 C   0  0  1  0  0  0  0  0  0  0  0  0
   49.1229   52.6806   34.0839 O   0  0  0  0  0  0  0  0  0  0  0  0
   48.5859   55.1420   33.9996 C   0  0  1  0  0  0  0  0  0  0  0  0
   49.7460   55.5970   33.2877 O   0  0  0  0  0  0  0  0  0  0  0  0
   47.2710   55.5594   33.3823 C   0  0  1  0  0  0  0  0  0  0  0  0
   49.3359   55.3825   25.3582 O   0  0  0  0  0  0  0  0  0  0  0  0
   48.7303   60.0008   31.5348 N   0  0  0  0  0  0  0  0  0  0  0  0
   49.4314   58.9204   31.8821 C   0  0  0  0  0  0  0  0  0  0  0  0
   48.8398   57.8058   32.3098 N   0  0  0  0  0  0  0  0  0  0  0  0
   47.5187   57.7657   32.5287 C   0  0  0  0  0  0  0  0  0  0  0  0
   46.7384   58.9283   32.2316 C   0  0  0  0  0  0  0  0  0  0  0  0
   47.4161   60.0632   31.7074 C   0  0  0  0  0  0  0  0  0  0  0  0
   46.7421   61.2063   31.3811 N   0  0  0  0  0  0  0  0  0  0  0  0
   45.4596   58.6365   32.5394 N   0  0  0  0  0  0  0  0  0  0  0  0
   45.3904   57.4071   33.0006 C   0  0  0  0  0  0  0  0  0  0  0  0
   46.6239   56.8035   33.0075 N   0  0  0  0  0  0  0  0  0  0  0  0
  2  1  1  1  0  0  0
  2  3  1  0  0  0  0
  2  5  1  0  0  0  0
  3  4  1  0  0  0  0
  3 17  1  0  0  0  0
  5  6  1  0  0  0  0
  7  6  1  1  0  0  0
  7  8  1  0  0  0  0
  7  9  1  0  0  0  0
 10  9  1  1  0  0  0
 10 11  1  0  0  0  0
 10 12  1  0  0  0  0
 11 16  1  0  0  0  0
 12 13  1  6  0  0  0
 12 14  1  0  0  0  0
 14 15  1  6  0  0  0
 14 16  1  0  0  0  0
 16 27  1  6  0  0  0
 18 19  2  0  0  0  0
 18 23  1  0  0  0  0
 19 20  1  0  0  0  0
 20 21  2  0  0  0  0
 21 22  1  0  0  0  0
 21 27  1  0  0  0  0
 22 23  2  0  0  0  0
 22 25  1  0  0  0  0
 23 24  1  0  0  0  0
 25 26  2  0  0  0  0
 26 27  1  0  0  0  0
M  END
>  <CHROM.1>
-87.58524675,-68.34031219,-68.12119252,-67.33562573,-72.37532093,68.99552217
-74.10935767,47.70505838,56.00502552,30.78459672,0.78056796,1.52599765,-1.19191600

>  <Name>
ligand

>  <RI>
0

>  <Rbt.Current_Directory>
/home/itssahil/PROJECTS/Mol_Feturizer/New_Systems/rnas/3IQN

>  <Rbt.Executable>
rbdock ($Id: //depot/dev/client3/rdock/2013.1/src/exe/rbdock.cxx#4 $)

>  <Rbt.Library>
libRbt.so (2013.1, Build901 2013/11/27)

>  <Rbt.Parameter_File>
/export/apps/rDock/src/rDock_2013.1_src/data/scripts/dock_solv.prm

>  <Rbt.Receptor>
prm/pocket_docking_4.prm

>  <SCORE>
-13.3295

>  <SCORE.INTER>
-9.86859

>  <SCORE.INTER.CONST>
1

>  <SCORE.INTER.POLAR>
0

>  <SCORE.INTER.ROT>
7

>  <SCORE.INTER.SOLV>
19.2263

>  <SCORE.INTER.VDW>
-21.2545

>  <SCORE.INTER.norm>
-0.365503

>  <SCORE.INTRA>
-3.46086

>  <SCORE.INTRA.DIHEDRAL>
-6.0178

>  <SCORE.INTRA.DIHEDRAL.0>
10.0365

>  <SCORE.INTRA.POLAR>
0

>  <SCORE.INTRA.POLAR.0>
0

>  <SCORE.INTRA.REPUL>
0

>  <SCORE.INTRA.REPUL.0>
0

>  <SCORE.INTRA.SOLV>
0.338643

>  <SCORE.INTRA.SOLV.lig_0>
-48.6728

>  <SCORE.INTRA.VDW>
-0.621285

>  <SCORE.INTRA.VDW.0>
-1.10662

>  <SCORE.INTRA.norm>
-0.12818

>  <SCORE.RESTR>
0

>  <SCORE.RESTR.CAVITY>
0

>  <SCORE.RESTR.norm>
0

>  <SCORE.SYSTEM>
0

>  <SCORE.SYSTEM.CONST>
0

>  <SCORE.SYSTEM.DIHEDRAL>
0

>  <SCORE.SYSTEM.SOLV>
0

>  <SCORE.SYSTEM.norm>
0

>  <SCORE.heavy>
27

>  <SCORE.norm>
-0.493683

>  <RMSD>
2.196

$$$$
ligand
 OpenBabel11021811483D
libRbt.so/2013.1/901 2013/11/27
 27 29  0  0  0  0  0  0  0  0999 V2000
   48.7013   57.0503   27.4536 N   0  0  0  0  0  0  0  0  0  0  0  0
   48.3200   55.7242   26.9503 C   0  0  2  0  0  0  0  0  0  0  0  0
   48.3465   55.7592   25.4518 C   0  0  0  0  0  0  0  0  0  0  0  0
   47.3919   56.2058   24.8359 O   0  0  0  0  0  0  0  0  0  0  0  0
   46.9066   55.3585   27.4279 C   0  0  0  0  0  0  0  0  0  0  0  0
   46.9635   54.9963   28.9091 C   0  0  0  0  0  0  0  0  0  0  0  0
   48.0283   53.5621   29.2650 S   0  0  2  0  0  0  0  0  0  0  0  0
   47.3762   52.2348   28.2050 C   0  0  0  0  0  0  0  0  0  0  0  0
   47.6180   52.8350   30.8925 C   0  0  0  0  0  0  0  0  0  0  0  0
   48.4352   53.6633   31.8533 C   0  0  1  0  0  0  0  0  0  0  0  0
   47.8880   54.9358   31.7447 O   0  0  0  0  0  0  0  0  0  0  0  0
   48.3772   53.4400   33.3652 C   0  0  1  0  0  0  0  0  0  0  0  0
   49.3353   52.5229   33.8100 O   0  0  0  0  0  0  0  0  0  0  0  0
   48.6472   54.9478   33.8389 C   0  0  1  0  0  0  0  0  0  0  0  0
   49.8557   55.5265   33.3250 O   0  0  0  0  0  0  0  0  0  0  0  0
   47.3975   55.3385   33.0839 C   0  0  1  0  0  0  0  0  0  0  0  0
   49.3312   55.3545   24.8540 O   0  0  0  0  0  0  0  0  0  0  0  0
   48.7768   59.9955   31.7883 N   0  0  0  0  0  0  0  0  0  0  0  0
   49.4992   58.9322   32.1447 C   0  0  0  0  0  0  0  0  0  0  0  0
   48.9347   57.7535   32.4040 N   0  0  0  0  0  0  0  0  0  0  0  0
   47.6023   57.6189   32.4394 C   0  0  0  0  0  0  0  0  0  0  0  0
   46.7894   58.7551   32.1282 C   0  0  0  0  0  0  0  0  0  0  0  0
   47.4502   59.9671   31.7867 C   0  0  0  0  0  0  0  0  0  0  0  0
   46.7475   61.0927   31.4593 N   0  0  0  0  0  0  0  0  0  0  0  0
   45.5045   58.3652   32.2382 N   0  0  0  0  0  0  0  0  0  0  0  0
   45.4603   57.0997   32.5924 C   0  0  0  0  0  0  0  0  0  0  0  0
   46.7209   56.5699   32.7198 N   0  0  0  0  0  0  0  0  0  0  0  0
  2  1  1  1  0  0  0
  2  3  1  0  0  0  0
  2  5  1  0  0  0  0
  3  4  1  0  0  0  0
  3 17  1  0  0  0  0
  5  6  1  0  0  0  0
  7  6  1  6  0  0  0
  7  8  1  0  0  0  0
  7  9  1  0  0  0  0
 10  9  1  6  0  0  0
 10 11  1  0  0  0  0
 10 12  1  0  0  0  0
 11 16  1  0  0  0  0
 12 13  1  1  0  0  0
 12 14  1  0  0  0  0
 14 15  1  6  0  0  0
 14 16  1  0  0  0  0
 16 27  1  6  0  0  0
 18 19  2  0  0  0  0
 18 23  1  0  0  0  0
 19 20  1  0  0  0  0
 20 21  2  0  0  0  0
 21 22  1  0  0  0  0
 21 27  1  0  0  0  0
 22 23  2  0  0  0  0
 22 25  1  0  0  0  0
 23 24  1  0  0  0  0
 25 26  2  0  0  0  0
 26 27  1  0  0  0  0
M  END
>  <CHROM.1>
-82.12954647,-74.27418535,-61.14164113,-55.27805909,-85.46926757,65.00048058
-74.14509208,47.90156702,55.93400245,30.50616064,1.31884381,1.43705821,-1.66617979

>  <Name>
ligand

>  <RI>
0

>  <Rbt.Current_Directory>
/home/itssahil/PROJECTS/Mol_Feturizer/New_Systems/rnas/3IQN

>  <Rbt.Executable>
rbdock ($Id: //depot/dev/client3/rdock/2013.1/src/exe/rbdock.cxx#4 $)

>  <Rbt.Library>
libRbt.so (2013.1, Build901 2013/11/27)

>  <Rbt.Parameter_File>
/export/apps/rDock/src/rDock_2013.1_src/data/scripts/dock_solv.prm

>  <Rbt.Receptor>
prm/pocket_docking_2.prm

>  <SCORE>
-9.61603

>  <SCORE.INTER>
-8.12919

>  <SCORE.INTER.CONST>
1

>  <SCORE.INTER.POLAR>
0

>  <SCORE.INTER.ROT>
7

>  <SCORE.INTER.SOLV>
20.6085

>  <SCORE.INTER.VDW>
-20.5556

>  <SCORE.INTER.norm>
-0.301081

>  <SCORE.INTRA>
-2.76595

>  <SCORE.INTRA.DIHEDRAL>
-4.50816

>  <SCORE.INTRA.DIHEDRAL.0>
10.0365

>  <SCORE.INTRA.POLAR>
0

>  <SCORE.INTRA.POLAR.0>
0

>  <SCORE.INTRA.REPUL>
0

>  <SCORE.INTRA.REPUL.0>
0

>  <SCORE.INTRA.SOLV>
0.298157

>  <SCORE.INTRA.SOLV.lig_0>
-48.6728

>  <SCORE.INTRA.VDW>
-0.660949

>  <SCORE.INTRA.VDW.0>
-1.10662

>  <SCORE.INTRA.norm>
-0.102443

>  <SCORE.RESTR>
1.27911

>  <SCORE.RESTR.CAVITY>
1.27911

>  <SCORE.RESTR.norm>
0.0473745

>  <SCORE.SYSTEM>
0

>  <SCORE.SYSTEM.CONST>
0

>  <SCORE.SYSTEM.DIHEDRAL>
0

>  <SCORE.SYSTEM.SOLV>
0

>  <SCORE.SYSTEM.norm>
0

>  <SCORE.heavy>
27

>  <SCORE.norm>
-0.356149

>  <RMSD>
2.198

$$$$
ligand
 OpenBabel11021811483D
libRbt.so/2013.1/901 2013/11/27
 27 29  0  0  0  0  0  0  0  0999 V2000
   45.8255   56.9522   29.0536 N   0  0  0  0  0  0  0  0  0  0  0  0
   47.1789   56.5740   28.6261 C   0  0  2  0  0  0  0  0  0  0  0  0
   47.7972   57.7419   27.9183 C   0  0  0  0  0  0  0  0  0  0  0  0
   48.8330   58.2312   28.3401 O   0  0  0  0  0  0  0  0  0  0  0  0
   47.1204   55.3712   27.6725 C   0  0  0  0  0  0  0  0  0  0  0  0
   46.7247   54.1296   28.4663 C   0  0  0  0  0  0  0  0  0  0  0  0
   48.0504   53.5081   29.5497 S   0  0  2  0  0  0  0  0  0  0  0  0
   48.5798   51.9490   28.7754 C   0  0  0  0  0  0  0  0  0  0  0  0
   47.3579   52.8205   31.0968 C   0  0  0  0  0  0  0  0  0  0  0  0
   48.1218   53.5559   32.1704 C   0  0  1  0  0  0  0  0  0  0  0  0
   47.6864   54.8697   32.0483 O   0  0  0  0  0  0  0  0  0  0  0  0
   47.8784   53.2965   33.6578 C   0  0  1  0  0  0  0  0  0  0  0  0
   48.7098   52.2957   34.1717 O   0  0  0  0  0  0  0  0  0  0  0  0
   48.2052   54.7651   34.2120 C   0  0  1  0  0  0  0  0  0  0  0  0
   49.5033   55.2617   33.8547 O   0  0  0  0  0  0  0  0  0  0  0  0
   47.0805   55.2725   33.3392 C   0  0  1  0  0  0  0  0  0  0  0  0
   47.2691   58.1891   26.9123 O   0  0  0  0  0  0  0  0  0  0  0  0
   48.9577   59.6915   31.8502 N   0  0  0  0  0  0  0  0  0  0  0  0
   49.5606   58.5629   32.2273 C   0  0  0  0  0  0  0  0  0  0  0  0
   48.8698   57.4675   32.5404 N   0  0  0  0  0  0  0  0  0  0  0  0
   47.5322   57.4913   32.6107 C   0  0  0  0  0  0  0  0  0  0  0  0
   46.8492   58.7044   32.2784 C   0  0  0  0  0  0  0  0  0  0  0  0
   47.6373   59.8190   31.8797 C   0  0  0  0  0  0  0  0  0  0  0  0
   47.0620   61.0080   31.5292 N   0  0  0  0  0  0  0  0  0  0  0  0
   45.5310   58.4717   32.4311 N   0  0  0  0  0  0  0  0  0  0  0  0
   45.3492   57.2322   32.8303 C   0  0  0  0  0  0  0  0  0  0  0  0
   46.5424   56.5625   32.9476 N   0  0  0  0  0  0  0  0  0  0  0  0
  2  1  1  6  0  0  0
  2  3  1  0  0  0  0
  2  5  1  0  0  0  0
  3  4  1  0  0  0  0
  3 17  1  0  0  0  0
  5  6  1  0  0  0  0
  7  6  1  6  0  0  0
  7  8  1  0  0  0  0
  7  9  1  0  0  0  0
 10  9  1  6  0  0  0
 10 11  1  0  0  0  0
 10 12  1  0  0  0  0
 11 16  1  0  0  0  0
 12 13  1  1  0  0  0
 12 14  1  0  0  0  0
 14 15  1  6  0  0  0
 14 16  1  0  0  0  0
 16 27  1  6  0  0  0
 18 19  2  0  0  0  0
 18 23  1  0  0  0  0
 19 20  1  0  0  0  0
 20 21  2  0  0  0  0
 21 22  1  0  0  0  0
 21 27  1  0  0  0  0
 22 23  2  0  0  0  0
 22 25  1  0  0  0  0
 23 24  1  0  0  0  0
 25 26  2  0  0  0  0
 26 27  1  0  0  0  0
M  END
>  <CHROM.1>
120.72314713,-70.69325362,-72.64528163,-109.77341818,-126.75296887,67.26036668
-65.20293350,47.66906751,56.09486091,31.10649747,2.65151107,-1.44745712,0.85967304

>  <Name>
ligand

>  <RI>
0

>  <Rbt.Current_Directory>
/home/itssahil/PROJECTS/Mol_Feturizer/New_Systems/rnas/3IQN

>  <Rbt.Executable>
rbdock ($Id: //depot/dev/client3/rdock/2013.1/src/exe/rbdock.cxx#4 $)

>  <Rbt.Library>
libRbt.so (2013.1, Build901 2013/11/27)

>  <Rbt.Parameter_File>
/export/apps/rDock/src/rDock_2013.1_src/data/scripts/dock_solv.prm

>  <Rbt.Receptor>
prm/pocket_docking_3.prm

>  <SCORE>
-12.9799

>  <SCORE.INTER>
-11.909

>  <SCORE.INTER.CONST>
1

>  <SCORE.INTER.POLAR>
0

>  <SCORE.INTER.ROT>
7

>  <SCORE.INTER.SOLV>
17.4393

>  <SCORE.INTER.VDW>
-22.0191

>  <SCORE.INTER.norm>
-0.441075

>  <SCORE.INTRA>
-1.07084

>  <SCORE.INTRA.DIHEDRAL>
2.40342

>  <SCORE.INTRA.DIHEDRAL.0>
10.0365

>  <SCORE.INTRA.POLAR>
0

>  <SCORE.INTRA.POLAR.0>
0

>  <SCORE.INTRA.REPUL>
0

>  <SCORE.INTRA.REPUL.0>
0

>  <SCORE.INTRA.SOLV>
0.750174

>  <SCORE.INTRA.SOLV.lig_0>
-48.6728

>  <SCORE.INTRA.VDW>
-2.64764

>  <SCORE.INTRA.VDW.0>
-1.10662

>  <SCORE.INTRA.norm>
-0.0396608

>  <SCORE.RESTR>
0

>  <SCORE.RESTR.CAVITY>
0

>  <SCORE.RESTR.norm>
0

>  <SCORE.SYSTEM>
0

>  <SCORE.SYSTEM.CONST>
0

>  <SCORE.SYSTEM.DIHEDRAL>
0

>  <SCORE.SYSTEM.SOLV>
0

>  <SCORE.SYSTEM.norm>
0

>  <SCORE.heavy>
27

>  <SCORE.norm>
-0.480736

>  <RMSD>
2.202

$$$$
ligand
 OpenBabel11021811483D
libRbt.so/2013.1/901 2013/11/27
 27 29  0  0  0  0  0  0  0  0999 V2000
   47.7998   55.1472   25.1900 N   0  0  0  0  0  0  0  0  0  0  0  0
   46.9853   55.7214   26.2690 C   0  0  2  0  0  0  0  0  0  0  0  0
   47.6411   56.9852   26.7380 C   0  0  0  0  0  0  0  0  0  0  0  0
   47.0227   58.0375   26.7142 O   0  0  0  0  0  0  0  0  0  0  0  0
   46.8809   54.7345   27.4414 C   0  0  0  0  0  0  0  0  0  0  0  0
   48.2517   54.1103   27.6859 C   0  0  0  0  0  0  0  0  0  0  0  0
   48.9502   54.5105   29.3197 S   0  0  2  0  0  0  0  0  0  0  0  0
   50.6904   53.9904   29.2123 C   0  0  0  0  0  0  0  0  0  0  0  0
   48.3864   53.3107   30.5801 C   0  0  0  0  0  0  0  0  0  0  0  0
   48.8462   53.9334   31.8754 C   0  0  1  0  0  0  0  0  0  0  0  0
   48.2702   55.1978   31.8599 O   0  0  0  0  0  0  0  0  0  0  0  0
   48.3812   53.4088   33.2347 C   0  0  1  0  0  0  0  0  0  0  0  0
   49.2335   52.4275   33.7519 O   0  0  0  0  0  0  0  0  0  0  0  0
   48.4095   54.7916   34.0457 C   0  0  1  0  0  0  0  0  0  0  0  0
   49.6736   55.4707   34.0219 O   0  0  0  0  0  0  0  0  0  0  0  0
   47.3991   55.3181   33.0527 C   0  0  1  0  0  0  0  0  0  0  0  0
   48.7875   56.9533   27.1570 O   0  0  0  0  0  0  0  0  0  0  0  0
   48.9593   59.9028   31.7053 N   0  0  0  0  0  0  0  0  0  0  0  0
   49.6402   58.7932   31.9964 C   0  0  0  0  0  0  0  0  0  0  0  0
   49.0258   57.6466   32.2849 N   0  0  0  0  0  0  0  0  0  0  0  0
   47.6939   57.5914   32.4179 C   0  0  0  0  0  0  0  0  0  0  0  0
   46.9308   58.7786   32.1794 C   0  0  0  0  0  0  0  0  0  0  0  0
   47.6369   59.9538   31.8020 C   0  0  0  0  0  0  0  0  0  0  0  0
   46.9817   61.1239   31.5392 N   0  0  0  0  0  0  0  0  0  0  0  0
   45.6361   58.4646   32.3806 N   0  0  0  0  0  0  0  0  0  0  0  0
   45.5414   57.1990   32.7243 C   0  0  0  0  0  0  0  0  0  0  0  0
   46.7735   56.5930   32.7523 N   0  0  0  0  0  0  0  0  0  0  0  0
  2  1  1  6  0  0  0
  2  3  1  0  0  0  0
  2  5  1  0  0  0  0
  3  4  1  0  0  0  0
  3 17  1  0  0  0  0
  5  6  1  0  0  0  0
  7  6  1  6  0  0  0
  7  8  1  0  0  0  0
  7  9  1  0  0  0  0
 10  9  1  6  0  0  0
 10 11  1  0  0  0  0
 10 12  1  0  0  0  0
 11 16  1  0  0  0  0
 12 13  1  1  0  0  0
 12 14  1  0  0  0  0
 14 15  1  6  0  0  0
 14 16  1  0  0  0  0
 16 27  1  1  0  0  0
 18 19  2  0  0  0  0
 18 23  1  0  0  0  0
 19 20  1  0  0  0  0
 20 21  2  0  0  0  0
 21 22  1  0  0  0  0
 21 27  1  0  0  0  0
 22 23  2  0  0  0  0
 22 25  1  0  0  0  0
 23 24  1  0  0  0  0
 25 26  2  0  0  0  0
 26 27  1  0  0  0  0
M  END
>  <CHROM.1>
122.81837267,42.61306483,116.58809961,-167.46180366,-170.16008095,55.82586088
-50.01049603,48.09650625,56.15550417,30.63768445,-1.62057110,-1.29452827
1.35771456

>  <Name>
ligand

>  <RI>
0

>  <Rbt.Current_Directory>
/home/itssahil/PROJECTS/Mol_Feturizer/New_Systems/rnas/3IQN

>  <Rbt.Executable>
rbdock ($Id: //depot/dev/client3/rdock/2013.1/src/exe/rbdock.cxx#4 $)

>  <Rbt.Library>
libRbt.so (2013.1, Build901 2013/11/27)

>  <Rbt.Parameter_File>
/export/apps/rDock/src/rDock_2013.1_src/data/scripts/dock_solv.prm

>  <Rbt.Receptor>
prm/pocket_docking_2.prm

>  <SCORE>
-8.33593

>  <SCORE.INTER>
-10.1191

>  <SCORE.INTER.CONST>
1

>  <SCORE.INTER.POLAR>
0

>  <SCORE.INTER.ROT>
7

>  <SCORE.INTER.SOLV>
20.2868

>  <SCORE.INTER.VDW>
-21.775

>  <SCORE.INTER.norm>
-0.374782

>  <SCORE.INTRA>
1.6301

>  <SCORE.INTRA.DIHEDRAL>
1.39996

>  <SCORE.INTRA.DIHEDRAL.0>
10.0365

>  <SCORE.INTRA.POLAR>
0

>  <SCORE.INTRA.POLAR.0>
0

>  <SCORE.INTRA.REPUL>
0

>  <SCORE.INTRA.REPUL.0>
0

>  <SCORE.INTRA.SOLV>
0.218728

>  <SCORE.INTRA.SOLV.lig_0>
-48.6728

>  <SCORE.INTRA.VDW>
0.820753

>  <SCORE.INTRA.VDW.0>
-1.10662

>  <SCORE.INTRA.norm>
0.0603739

>  <SCORE.RESTR>
0.153086

>  <SCORE.RESTR.CAVITY>
0.153086

>  <SCORE.RESTR.norm>
0.00566985

>  <SCORE.SYSTEM>
0

>  <SCORE.SYSTEM.CONST>
0

>  <SCORE.SYSTEM.DIHEDRAL>
0

>  <SCORE.SYSTEM.SOLV>
0

>  <SCORE.SYSTEM.norm>
0

>  <SCORE.heavy>
27

>  <SCORE.norm>
-0.308738

>  <RMSD>
2.238

$$$$
ligand
 OpenBabel11021811483D
libRbt.so/2013.1/901 2013/11/27
 27 29  0  0  0  0  0  0  0  0999 V2000
   48.9008   56.5113   27.9366 N   0  0  0  0  0  0  0  0  0  0  0  0
   49.1647   55.7637   29.1730 C   0  0  2  0  0  0  0  0  0  0  0  0
   50.4947   55.0843   29.0424 C   0  0  0  0  0  0  0  0  0  0  0  0
   50.5472   53.8808   28.8451 O   0  0  0  0  0  0  0  0  0  0  0  0
   48.0722   54.7085   29.4017 C   0  0  0  0  0  0  0  0  0  0  0  0
   48.1058   54.2708   30.8631 C   0  0  0  0  0  0  0  0  0  0  0  0
   46.4847   53.7351   31.4976 S   0  0  2  0  0  0  0  0  0  0  0  0
   45.3114   54.9657   30.8501 C   0  0  0  0  0  0  0  0  0  0  0  0
   46.3239   54.1187   33.2788 C   0  0  0  0  0  0  0  0  0  0  0  0
   47.7557   54.2941   33.7218 C   0  0  1  0  0  0  0  0  0  0  0  0
   48.1021   55.5502   33.2393 O   0  0  0  0  0  0  0  0  0  0  0  0
   48.1353   54.4248   35.1976 C   0  0  1  0  0  0  0  0  0  0  0  0
   48.4178   53.1899   35.7910 O   0  0  0  0  0  0  0  0  0  0  0  0
   49.4145   55.3768   35.0308 C   0  0  1  0  0  0  0  0  0  0  0  0
   50.4284   54.8646   34.1538 O   0  0  0  0  0  0  0  0  0  0  0  0
   48.4932   56.3920   34.3945 C   0  0  1  0  0  0  0  0  0  0  0  0
   51.5207   55.7418   29.1187 O   0  0  0  0  0  0  0  0  0  0  0  0
   45.6174   59.2491   31.4221 N   0  0  0  0  0  0  0  0  0  0  0  0
   45.3977   58.0536   31.9715 C   0  0  0  0  0  0  0  0  0  0  0  0
   46.2833   57.4803   32.7852 N   0  0  0  0  0  0  0  0  0  0  0  0
   47.4902   58.0260   32.9868 C   0  0  0  0  0  0  0  0  0  0  0  0
   47.7905   59.2774   32.3604 C   0  0  0  0  0  0  0  0  0  0  0  0
   46.7777   59.8774   31.5627 C   0  0  0  0  0  0  0  0  0  0  0  0
   46.9779   61.0798   30.9448 N   0  0  0  0  0  0  0  0  0  0  0  0
   49.0494   59.6044   32.7119 N   0  0  0  0  0  0  0  0  0  0  0  0
   49.5441   58.6662   33.4890 C   0  0  0  0  0  0  0  0  0  0  0  0
   48.6295   57.6668   33.7139 N   0  0  0  0  0  0  0  0  0  0  0  0
  2  1  1  6  0  0  0
  2  3  1  0  0  0  0
  2  5  1  0  0  0  0
  3  4  1  0  0  0  0
  3 17  1  0  0  0  0
  5  6  1  0  0  0  0
  7  6  1  6  0  0  0
  7  8  1  0  0  0  0
  7  9  1  0  0  0  0
 10  9  1  1  0  0  0
 10 11  1  0  0  0  0
 10 12  1  0  0  0  0
 11 16  1  0  0  0  0
 12 13  1  6  0  0  0
 12 14  1  0  0  0  0
 14 15  1  6  0  0  0
 14 16  1  0  0  0  0
 16 27  1  6  0  0  0
 18 19  2  0  0  0  0
 18 23  1  0  0  0  0
 19 20  1  0  0  0  0
 20 21  2  0  0  0  0
 21 22  1  0  0  0  0
 21 27  1  0  0  0  0
 22 23  2  0  0  0  0
 22 25  1  0  0  0  0
 23 24  1  0  0  0  0
 25 26  2  0  0  0  0
 26 27  1  0  0  0  0
M  END
>  <CHROM.1>
-105.19348458,-161.97712869,150.85573332,-43.02809259,-19.66469924,76.24350765
53.78015032,48.07979797,56.15437005,32.01670693,-2.43059027,-1.20715347,2.30780372

>  <Name>
ligand

>  <RI>
0

>  <Rbt.Current_Directory>
/home/itssahil/PROJECTS/Mol_Feturizer/New_Systems/rnas/3IQN

>  <Rbt.Executable>
rbdock ($Id: //depot/dev/client3/rdock/2013.1/src/exe/rbdock.cxx#4 $)

>  <Rbt.Library>
libRbt.so (2013.1, Build901 2013/11/27)

>  <Rbt.Parameter_File>
/export/apps/rDock/src/rDock_2013.1_src/data/scripts/dock_solv.prm

>  <Rbt.Receptor>
prm/pocket_docking_3.prm

>  <SCORE>
-5.98169

>  <SCORE.INTER>
-9.25887

>  <SCORE.INTER.CONST>
1

>  <SCORE.INTER.POLAR>
0

>  <SCORE.INTER.ROT>
7

>  <SCORE.INTER.SOLV>
19.8195

>  <SCORE.INTER.VDW>
-21.0458

>  <SCORE.INTER.norm>
-0.342921

>  <SCORE.INTRA>
3.01346

>  <SCORE.INTRA.DIHEDRAL>
3.31466

>  <SCORE.INTRA.DIHEDRAL.0>
10.0365

>  <SCORE.INTRA.POLAR>
0

>  <SCORE.INTRA.POLAR.0>
0

>  <SCORE.INTRA.REPUL>
0

>  <SCORE.INTRA.REPUL.0>
0

>  <SCORE.INTRA.SOLV>
-0.850455

>  <SCORE.INTRA.SOLV.lig_0>
-48.6728

>  <SCORE.INTRA.VDW>
1.78136

>  <SCORE.INTRA.VDW.0>
-1.10662

>  <SCORE.INTRA.norm>
0.11161

>  <SCORE.RESTR>
0.263722

>  <SCORE.RESTR.CAVITY>
0.263722

>  <SCORE.RESTR.norm>
0.00976747

>  <SCORE.SYSTEM>
0

>  <SCORE.SYSTEM.CONST>
0

>  <SCORE.SYSTEM.DIHEDRAL>
0

>  <SCORE.SYSTEM.SOLV>
0

>  <SCORE.SYSTEM.norm>
0

>  <SCORE.heavy>
27

>  <SCORE.norm>
-0.221544

>  <RMSD>
2.294

$$$$
ligand
 OpenBabel11021811483D
libRbt.so/2013.1/901 2013/11/27
 27 29  0  0  0  0  0  0  0  0999 V2000
   50.0311   55.1389   27.6888 N   0  0  0  0  0  0  0  0  0  0  0  0
   49.0682   56.1908   27.3374 C   0  0  2  0  0  0  0  0  0  0  0  0
   49.0743   57.2229   28.4247 C   0  0  0  0  0  0  0  0  0  0  0  0
   48.7234   58.3665   28.1811 O   0  0  0  0  0  0  0  0  0  0  0  0
   47.6572   55.5990   27.2027 C   0  0  0  0  0  0  0  0  0  0  0  0
   47.2317   55.0235   28.5504 C   0  0  0  0  0  0  0  0  0  0  0  0
   48.1146   53.4945   28.9977 S   0  0  2  0  0  0  0  0  0  0  0  0
   47.3922   52.2181   27.9209 C   0  0  0  0  0  0  0  0  0  0  0  0
   47.5300   52.8528   30.6078 C   0  0  0  0  0  0  0  0  0  0  0  0
   48.3783   53.6043   31.6042 C   0  0  1  0  0  0  0  0  0  0  0  0
   47.8623   54.8941   31.5750 O   0  0  0  0  0  0  0  0  0  0  0  0
   48.3309   53.2963   33.1015 C   0  0  1  0  0  0  0  0  0  0  0  0
   49.2702   52.3320   33.4816 O   0  0  0  0  0  0  0  0  0  0  0  0
   48.6441   54.7674   33.6570 C   0  0  1  0  0  0  0  0  0  0  0  0
   49.8613   55.3446   33.1622 O   0  0  0  0  0  0  0  0  0  0  0  0
   47.3967   55.2314   32.9407 C   0  0  1  0  0  0  0  0  0  0  0  0
   49.4160   56.9103   29.5544 O   0  0  0  0  0  0  0  0  0  0  0  0
   48.8763   59.8810   31.7321 N   0  0  0  0  0  0  0  0  0  0  0  0
   49.5768   58.7811   32.0128 C   0  0  0  0  0  0  0  0  0  0  0  0
   48.9838   57.6142   32.2618 N   0  0  0  0  0  0  0  0  0  0  0  0
   47.6510   57.5250   32.3642 C   0  0  0  0  0  0  0  0  0  0  0  0
   46.8653   58.6994   32.1360 C   0  0  0  0  0  0  0  0  0  0  0  0
   47.5513   59.8991   31.8009 C   0  0  0  0  0  0  0  0  0  0  0  0
   46.8742   61.0595   31.5503 N   0  0  0  0  0  0  0  0  0  0  0  0
   45.5744   58.3508   32.3016 N   0  0  0  0  0  0  0  0  0  0  0  0
   45.5024   57.0758   32.6143 C   0  0  0  0  0  0  0  0  0  0  0  0
   46.7476   56.4980   32.6557 N   0  0  0  0  0  0  0  0  0  0  0  0
  2  1  1  1  0  0  0
  2  3  1  0  0  0  0
  2  5  1  0  0  0  0
  3  4  1  0  0  0  0
  3 17  1  0  0  0  0
  5  6  1  0  0  0  0
  7  6  1  6  0  0  0
  7  8  1  0  0  0  0
  7  9  1  0  0  0  0
 10  9  1  6  0  0  0
 10 11  1  0  0  0  0
 10 12  1  0  0  0  0
 11 16  1  0  0  0  0
 12 13  1  6  0  0  0
 12 14  1  0  0  0  0
 14 15  1  6  0  0  0
 14 16  1  0  0  0  0
 16 27  1  6  0  0  0
 18 19  2  0  0  0  0
 18 23  1  0  0  0  0
 19 20  1  0  0  0  0
 20 21  2  0  0  0  0
 21 22  1  0  0  0  0
 21 27  1  0  0  0  0
 22 23  2  0  0  0  0
 22 25  1  0  0  0  0
 23 24  1  0  0  0  0
 25 26  2  0  0  0  0
 26 27  1  0  0  0  0
M  END
>  <CHROM.1>
155.68038904,62.39009488,-71.70534202,-73.81696897,-85.95980124,72.78756016
-71.37149950,48.11272816,56.02359714,30.82069816,-0.54389100,1.44171335,-0.63637756

>  <Name>
ligand

>  <RI>
0

>  <Rbt.Current_Directory>
/home/itssahil/PROJECTS/Mol_Feturizer/New_Systems/rnas/3IQN

>  <Rbt.Executable>
rbdock ($Id: //depot/dev/client3/rdock/2013.1/src/exe/rbdock.cxx#4 $)

>  <Rbt.Library>
libRbt.so (2013.1, Build901 2013/11/27)

>  <Rbt.Parameter_File>
/export/apps/rDock/src/rDock_2013.1_src/data/scripts/dock_solv.prm

>  <Rbt.Receptor>
prm/pocket_docking_2.prm

>  <SCORE>
-13.255

>  <SCORE.INTER>
-10.0826

>  <SCORE.INTER.CONST>
1

>  <SCORE.INTER.POLAR>
0

>  <SCORE.INTER.ROT>
7

>  <SCORE.INTER.SOLV>
17.7962

>  <SCORE.INTER.VDW>
-20.9205

>  <SCORE.INTER.norm>
-0.373429

>  <SCORE.INTRA>
-3.22371

>  <SCORE.INTRA.DIHEDRAL>
-4.55958

>  <SCORE.INTRA.DIHEDRAL.0>
10.0365

>  <SCORE.INTRA.POLAR>
0

>  <SCORE.INTRA.POLAR.0>
0

>  <SCORE.INTRA.REPUL>
0

>  <SCORE.INTRA.REPUL.0>
0

>  <SCORE.INTRA.SOLV>
2.01947

>  <SCORE.INTRA.SOLV.lig_0>
-48.6728

>  <SCORE.INTRA.VDW>
-1.95366

>  <SCORE.INTRA.VDW.0>
-1.10662

>  <SCORE.INTRA.norm>
-0.119397

>  <SCORE.RESTR>
0.0512736

>  <SCORE.RESTR.CAVITY>
0.0512736

>  <SCORE.RESTR.norm>
0.00189902

>  <SCORE.SYSTEM>
0

>  <SCORE.SYSTEM.CONST>
0

>  <SCORE.SYSTEM.DIHEDRAL>
0

>  <SCORE.SYSTEM.SOLV>
0

>  <SCORE.SYSTEM.norm>
0

>  <SCORE.heavy>
27

>  <SCORE.norm>
-0.490926

>  <RMSD>
2.306

$$$$
ligand
 OpenBabel11021811483D
libRbt.so/2013.1/901 2013/11/27
 27 29  0  0  0  0  0  0  0  0999 V2000
   51.1475   53.2419   29.0883 N   0  0  0  0  0  0  0  0  0  0  0  0
   49.7169   52.9882   28.8735 C   0  0  2  0  0  0  0  0  0  0  0  0
   49.5082   52.6367   27.4311 C   0  0  0  0  0  0  0  0  0  0  0  0
   49.6023   53.5007   26.5738 O   0  0  0  0  0  0  0  0  0  0  0  0
   48.8955   54.2395   29.2184 C   0  0  0  0  0  0  0  0  0  0  0  0
   48.5992   54.2392   30.7152 C   0  0  0  0  0  0  0  0  0  0  0  0
   47.5313   52.8614   31.2432 S   0  0  2  0  0  0  0  0  0  0  0  0
   46.0586   52.9926   30.1829 C   0  0  0  0  0  0  0  0  0  0  0  0
   46.7409   53.2300   32.8511 C   0  0  0  0  0  0  0  0  0  0  0  0
   47.9183   53.4490   33.7692 C   0  0  1  0  0  0  0  0  0  0  0  0
   48.3720   54.7184   33.4318 O   0  0  0  0  0  0  0  0  0  0  0  0
   47.7492   53.5838   35.2832 C   0  0  1  0  0  0  0  0  0  0  0  0
   47.8440   52.3555   35.9457 O   0  0  0  0  0  0  0  0  0  0  0  0
   48.9738   54.5776   35.5719 C   0  0  1  0  0  0  0  0  0  0  0  0
   50.2476   54.1032   35.1116 O   0  0  0  0  0  0  0  0  0  0  0  0
   48.3036   55.5659   34.6454 C   0  0  1  0  0  0  0  0  0  0  0  0
   49.2601   51.4828   27.1187 O   0  0  0  0  0  0  0  0  0  0  0  0
   45.8928   59.0081   31.8872 N   0  0  0  0  0  0  0  0  0  0  0  0
   45.4960   57.8252   32.3590 C   0  0  0  0  0  0  0  0  0  0  0  0
   46.2845   57.0742   33.1270 N   0  0  0  0  0  0  0  0  0  0  0  0
   47.5586   57.4198   33.3549 C   0  0  0  0  0  0  0  0  0  0  0  0
   48.0435   58.6510   32.8093 C   0  0  0  0  0  0  0  0  0  0  0  0
   47.1333   59.4462   32.0601 C   0  0  0  0  0  0  0  0  0  0  0  0
   47.5118   60.6434   31.5206 N   0  0  0  0  0  0  0  0  0  0  0  0
   49.3362   58.7633   33.1721 N   0  0  0  0  0  0  0  0  0  0  0  0
   49.6838   57.7130   33.8826 C   0  0  0  0  0  0  0  0  0  0  0  0
   48.6300   56.8482   34.0485 N   0  0  0  0  0  0  0  0  0  0  0  0
  2  1  1  6  0  0  0
  2  3  1  0  0  0  0
  2  5  1  0  0  0  0
  3  4  1  0  0  0  0
  3 17  1  0  0  0  0
  5  6  1  0  0  0  0
  7  6  1  6  0  0  0
  7  8  1  0  0  0  0
  7  9  1  0  0  0  0
 10  9  1  6  0  0  0
 10 11  1  0  0  0  0
 10 12  1  0  0  0  0
 11 16  1  0  0  0  0
 12 13  1  1  0  0  0
 12 14  1  0  0  0  0
 14 15  1  6  0  0  0
 14 16  1  0  0  0  0
 16 27  1  6  0  0  0
 18 19  2  0  0  0  0
 18 23  1  0  0  0  0
 19 20  1  0  0  0  0
 20 21  2  0  0  0  0
 21 22  1  0  0  0  0
 21 27  1  0  0  0  0
 22 23  2  0  0  0  0
 22 25  1  0  0  0  0
 23 24  1  0  0  0  0
 25 26  2  0  0  0  0
 26 27  1  0  0  0  0
M  END
>  <CHROM.1>
-72.09269612,-85.68253215,-64.99976553,-54.58639953,-58.79186237,76.24603188
77.32700925,48.21333272,55.08549231,31.97649405,0.34078299,1.37120999,-1.10089807

>  <Name>
ligand

>  <RI>
0

>  <Rbt.Current_Directory>
/home/itssahil/PROJECTS/Mol_Feturizer/New_Systems/rnas/3IQN

>  <Rbt.Executable>
rbdock ($Id: //depot/dev/client3/rdock/2013.1/src/exe/rbdock.cxx#4 $)

>  <Rbt.Library>
libRbt.so (2013.1, Build901 2013/11/27)

>  <Rbt.Parameter_File>
/export/apps/rDock/src/rDock_2013.1_src/data/scripts/dock_solv.prm

>  <Rbt.Receptor>
prm/pocket_docking_3.prm

>  <SCORE>
-15.9738

>  <SCORE.INTER>
-13.1725

>  <SCORE.INTER.CONST>
1

>  <SCORE.INTER.POLAR>
0

>  <SCORE.INTER.ROT>
7

>  <SCORE.INTER.SOLV>
20.6686

>  <SCORE.INTER.VDW>
-23.9379

>  <SCORE.INTER.norm>
-0.487872

>  <SCORE.INTRA>
-2.8035

>  <SCORE.INTRA.DIHEDRAL>
-3.22108

>  <SCORE.INTRA.DIHEDRAL.0>
10.0365

>  <SCORE.INTRA.POLAR>
0

>  <SCORE.INTRA.POLAR.0>
0

>  <SCORE.INTRA.REPUL>
0

>  <SCORE.INTRA.REPUL.0>
0

>  <SCORE.INTRA.SOLV>
-0.217995

>  <SCORE.INTRA.SOLV.lig_0>
-48.6728

>  <SCORE.INTRA.VDW>
-1.08397

>  <SCORE.INTRA.VDW.0>
-1.10662

>  <SCORE.INTRA.norm>
-0.103833

>  <SCORE.RESTR>
0.002209

>  <SCORE.RESTR.CAVITY>
0.002209

>  <SCORE.RESTR.norm>
8.18149e-05

>  <SCORE.SYSTEM>
0

>  <SCORE.SYSTEM.CONST>
0

>  <SCORE.SYSTEM.DIHEDRAL>
0

>  <SCORE.SYSTEM.SOLV>
0

>  <SCORE.SYSTEM.norm>
0

>  <SCORE.heavy>
27

>  <SCORE.norm>
-0.591623

>  <RMSD>
2.431

$$$$
ligand
 OpenBabel11021811483D
libRbt.so/2013.1/901 2013/11/27
 27 29  0  0  0  0  0  0  0  0999 V2000
   51.2353   54.8776   28.5632 N   0  0  0  0  0  0  0  0  0  0  0  0
   50.2300   54.6842   29.6164 C   0  0  2  0  0  0  0  0  0  0  0  0
   50.1904   53.2288   29.9737 C   0  0  0  0  0  0  0  0  0  0  0  0
   50.2585   52.3838   29.0954 O   0  0  0  0  0  0  0  0  0  0  0  0
   48.8454   55.1262   29.1197 C   0  0  0  0  0  0  0  0  0  0  0  0
   47.8825   55.1579   30.3030 C   0  0  0  0  0  0  0  0  0  0  0  0
   47.3370   53.5049   30.8391 S   0  0  2  0  0  0  0  0  0  0  0  0
   45.8350   53.1813   29.8646 C   0  0  0  0  0  0  0  0  0  0  0  0
   46.5721   53.5786   32.4990 C   0  0  0  0  0  0  0  0  0  0  0  0
   47.7546   53.7921   33.4117 C   0  0  1  0  0  0  0  0  0  0  0  0
   48.1777   55.0814   33.1127 O   0  0  0  0  0  0  0  0  0  0  0  0
   47.5993   53.8725   34.9311 C   0  0  1  0  0  0  0  0  0  0  0  0
   47.7273   52.6250   35.5509 O   0  0  0  0  0  0  0  0  0  0  0  0
   48.8058   54.8821   35.2405 C   0  0  1  0  0  0  0  0  0  0  0  0
   50.0842   54.4507   34.7514 O   0  0  0  0  0  0  0  0  0  0  0  0
   48.1048   55.8862   34.3547 C   0  0  1  0  0  0  0  0  0  0  0  0
   50.1058   52.8949   31.1451 O   0  0  0  0  0  0  0  0  0  0  0  0
   45.6850   59.2452   31.5034 N   0  0  0  0  0  0  0  0  0  0  0  0
   45.3245   58.0346   31.9323 C   0  0  0  0  0  0  0  0  0  0  0  0
   46.1038   57.3127   32.7365 N   0  0  0  0  0  0  0  0  0  0  0  0
   47.3412   57.7210   33.0479 C   0  0  0  0  0  0  0  0  0  0  0  0
   47.7916   58.9857   32.5515 C   0  0  0  0  0  0  0  0  0  0  0  0
   46.8873   59.7450   31.7590 C   0  0  0  0  0  0  0  0  0  0  0  0
   47.2330   60.9700   31.2616 N   0  0  0  0  0  0  0  0  0  0  0  0
   49.0518   59.1596   32.9952 N   0  0  0  0  0  0  0  0  0  0  0  0
   49.4114   58.1166   33.7104 C   0  0  0  0  0  0  0  0  0  0  0  0
   48.3975   57.1945   33.7981 N   0  0  0  0  0  0  0  0  0  0  0  0
  2  1  1  6  0  0  0
  2  3  1  0  0  0  0
  2  5  1  0  0  0  0
  3  4  1  0  0  0  0
  3 17  1  0  0  0  0
  5  6  1  0  0  0  0
  7  6  1  6  0  0  0
  7  8  1  0  0  0  0
  7  9  1  0  0  0  0
 10  9  1  6  0  0  0
 10 11  1  0  0  0  0
 10 12  1  0  0  0  0
 11 16  1  0  0  0  0
 12 13  1  1  0  0  0
 12 14  1  0  0  0  0
 14 15  1  6  0  0  0
 14 16  1  0  0  0  0
 16 27  1  6  0  0  0
 18 19  2  0  0  0  0
 18 23  1  0  0  0  0
 19 20  1  0  0  0  0
 20 21  2  0  0  0  0
 21 22  1  0  0  0  0
 21 27  1  0  0  0  0
 22 23  2  0  0  0  0
 22 25  1  0  0  0  0
 23 24  1  0  0  0  0
 25 26  2  0  0  0  0
 26 27  1  0  0  0  0
M  END
>  <CHROM.1>
-40.91734662,-169.64446621,-75.62641121,-90.11926709,-73.02137211,68.95125418
72.69298324,48.13765719,55.55369702,32.06665770,-0.29598822,1.25594698,-0.95919122

>  <Name>
ligand

>  <RI>
0

>  <Rbt.Current_Directory>
/home/itssahil/PROJECTS/Mol_Feturizer/New_Systems/rnas/3IQN

>  <Rbt.Executable>
rbdock ($Id: //depot/dev/client3/rdock/2013.1/src/exe/rbdock.cxx#4 $)

>  <Rbt.Library>
libRbt.so (2013.1, Build901 2013/11/27)

>  <Rbt.Parameter_File>
/export/apps/rDock/src/rDock_2013.1_src/data/scripts/dock_solv.prm

>  <Rbt.Receptor>
prm/pocket_docking_5.prm

>  <SCORE>
-17.7161

>  <SCORE.INTER>
-13.1208

>  <SCORE.INTER.CONST>
1

>  <SCORE.INTER.POLAR>
0

>  <SCORE.INTER.ROT>
7

>  <SCORE.INTER.SOLV>
20.0603

>  <SCORE.INTER.VDW>
-23.7006

>  <SCORE.INTER.norm>
-0.485957

>  <SCORE.INTRA>
-4.62965

>  <SCORE.INTRA.DIHEDRAL>
-3.87079

>  <SCORE.INTRA.DIHEDRAL.0>
10.0365

>  <SCORE.INTRA.POLAR>
0

>  <SCORE.INTRA.POLAR.0>
0

>  <SCORE.INTRA.REPUL>
0

>  <SCORE.INTRA.REPUL.0>
0

>  <SCORE.INTRA.SOLV>
-0.81032

>  <SCORE.INTRA.SOLV.lig_0>
-48.6728

>  <SCORE.INTRA.VDW>
-2.28909

>  <SCORE.INTRA.VDW.0>
-1.10662

>  <SCORE.INTRA.norm>
-0.171468

>  <SCORE.RESTR>
0.0343846

>  <SCORE.RESTR.CAVITY>
0.0343846

>  <SCORE.RESTR.norm>
0.0012735

>  <SCORE.SYSTEM>
0

>  <SCORE.SYSTEM.CONST>
0

>  <SCORE.SYSTEM.DIHEDRAL>
0

>  <SCORE.SYSTEM.SOLV>
0

>  <SCORE.SYSTEM.norm>
0

>  <SCORE.heavy>
27

>  <SCORE.norm>
-0.656152

>  <RMSD>
2.541

$$$$
ligand
 OpenBabel11021811483D
libRbt.so/2013.1/901 2013/11/27
 27 29  0  0  0  0  0  0  0  0999 V2000
   47.2485   58.2015   28.4095 N   0  0  0  0  0  0  0  0  0  0  0  0
   46.3770   57.4463   27.4998 C   0  0  2  0  0  0  0  0  0  0  0  0
   45.0549   57.2357   28.1744 C   0  0  0  0  0  0  0  0  0  0  0  0
   44.0453   57.0896   27.5039 O   0  0  0  0  0  0  0  0  0  0  0  0
   47.0043   56.0839   27.1687 C   0  0  0  0  0  0  0  0  0  0  0  0
   48.4157   56.3065   26.6332 C   0  0  0  0  0  0  0  0  0  0  0  0
   49.2031   54.7871   26.0096 S   0  0  2  0  0  0  0  0  0  0  0  0
   48.4984   54.5562   24.3481 C   0  0  0  0  0  0  0  0  0  0  0  0
   48.4902   53.3072   26.8142 C   0  0  0  0  0  0  0  0  0  0  0  0
   49.3774   53.1116   28.0190 C   0  0  1  0  0  0  0  0  0  0  0  0
   49.3916   54.3603   28.6283 O   0  0  0  0  0  0  0  0  0  0  0  0
   48.9687   52.2128   29.1869 C   0  0  1  0  0  0  0  0  0  0  0  0
   49.4033   50.8929   29.0267 O   0  0  0  0  0  0  0  0  0  0  0  0
   49.7094   53.0053   30.3676 C   0  0  1  0  0  0  0  0  0  0  0  0
   51.1183   53.1916   30.1680 O   0  0  0  0  0  0  0  0  0  0  0  0
   48.8635   54.2039   30.0040 C   0  0  1  0  0  0  0  0  0  0  0  0
   44.9965   57.1958   29.3934 O   0  0  0  0  0  0  0  0  0  0  0  0
   45.5653   57.1554   32.3872 N   0  0  0  0  0  0  0  0  0  0  0  0
   45.5102   55.8642   32.0566 C   0  0  0  0  0  0  0  0  0  0  0  0
   46.5303   55.2464   31.4623 N   0  0  0  0  0  0  0  0  0  0  0  0
   47.6097   55.9289   31.0574 C   0  0  0  0  0  0  0  0  0  0  0  0
   47.6779   57.3316   31.3338 C   0  0  0  0  0  0  0  0  0  0  0  0
   46.5913   57.9206   32.0371 C   0  0  0  0  0  0  0  0  0  0  0  0
   46.5868   59.2495   32.3557 N   0  0  0  0  0  0  0  0  0  0  0  0
   48.8434   57.7791   30.8271 N   0  0  0  0  0  0  0  0  0  0  0  0
   49.4874   56.7806   30.2639 C   0  0  0  0  0  0  0  0  0  0  0  0
   48.7903   55.6033   30.3823 N   0  0  0  0  0  0  0  0  0  0  0  0
  2  1  1  1  0  0  0
  2  3  1  0  0  0  0
  2  5  1  0  0  0  0
  3  4  1  0  0  0  0
  3 17  1  0  0  0  0
  5  6  1  0  0  0  0
  7  6  1  1  0  0  0
  7  8  1  0  0  0  0
  7  9  1  0  0  0  0
 10  9  1  6  0  0  0
 10 11  1  0  0  0  0
 10 12  1  0  0  0  0
 11 16  1  0  0  0  0
 12 13  1  6  0  0  0
 12 14  1  0  0  0  0
 14 15  1  6  0  0  0
 14 16  1  0  0  0  0
 16 27  1  1  0  0  0
 18 19  2  0  0  0  0
 18 23  1  0  0  0  0
 19 20  1  0  0  0  0
 20 21  2  0  0  0  0
 21 22  1  0  0  0  0
 21 27  1  0  0  0  0
 22 23  2  0  0  0  0
 22 25  1  0  0  0  0
 23 24  1  0  0  0  0
 25 26  2  0  0  0  0
 26 27  1  0  0  0  0
M  END
>  <CHROM.1>
153.30717193,-54.19525791,-172.95927443,79.85462670,-90.51956474,51.19751388
136.83975927,47.83599823,55.54526240,29.09730887,2.49432692,-0.87084286,1.45638334

>  <Name>
ligand

>  <RI>
0

>  <Rbt.Current_Directory>
/home/itssahil/PROJECTS/Mol_Feturizer/New_Systems/rnas/3IQN

>  <Rbt.Executable>
rbdock ($Id: //depot/dev/client3/rdock/2013.1/src/exe/rbdock.cxx#4 $)

>  <Rbt.Library>
libRbt.so (2013.1, Build901 2013/11/27)

>  <Rbt.Parameter_File>
/export/apps/rDock/src/rDock_2013.1_src/data/scripts/dock_solv.prm

>  <Rbt.Receptor>
prm/pocket_docking_3.prm

>  <SCORE>
-6.18683

>  <SCORE.INTER>
-3.36056

>  <SCORE.INTER.CONST>
1

>  <SCORE.INTER.POLAR>
0

>  <SCORE.INTER.ROT>
7

>  <SCORE.INTER.SOLV>
17.0444

>  <SCORE.INTER.VDW>
-16.1885

>  <SCORE.INTER.norm>
-0.124465

>  <SCORE.INTRA>
-2.87813

>  <SCORE.INTRA.DIHEDRAL>
-2.77243

>  <SCORE.INTRA.DIHEDRAL.0>
10.0365

>  <SCORE.INTRA.POLAR>
0

>  <SCORE.INTRA.POLAR.0>
0

>  <SCORE.INTRA.REPUL>
0

>  <SCORE.INTRA.REPUL.0>
0

>  <SCORE.INTRA.SOLV>
2.39863

>  <SCORE.INTRA.SOLV.lig_0>
-48.6728

>  <SCORE.INTRA.VDW>
-2.69124

>  <SCORE.INTRA.VDW.0>
-1.10662

>  <SCORE.INTRA.norm>
-0.106597

>  <SCORE.RESTR>
0.0518572

>  <SCORE.RESTR.CAVITY>
0.0518572

>  <SCORE.RESTR.norm>
0.00192064

>  <SCORE.SYSTEM>
0

>  <SCORE.SYSTEM.CONST>
0

>  <SCORE.SYSTEM.DIHEDRAL>
0

>  <SCORE.SYSTEM.SOLV>
0

>  <SCORE.SYSTEM.norm>
0

>  <SCORE.heavy>
27

>  <SCORE.norm>
-0.229142

>  <RMSD>
3.518

$$$$
ligand
 OpenBabel11021811483D
libRbt.so/2013.1/901 2013/11/27
 27 29  0  0  0  0  0  0  0  0999 V2000
   50.9837   53.2695   24.6501 N   0  0  0  0  0  0  0  0  0  0  0  0
   50.7303   52.6597   25.9620 C   0  0  2  0  0  0  0  0  0  0  0  0
   52.0477   52.4122   26.6332 C   0  0  0  0  0  0  0  0  0  0  0  0
   52.3882   53.1031   27.5802 O   0  0  0  0  0  0  0  0  0  0  0  0
   49.9834   51.3278   25.7958 C   0  0  0  0  0  0  0  0  0  0  0  0
   48.6030   51.6051   25.2075 C   0  0  0  0  0  0  0  0  0  0  0  0
   47.3479   52.0128   26.4628 S   0  0  2  0  0  0  0  0  0  0  0  0
   45.7893   52.1253   25.5307 C   0  0  0  0  0  0  0  0  0  0  0  0
   47.4841   53.7636   26.9747 C   0  0  0  0  0  0  0  0  0  0  0  0
   48.5870   53.7344   28.0042 C   0  0  1  0  0  0  0  0  0  0  0  0
   48.7072   55.0606   28.4010 O   0  0  0  0  0  0  0  0  0  0  0  0
   48.4164   53.0325   29.3522 C   0  0  1  0  0  0  0  0  0  0  0  0
   48.8231   51.6946   29.3165 O   0  0  0  0  0  0  0  0  0  0  0  0
   49.3627   53.9792   30.2348 C   0  0  1  0  0  0  0  0  0  0  0  0
   50.7058   54.1028   29.7449 O   0  0  0  0  0  0  0  0  0  0  0  0
   48.4531   55.1264   29.8594 C   0  0  1  0  0  0  0  0  0  0  0  0
   52.7682   51.5089   26.2385 O   0  0  0  0  0  0  0  0  0  0  0  0
   45.7204   58.4655   32.4384 N   0  0  0  0  0  0  0  0  0  0  0  0
   45.6150   57.1402   32.3302 C   0  0  0  0  0  0  0  0  0  0  0  0
   46.4870   56.4208   31.6248 N   0  0  0  0  0  0  0  0  0  0  0  0
   47.4368   57.0142   30.8895 C   0  0  0  0  0  0  0  0  0  0  0  0
   47.5409   58.4412   30.9256 C   0  0  0  0  0  0  0  0  0  0  0  0
   46.6289   59.1499   31.7551 C   0  0  0  0  0  0  0  0  0  0  0  0
   46.6729   60.5119   31.8594 N   0  0  0  0  0  0  0  0  0  0  0  0
   48.5559   58.7853   30.1090 N   0  0  0  0  0  0  0  0  0  0  0  0
   49.0749   57.7012   29.5759 C   0  0  0  0  0  0  0  0  0  0  0  0
   48.4423   56.5684   30.0258 N   0  0  0  0  0  0  0  0  0  0  0  0
  2  1  1  6  0  0  0
  2  3  1  0  0  0  0
  2  5  1  0  0  0  0
  3  4  1  0  0  0  0
  3 17  1  0  0  0  0
  5  6  1  0  0  0  0
  7  6  1  6  0  0  0
  7  8  1  0  0  0  0
  7  9  1  0  0  0  0
 10  9  1  6  0  0  0
 10 11  1  0  0  0  0
 10 12  1  0  0  0  0
 11 16  1  0  0  0  0
 12 13  1  6  0  0  0
 12 14  1  0  0  0  0
 14 15  1  6  0  0  0
 14 16  1  0  0  0  0
 16 27  1  1  0  0  0
 18 19  2  0  0  0  0
 18 23  1  0  0  0  0
 19 20  1  0  0  0  0
 20 21  2  0  0  0  0
 21 22  1  0  0  0  0
 21 27  1  0  0  0  0
 22 23  2  0  0  0  0
 22 25  1  0  0  0  0
 23 24  1  0  0  0  0
 25 26  2  0  0  0  0
 26 27  1  0  0  0  0
M  END
>  <CHROM.1>
107.83415445,-64.90855507,-85.85888893,-174.39892495,-82.52185090,179.78931686
138.79669865,48.63943720,54.60727511,28.61866248,-1.21353764,0.03427370,0.68769559

>  <Name>
ligand

>  <RI>
0

>  <Rbt.Current_Directory>
/home/itssahil/PROJECTS/Mol_Feturizer/New_Systems/rnas/3IQN

>  <Rbt.Executable>
rbdock ($Id: //depot/dev/client3/rdock/2013.1/src/exe/rbdock.cxx#4 $)

>  <Rbt.Library>
libRbt.so (2013.1, Build901 2013/11/27)

>  <Rbt.Parameter_File>
/export/apps/rDock/src/rDock_2013.1_src/data/scripts/dock_solv.prm

>  <Rbt.Receptor>
prm/pocket_docking_7.prm

>  <SCORE>
-11.6637

>  <SCORE.INTER>
-7.89504

>  <SCORE.INTER.CONST>
1

>  <SCORE.INTER.POLAR>
0

>  <SCORE.INTER.ROT>
7

>  <SCORE.INTER.SOLV>
15.1664

>  <SCORE.INTER.VDW>
-18.5855

>  <SCORE.INTER.norm>
-0.292409

>  <SCORE.INTRA>
-3.76864

>  <SCORE.INTRA.DIHEDRAL>
-3.28621

>  <SCORE.INTRA.DIHEDRAL.0>
10.0365

>  <SCORE.INTRA.POLAR>
0

>  <SCORE.INTRA.POLAR.0>
0

>  <SCORE.INTRA.REPUL>
0

>  <SCORE.INTRA.REPUL.0>
0

>  <SCORE.INTRA.SOLV>
1.1407

>  <SCORE.INTRA.SOLV.lig_0>
-48.6728

>  <SCORE.INTRA.VDW>
-2.69589

>  <SCORE.INTRA.VDW.0>
-1.10662

>  <SCORE.INTRA.norm>
-0.139579

>  <SCORE.RESTR>
0

>  <SCORE.RESTR.CAVITY>
0

>  <SCORE.RESTR.norm>
0

>  <SCORE.SYSTEM>
0

>  <SCORE.SYSTEM.CONST>
0

>  <SCORE.SYSTEM.DIHEDRAL>
0

>  <SCORE.SYSTEM.SOLV>
0

>  <SCORE.SYSTEM.norm>
0

>  <SCORE.heavy>
27

>  <SCORE.norm>
-0.431988

>  <RMSD>
4.357

$$$$
ligand
 OpenBabel11021811483D
libRbt.so/2013.1/901 2013/11/27
 27 29  0  0  0  0  0  0  0  0999 V2000
   45.5327   55.6000   29.6906 N   0  0  0  0  0  0  0  0  0  0  0  0
   46.2589   56.6506   28.9651 C   0  0  2  0  0  0  0  0  0  0  0  0
   45.2605   57.6218   28.4108 C   0  0  0  0  0  0  0  0  0  0  0  0
   45.4835   58.8209   28.4625 O   0  0  0  0  0  0  0  0  0  0  0  0
   47.0711   56.0396   27.8134 C   0  0  0  0  0  0  0  0  0  0  0  0
   48.2264   55.2318   28.3973 C   0  0  0  0  0  0  0  0  0  0  0  0
   49.6516   56.2543   28.8881 S   0  0  2  0  0  0  0  0  0  0  0  0
   51.0936   55.3952   28.1859 C   0  0  0  0  0  0  0  0  0  0  0  0
   50.0371   56.0251   30.6615 C   0  0  0  0  0  0  0  0  0  0  0  0
   49.0284   56.9126   31.3485 C   0  0  1  0  0  0  0  0  0  0  0  0
   48.3348   56.0445   32.1828 O   0  0  0  0  0  0  0  0  0  0  0  0
   49.4499   58.0032   32.3344 C   0  0  1  0  0  0  0  0  0  0  0  0
   49.6641   59.2371   31.7112 O   0  0  0  0  0  0  0  0  0  0  0  0
   48.1634   57.9694   33.2907 C   0  0  1  0  0  0  0  0  0  0  0  0
   46.9131   58.1682   32.6150 O   0  0  0  0  0  0  0  0  0  0  0  0
   48.4958   56.5229   33.5760 C   0  0  1  0  0  0  0  0  0  0  0  0
   44.2343   57.2074   27.8952 O   0  0  0  0  0  0  0  0  0  0  0  0
   43.8108   54.8664   34.3344 N   0  0  0  0  0  0  0  0  0  0  0  0
   44.2692   55.9430   33.6940 C   0  0  0  0  0  0  0  0  0  0  0  0
   45.5737   56.1786   33.5593 N   0  0  0  0  0  0  0  0  0  0  0  0
   46.4816   55.4069   34.1718 C   0  0  0  0  0  0  0  0  0  0  0  0
   46.0263   54.2786   34.9257 C   0  0  0  0  0  0  0  0  0  0  0  0
   44.6260   54.0356   34.9715 C   0  0  0  0  0  0  0  0  0  0  0  0
   44.1109   52.9697   35.6544 N   0  0  0  0  0  0  0  0  0  0  0  0
   47.1180   53.6781   35.4385 N   0  0  0  0  0  0  0  0  0  0  0  0
   48.1937   54.3390   35.0713 C   0  0  0  0  0  0  0  0  0  0  0  0
   47.8764   55.4109   34.2736 N   0  0  0  0  0  0  0  0  0  0  0  0
  2  1  1  6  0  0  0
  2  3  1  0  0  0  0
  2  5  1  0  0  0  0
  3  4  1  0  0  0  0
  3 17  1  0  0  0  0
  5  6  1  0  0  0  0
  7  6  1  1  0  0  0
  7  8  1  0  0  0  0
  7  9  1  0  0  0  0
 10  9  1  1  0  0  0
 10 11  1  0  0  0  0
 10 12  1  0  0  0  0
 11 16  1  0  0  0  0
 12 13  1  6  0  0  0
 12 14  1  0  0  0  0
 14 15  1  6  0  0  0
 14 16  1  0  0  0  0
 16 27  1  1  0  0  0
 18 19  2  0  0  0  0
 18 23  1  0  0  0  0
 19 20  1  0  0  0  0
 20 21  2  0  0  0  0
 21 22  1  0  0  0  0
 21 27  1  0  0  0  0
 22 23  2  0  0  0  0
 22 25  1  0  0  0  0
 23 24  1  0  0  0  0
 25 26  2  0  0  0  0
 26 27  1  0  0  0  0
M  END
>  <CHROM.1>
138.31933360,-69.83223255,-80.67291066,-132.72138908,-80.45800565,121.98378920
-74.68148542,47.22332313,56.16642684,31.63839215,1.21025468,-0.11107579,-1.26711004

>  <Name>
ligand

>  <RI>
0

>  <Rbt.Current_Directory>
/home/itssahil/PROJECTS/Mol_Feturizer/New_Systems/rnas/3IQN

>  <Rbt.Executable>
rbdock ($Id: //depot/dev/client3/rdock/2013.1/src/exe/rbdock.cxx#4 $)

>  <Rbt.Library>
libRbt.so (2013.1, Build901 2013/11/27)

>  <Rbt.Parameter_File>
/export/apps/rDock/src/rDock_2013.1_src/data/scripts/dock_solv.prm

>  <Rbt.Receptor>
prm/pocket_docking_8.prm

>  <SCORE>
-14.8454

>  <SCORE.INTER>
-15.4154

>  <SCORE.INTER.CONST>
1

>  <SCORE.INTER.POLAR>
0

>  <SCORE.INTER.ROT>
7

>  <SCORE.INTER.SOLV>
9.49933

>  <SCORE.INTER.VDW>
-21.71

>  <SCORE.INTER.norm>
-0.570941

>  <SCORE.INTRA>
0.569962

>  <SCORE.INTRA.DIHEDRAL>
4.93302

>  <SCORE.INTRA.DIHEDRAL.0>
10.0365

>  <SCORE.INTRA.POLAR>
0

>  <SCORE.INTRA.POLAR.0>
0

>  <SCORE.INTRA.REPUL>
0

>  <SCORE.INTRA.REPUL.0>
0

>  <SCORE.INTRA.SOLV>
1.18229

>  <SCORE.INTRA.SOLV.lig_0>
-48.6728

>  <SCORE.INTRA.VDW>
-2.48769

>  <SCORE.INTRA.VDW.0>
-1.10662

>  <SCORE.INTRA.norm>
0.0211097

>  <SCORE.RESTR>
0

>  <SCORE.RESTR.CAVITY>
0

>  <SCORE.RESTR.norm>
0

>  <SCORE.SYSTEM>
0

>  <SCORE.SYSTEM.CONST>
0

>  <SCORE.SYSTEM.DIHEDRAL>
0

>  <SCORE.SYSTEM.SOLV>
0

>  <SCORE.SYSTEM.norm>
0

>  <SCORE.heavy>
27

>  <SCORE.norm>
-0.549831

>  <RMSD>
4.428

$$$$
ligand
 OpenBabel11021811483D
libRbt.so/2013.1/901 2013/11/27
 27 29  0  0  0  0  0  0  0  0999 V2000
   46.4497   55.3100   29.1200 N   0  0  0  0  0  0  0  0  0  0  0  0
   45.4130   56.3397   29.2692 C   0  0  2  0  0  0  0  0  0  0  0  0
   45.1409   56.9384   27.9219 C   0  0  0  0  0  0  0  0  0  0  0  0
   46.0695   57.3045   27.2192 O   0  0  0  0  0  0  0  0  0  0  0  0
   45.8879   57.4395   30.2305 C   0  0  0  0  0  0  0  0  0  0  0  0
   46.4954   56.7859   31.4682 C   0  0  0  0  0  0  0  0  0  0  0  0
   47.0437   57.9836   32.7261 S   0  0  2  0  0  0  0  0  0  0  0  0
   47.7453   59.3626   31.7687 C   0  0  0  0  0  0  0  0  0  0  0  0
   48.5778   57.4130   33.5428 C   0  0  0  0  0  0  0  0  0  0  0  0
   48.2994   55.9549   33.8139 C   0  0  1  0  0  0  0  0  0  0  0  0
   48.3778   55.3622   32.5596 O   0  0  0  0  0  0  0  0  0  0  0  0
   49.2649   55.0833   34.6183 C   0  0  1  0  0  0  0  0  0  0  0  0
   48.9760   55.0837   35.9870 O   0  0  0  0  0  0  0  0  0  0  0  0
   48.9821   53.6822   33.8918 C   0  0  1  0  0  0  0  0  0  0  0  0
   47.6052   53.2778   33.8925 O   0  0  0  0  0  0  0  0  0  0  0  0
   49.4415   54.3315   32.6066 C   0  0  1  0  0  0  0  0  0  0  0  0
   43.9903   57.0426   27.5267 O   0  0  0  0  0  0  0  0  0  0  0  0
   49.5025   56.8256   28.2426 N   0  0  0  0  0  0  0  0  0  0  0  0
   49.4242   57.2595   29.5016 C   0  0  0  0  0  0  0  0  0  0  0  0
   49.4764   56.4236   30.5379 N   0  0  0  0  0  0  0  0  0  0  0  0
   49.4836   55.0964   30.3548 C   0  0  0  0  0  0  0  0  0  0  0  0
   49.5001   54.5886   29.0168 C   0  0  0  0  0  0  0  0  0  0  0  0
   49.5185   55.5310   27.9520 C   0  0  0  0  0  0  0  0  0  0  0  0
   49.5527   55.1287   26.6464 N   0  0  0  0  0  0  0  0  0  0  0  0
   49.5000   53.2440   29.1032 N   0  0  0  0  0  0  0  0  0  0  0  0
   49.4795   52.8872   30.3685 C   0  0  0  0  0  0  0  0  0  0  0  0
   49.4841   53.9812   31.1986 N   0  0  0  0  0  0  0  0  0  0  0  0
  2  1  1  6  0  0  0
  2  3  1  0  0  0  0
  2  5  1  0  0  0  0
  3  4  1  0  0  0  0
  3 17  1  0  0  0  0
  5  6  1  0  0  0  0
  7  6  1  6  0  0  0
  7  8  1  0  0  0  0
  7  9  1  0  0  0  0
 10  9  1  6  0  0  0
 10 11  1  0  0  0  0
 10 12  1  0  0  0  0
 11 16  1  0  0  0  0
 12 13  1  1  0  0  0
 12 14  1  0  0  0  0
 14 15  1  6  0  0  0
 14 16  1  0  0  0  0
 16 27  1  6  0  0  0
 18 19  2  0  0  0  0
 18 23  1  0  0  0  0
 19 20  1  0  0  0  0
 20 21  2  0  0  0  0
 21 22  1  0  0  0  0
 21 27  1  0  0  0  0
 22 23  2  0  0  0  0
 22 25  1  0  0  0  0
 23 24  1  0  0  0  0
 25 26  2  0  0  0  0
 26 27  1  0  0  0  0
M  END
>  <CHROM.1>
-48.63472784,-46.43204539,-177.76349872,-38.16381932,-44.64545182,72.96461294
45.52905903,47.99895674,55.89406087,30.91327121,-2.02478792,-0.81130534,1.46648369

>  <Name>
ligand

>  <RI>
0

>  <Rbt.Current_Directory>
/home/itssahil/PROJECTS/Mol_Feturizer/New_Systems/rnas/3IQN

>  <Rbt.Executable>
rbdock ($Id: //depot/dev/client3/rdock/2013.1/src/exe/rbdock.cxx#4 $)

>  <Rbt.Library>
libRbt.so (2013.1, Build901 2013/11/27)

>  <Rbt.Parameter_File>
/export/apps/rDock/src/rDock_2013.1_src/data/scripts/dock_solv.prm

>  <Rbt.Receptor>
prm/pocket_docking_3.prm

>  <SCORE>
-10.9118

>  <SCORE.INTER>
-12.0416

>  <SCORE.INTER.CONST>
1

>  <SCORE.INTER.POLAR>
0

>  <SCORE.INTER.ROT>
7

>  <SCORE.INTER.SOLV>
8.81121

>  <SCORE.INTER.VDW>
-19.2315

>  <SCORE.INTER.norm>
-0.445985

>  <SCORE.INTRA>
1.12979

>  <SCORE.INTRA.DIHEDRAL>
-2.24538

>  <SCORE.INTRA.DIHEDRAL.0>
10.0365

>  <SCORE.INTRA.POLAR>
0

>  <SCORE.INTRA.POLAR.0>
0

>  <SCORE.INTRA.REPUL>
0

>  <SCORE.INTRA.REPUL.0>
0

>  <SCORE.INTRA.SOLV>
3.02943

>  <SCORE.INTRA.SOLV.lig_0>
-48.6728

>  <SCORE.INTRA.VDW>
0.737758

>  <SCORE.INTRA.VDW.0>
-1.10662

>  <SCORE.INTRA.norm>
0.0418439

>  <SCORE.RESTR>
0

>  <SCORE.RESTR.CAVITY>
0

>  <SCORE.RESTR.norm>
0

>  <SCORE.SYSTEM>
0

>  <SCORE.SYSTEM.CONST>
0

>  <SCORE.SYSTEM.DIHEDRAL>
0

>  <SCORE.SYSTEM.SOLV>
0

>  <SCORE.SYSTEM.norm>
0

>  <SCORE.heavy>
27

>  <SCORE.norm>
-0.404141

>  <RMSD>
4.466

$$$$
ligand
 OpenBabel11021811483D
libRbt.so/2013.1/901 2013/11/27
 27 29  0  0  0  0  0  0  0  0999 V2000
   47.2702   58.0031   26.3195 N   0  0  0  0  0  0  0  0  0  0  0  0
   47.2500   57.0579   27.4436 C   0  0  2  0  0  0  0  0  0  0  0  0
   46.6313   57.7399   28.6266 C   0  0  0  0  0  0  0  0  0  0  0  0
   47.2524   58.6033   29.2257 O   0  0  0  0  0  0  0  0  0  0  0  0
   48.6789   56.6185   27.7968 C   0  0  0  0  0  0  0  0  0  0  0  0
   48.6102   55.4918   28.8235 C   0  0  0  0  0  0  0  0  0  0  0  0
   50.1488   55.2828   29.7755 S   0  0  2  0  0  0  0  0  0  0  0  0
   50.9616   53.8413   29.0194 C   0  0  0  0  0  0  0  0  0  0  0  0
   49.8028   54.5657   31.4223 C   0  0  0  0  0  0  0  0  0  0  0  0
   48.9620   55.6271   32.0881 C   0  0  1  0  0  0  0  0  0  0  0  0
   48.1095   54.9063   32.9154 O   0  0  0  0  0  0  0  0  0  0  0  0
   49.5595   56.6310   33.0752 C   0  0  1  0  0  0  0  0  0  0  0  0
   50.0039   57.8004   32.4492 O   0  0  0  0  0  0  0  0  0  0  0  0
   48.2740   56.8391   34.0104 C   0  0  1  0  0  0  0  0  0  0  0  0
   47.0910   57.2562   33.3132 O   0  0  0  0  0  0  0  0  0  0  0  0
   48.3336   55.3586   34.3086 C   0  0  1  0  0  0  0  0  0  0  0  0
   45.5008   57.4389   28.9762 O   0  0  0  0  0  0  0  0  0  0  0  0
   43.4148   54.4474   34.8027 N   0  0  0  0  0  0  0  0  0  0  0  0
   44.0689   55.4142   34.1568 C   0  0  0  0  0  0  0  0  0  0  0  0
   45.3998   55.4484   34.1037 N   0  0  0  0  0  0  0  0  0  0  0  0
   46.1414   54.5803   34.8045 C   0  0  0  0  0  0  0  0  0  0  0  0
   45.4757   53.5672   35.5655 C   0  0  0  0  0  0  0  0  0  0  0  0
   44.0546   53.5356   35.5238 C   0  0  0  0  0  0  0  0  0  0  0  0
   43.3437   52.5897   36.2076 N   0  0  0  0  0  0  0  0  0  0  0  0
   46.4305   52.8366   36.1734 N   0  0  0  0  0  0  0  0  0  0  0  0
   47.6141   53.3141   35.8574 C   0  0  0  0  0  0  0  0  0  0  0  0
   47.5118   54.3833   35.0016 N   0  0  0  0  0  0  0  0  0  0  0  0
  2  1  1  6  0  0  0
  2  3  1  0  0  0  0
  2  5  1  0  0  0  0
  3  4  1  0  0  0  0
  3 17  1  0  0  0  0
  5  6  1  0  0  0  0
  7  6  1  6  0  0  0
  7  8  1  0  0  0  0
  7  9  1  0  0  0  0
 10  9  1  1  0  0  0
 10 11  1  0  0  0  0
 10 12  1  0  0  0  0
 11 16  1  0  0  0  0
 12 13  1  6  0  0  0
 12 14  1  0  0  0  0
 14 15  1  6  0  0  0
 14 16  1  0  0  0  0
 16 27  1  1  0  0  0
 18 19  2  0  0  0  0
 18 23  1  0  0  0  0
 19 20  1  0  0  0  0
 20 21  2  0  0  0  0
 21 22  1  0  0  0  0
 21 27  1  0  0  0  0
 22 23  2  0  0  0  0
 22 25  1  0  0  0  0
 23 24  1  0  0  0  0
 25 26  2  0  0  0  0
 26 27  1  0  0  0  0
M  END
>  <CHROM.1>
-72.68270907,-171.85200561,-158.93572752,-102.04470674,-63.82287864,147.90938934
-70.71638064,47.44118838,55.56800494,32.08589177,1.16524215,0.17460701,-1.11293940

>  <Name>
ligand

>  <RI>
0

>  <Rbt.Current_Directory>
/home/itssahil/PROJECTS/Mol_Feturizer/New_Systems/rnas/3IQN

>  <Rbt.Executable>
rbdock ($Id: //depot/dev/client3/rdock/2013.1/src/exe/rbdock.cxx#4 $)

>  <Rbt.Library>
libRbt.so (2013.1, Build901 2013/11/27)

>  <Rbt.Parameter_File>
/export/apps/rDock/src/rDock_2013.1_src/data/scripts/dock_solv.prm

>  <Rbt.Receptor>
prm/pocket_docking_7.prm

>  <SCORE>
-14.0473

>  <SCORE.INTER>
-12.4023

>  <SCORE.INTER.CONST>
1

>  <SCORE.INTER.POLAR>
0

>  <SCORE.INTER.ROT>
7

>  <SCORE.INTER.SOLV>
15.4745

>  <SCORE.INTER.VDW>
-21.693

>  <SCORE.INTER.norm>
-0.459343

>  <SCORE.INTRA>
-1.64528

>  <SCORE.INTRA.DIHEDRAL>
0.3189

>  <SCORE.INTRA.DIHEDRAL.0>
10.0365

>  <SCORE.INTRA.POLAR>
0

>  <SCORE.INTRA.POLAR.0>
0

>  <SCORE.INTRA.REPUL>
0

>  <SCORE.INTRA.REPUL.0>
0

>  <SCORE.INTRA.SOLV>
-0.838003

>  <SCORE.INTRA.SOLV.lig_0>
-48.6728

>  <SCORE.INTRA.VDW>
-1.38573

>  <SCORE.INTRA.VDW.0>
-1.10662

>  <SCORE.INTRA.norm>
-0.0609362

>  <SCORE.RESTR>
0.000244894

>  <SCORE.RESTR.CAVITY>
0.000244894

>  <SCORE.RESTR.norm>
9.07014e-06

>  <SCORE.SYSTEM>
0

>  <SCORE.SYSTEM.CONST>
0

>  <SCORE.SYSTEM.DIHEDRAL>
0

>  <SCORE.SYSTEM.SOLV>
0

>  <SCORE.SYSTEM.norm>
0

>  <SCORE.heavy>
27

>  <SCORE.norm>
-0.52027

>  <RMSD>
4.493

$$$$
ligand
 OpenBabel11021811483D
libRbt.so/2013.1/901 2013/11/27
 27 29  0  0  0  0  0  0  0  0999 V2000
   46.4691   57.1873   28.0124 N   0  0  0  0  0  0  0  0  0  0  0  0
   47.7018   57.2477   27.2160 C   0  0  2  0  0  0  0  0  0  0  0  0
   47.6796   56.1268   26.2208 C   0  0  0  0  0  0  0  0  0  0  0  0
   46.6988   55.4048   26.1382 O   0  0  0  0  0  0  0  0  0  0  0  0
   48.9315   57.1001   28.1245 C   0  0  0  0  0  0  0  0  0  0  0  0
   48.8961   55.7251   28.7850 C   0  0  0  0  0  0  0  0  0  0  0  0
   50.3188   55.4078   29.8771 S   0  0  2  0  0  0  0  0  0  0  0  0
   50.6329   53.6234   29.7115 C   0  0  0  0  0  0  0  0  0  0  0  0
   49.8088   55.4310   31.6336 C   0  0  0  0  0  0  0  0  0  0  0  0
   49.1205   56.7667   31.7726 C   0  0  1  0  0  0  0  0  0  0  0  0
   47.8324   56.4370   32.1762 O   0  0  0  0  0  0  0  0  0  0  0  0
   49.5229   57.7756   32.8492 C   0  0  1  0  0  0  0  0  0  0  0  0
   50.5077   58.6664   32.4094 O   0  0  0  0  0  0  0  0  0  0  0  0
   48.0895   58.4530   33.0882 C   0  0  1  0  0  0  0  0  0  0  0  0
   47.4797   58.9905   31.9055 O   0  0  0  0  0  0  0  0  0  0  0  0
   47.5833   57.0854   33.4852 C   0  0  1  0  0  0  0  0  0  0  0  0
   48.6383   55.9507   25.4855 O   0  0  0  0  0  0  0  0  0  0  0  0
   45.9858   52.6116   35.1290 N   0  0  0  0  0  0  0  0  0  0  0  0
   47.2093   53.0533   34.8331 C   0  0  0  0  0  0  0  0  0  0  0  0
   47.4302   54.3120   34.4561 N   0  0  0  0  0  0  0  0  0  0  0  0
   46.4130   55.1558   34.2368 C   0  0  0  0  0  0  0  0  0  0  0  0
   45.0783   54.6989   34.4785 C   0  0  0  0  0  0  0  0  0  0  0  0
   44.9104   53.3683   34.9512 C   0  0  0  0  0  0  0  0  0  0  0  0
   43.6709   52.8610   35.2232 N   0  0  0  0  0  0  0  0  0  0  0  0
   44.2503   55.7196   34.1821 N   0  0  0  0  0  0  0  0  0  0  0  0
   44.9565   56.7523   33.7778 C   0  0  0  0  0  0  0  0  0  0  0  0
   46.3024   56.4801   33.8011 N   0  0  0  0  0  0  0  0  0  0  0  0
  2  1  1  1  0  0  0
  2  3  1  0  0  0  0
  2  5  1  0  0  0  0
  3  4  1  0  0  0  0
  3 17  1  0  0  0  0
  5  6  1  0  0  0  0
  7  6  1  6  0  0  0
  7  8  1  0  0  0  0
  7  9  1  0  0  0  0
 10  9  1  1  0  0  0
 10 11  1  0  0  0  0
 10 12  1  0  0  0  0
 11 16  1  0  0  0  0
 12 13  1  6  0  0  0
 12 14  1  0  0  0  0
 14 15  1  6  0  0  0
 14 16  1  0  0  0  0
 16 27  1  6  0  0  0
 18 19  2  0  0  0  0
 18 23  1  0  0  0  0
 19 20  1  0  0  0  0
 20 21  2  0  0  0  0
 21 22  1  0  0  0  0
 21 27  1  0  0  0  0
 22 23  2  0  0  0  0
 22 25  1  0  0  0  0
 23 24  1  0  0  0  0
 25 26  2  0  0  0  0
 26 27  1  0  0  0  0
M  END
>  <CHROM.1>
3.89848582,62.92553729,179.16365778,-146.50205697,-53.92655290,120.50739808
76.33405035,47.67717619,55.88118415,31.44528377,1.04588178,-0.71208441,-1.69611692

>  <Name>
ligand

>  <RI>
0

>  <Rbt.Current_Directory>
/home/itssahil/PROJECTS/Mol_Feturizer/New_Systems/rnas/3IQN

>  <Rbt.Executable>
rbdock ($Id: //depot/dev/client3/rdock/2013.1/src/exe/rbdock.cxx#4 $)

>  <Rbt.Library>
libRbt.so (2013.1, Build901 2013/11/27)

>  <Rbt.Parameter_File>
/export/apps/rDock/src/rDock_2013.1_src/data/scripts/dock_solv.prm

>  <Rbt.Receptor>
prm/pocket_docking_7.prm

>  <SCORE>
-18.069

>  <SCORE.INTER>
-18.0045

>  <SCORE.INTER.CONST>
1

>  <SCORE.INTER.POLAR>
0

>  <SCORE.INTER.ROT>
7

>  <SCORE.INTER.SOLV>
11.0081

>  <SCORE.INTER.VDW>
-23.939

>  <SCORE.INTER.norm>
-0.666833

>  <SCORE.INTRA>
-0.0644864

>  <SCORE.INTRA.DIHEDRAL>
1.82608

>  <SCORE.INTRA.DIHEDRAL.0>
10.0365

>  <SCORE.INTRA.POLAR>
0

>  <SCORE.INTRA.POLAR.0>
0

>  <SCORE.INTRA.REPUL>
0

>  <SCORE.INTRA.REPUL.0>
0

>  <SCORE.INTRA.SOLV>
-0.387745

>  <SCORE.INTRA.SOLV.lig_0>
-48.6728

>  <SCORE.INTRA.VDW>
-0.783653

>  <SCORE.INTRA.VDW.0>
-1.10662

>  <SCORE.INTRA.norm>
-0.00238838

>  <SCORE.RESTR>
0

>  <SCORE.RESTR.CAVITY>
0

>  <SCORE.RESTR.norm>
0

>  <SCORE.SYSTEM>
0

>  <SCORE.SYSTEM.CONST>
0

>  <SCORE.SYSTEM.DIHEDRAL>
0

>  <SCORE.SYSTEM.SOLV>
0

>  <SCORE.SYSTEM.norm>
0

>  <SCORE.heavy>
27

>  <SCORE.norm>
-0.669222

>  <RMSD>
4.536

$$$$
ligand
 OpenBabel11021811483D
libRbt.so/2013.1/901 2013/11/27
 27 29  0  0  0  0  0  0  0  0999 V2000
   46.4045   53.2579   26.6936 N   0  0  0  0  0  0  0  0  0  0  0  0
   47.0937   54.5462   26.8445 C   0  0  2  0  0  0  0  0  0  0  0  0
   47.6570   54.9423   25.5129 C   0  0  0  0  0  0  0  0  0  0  0  0
   48.1996   54.1063   24.8079 O   0  0  0  0  0  0  0  0  0  0  0  0
   48.2344   54.4244   27.8659 C   0  0  0  0  0  0  0  0  0  0  0  0
   48.8787   55.7948   28.0533 C   0  0  0  0  0  0  0  0  0  0  0  0
   50.3659   55.7598   29.1043 S   0  0  2  0  0  0  0  0  0  0  0  0
   51.4435   54.5151   28.3298 C   0  0  0  0  0  0  0  0  0  0  0  0
   50.0311   54.8871   30.6766 C   0  0  0  0  0  0  0  0  0  0  0  0
   49.1619   55.8628   31.4314 C   0  0  1  0  0  0  0  0  0  0  0  0
   48.7946   55.1654   32.5757 O   0  0  0  0  0  0  0  0  0  0  0  0
   49.7263   57.1504   32.0334 C   0  0  1  0  0  0  0  0  0  0  0  0
   49.6552   58.2326   31.1499 O   0  0  0  0  0  0  0  0  0  0  0  0
   48.7454   57.2728   33.2957 C   0  0  1  0  0  0  0  0  0  0  0  0
   47.3485   57.2806   32.9665 O   0  0  0  0  0  0  0  0  0  0  0  0
   49.2720   55.9312   33.7510 C   0  0  1  0  0  0  0  0  0  0  0  0
   47.5562   56.0980   25.1322 O   0  0  0  0  0  0  0  0  0  0  0  0
   45.1323   53.6845   35.5072 N   0  0  0  0  0  0  0  0  0  0  0  0
   45.2971   54.5983   34.5495 C   0  0  0  0  0  0  0  0  0  0  0  0
   46.5049   55.0344   34.1940 N   0  0  0  0  0  0  0  0  0  0  0  0
   47.5996   54.6646   34.8719 C   0  0  0  0  0  0  0  0  0  0  0  0
   47.4569   53.7357   35.9514 C   0  0  0  0  0  0  0  0  0  0  0  0
   46.1517   53.2482   36.2361 C   0  0  0  0  0  0  0  0  0  0  0  0
   45.9323   52.3457   37.2385 N   0  0  0  0  0  0  0  0  0  0  0  0
   48.6859   53.5334   36.4652 N   0  0  0  0  0  0  0  0  0  0  0  0
   49.5614   54.2565   35.8023 C   0  0  0  0  0  0  0  0  0  0  0  0
   48.9622   54.9694   34.7930 N   0  0  0  0  0  0  0  0  0  0  0  0
  2  1  1  6  0  0  0
  2  3  1  0  0  0  0
  2  5  1  0  0  0  0
  3  4  1  0  0  0  0
  3 17  1  0  0  0  0
  5  6  1  0  0  0  0
  7  6  1  6  0  0  0
  7  8  1  0  0  0  0
  7  9  1  0  0  0  0
 10  9  1  1  0  0  0
 10 11  1  0  0  0  0
 10 12  1  0  0  0  0
 11 16  1  0  0  0  0
 12 13  1  6  0  0  0
 12 14  1  0  0  0  0
 14 15  1  6  0  0  0
 14 16  1  0  0  0  0
 16 27  1  1  0  0  0
 18 19  2  0  0  0  0
 18 23  1  0  0  0  0
 19 20  1  0  0  0  0
 20 21  2  0  0  0  0
 21 22  1  0  0  0  0
 21 27  1  0  0  0  0
 22 23  2  0  0  0  0
 22 25  1  0  0  0  0
 23 24  1  0  0  0  0
 25 26  2  0  0  0  0
 26 27  1  0  0  0  0
M  END
>  <CHROM.1>
-42.14603275,-176.99372249,-173.71391715,54.42419989,-72.42838539,174.61118001
-60.72899449,48.27655233,55.08330014,31.44552126,1.39993206,-0.63351456,-1.58082363

>  <Name>
ligand

>  <RI>
0

>  <Rbt.Current_Directory>
/home/itssahil/PROJECTS/Mol_Feturizer/New_Systems/rnas/3IQN

>  <Rbt.Executable>
rbdock ($Id: //depot/dev/client3/rdock/2013.1/src/exe/rbdock.cxx#4 $)

>  <Rbt.Library>
libRbt.so (2013.1, Build901 2013/11/27)

>  <Rbt.Parameter_File>
/export/apps/rDock/src/rDock_2013.1_src/data/scripts/dock_solv.prm

>  <Rbt.Receptor>
prm/pocket_docking_5.prm

>  <SCORE>
-16.5272

>  <SCORE.INTER>
-12.0664

>  <SCORE.INTER.CONST>
1

>  <SCORE.INTER.POLAR>
0

>  <SCORE.INTER.ROT>
7

>  <SCORE.INTER.SOLV>
12.3253

>  <SCORE.INTER.VDW>
-20.4194

>  <SCORE.INTER.norm>
-0.446903

>  <SCORE.INTRA>
-4.46078

>  <SCORE.INTRA.DIHEDRAL>
-6.54487

>  <SCORE.INTRA.DIHEDRAL.0>
10.0365

>  <SCORE.INTRA.POLAR>
0

>  <SCORE.INTRA.POLAR.0>
0

>  <SCORE.INTRA.REPUL>
0

>  <SCORE.INTRA.REPUL.0>
0

>  <SCORE.INTRA.SOLV>
-0.717132

>  <SCORE.INTRA.SOLV.lig_0>
-48.6728

>  <SCORE.INTRA.VDW>
-0.829784

>  <SCORE.INTRA.VDW.0>
-1.10662

>  <SCORE.INTRA.norm>
-0.165214

>  <SCORE.RESTR>
0

>  <SCORE.RESTR.CAVITY>
0

>  <SCORE.RESTR.norm>
0

>  <SCORE.SYSTEM>
0

>  <SCORE.SYSTEM.CONST>
0

>  <SCORE.SYSTEM.DIHEDRAL>
0

>  <SCORE.SYSTEM.SOLV>
0

>  <SCORE.SYSTEM.norm>
0

>  <SCORE.heavy>
27

>  <SCORE.norm>
-0.612117

>  <RMSD>
4.605

$$$$
ligand
 OpenBabel11021811483D
libRbt.so/2013.1/901 2013/11/27
 27 29  0  0  0  0  0  0  0  0999 V2000
   47.8656   53.7525   25.6204 N   0  0  0  0  0  0  0  0  0  0  0  0
   48.0765   55.1671   25.2865 C   0  0  2  0  0  0  0  0  0  0  0  0
   48.5694   55.2532   23.8733 C   0  0  0  0  0  0  0  0  0  0  0  0
   47.9189   55.8598   23.0372 O   0  0  0  0  0  0  0  0  0  0  0  0
   49.1178   55.7883   26.2295 C   0  0  0  0  0  0  0  0  0  0  0  0
   48.6706   55.5706   27.6720 C   0  0  0  0  0  0  0  0  0  0  0  0
   49.9075   56.0947   28.9020 S   0  0  2  0  0  0  0  0  0  0  0  0
   51.4102   55.1678   28.4623 C   0  0  0  0  0  0  0  0  0  0  0  0
   49.5780   55.3211   30.5265 C   0  0  0  0  0  0  0  0  0  0  0  0
   48.7097   56.3410   31.2215 C   0  0  1  0  0  0  0  0  0  0  0  0
   47.9964   55.5933   32.1504 O   0  0  0  0  0  0  0  0  0  0  0  0
   49.3018   57.4364   32.1095 C   0  0  1  0  0  0  0  0  0  0  0  0
   49.5889   58.6069   31.3993 O   0  0  0  0  0  0  0  0  0  0  0  0
   48.0882   57.5834   33.1470 C   0  0  1  0  0  0  0  0  0  0  0  0
   46.8184   57.8685   32.5424 O   0  0  0  0  0  0  0  0  0  0  0  0
   48.2999   56.1287   33.4984 C   0  0  1  0  0  0  0  0  0  0  0  0
   49.6288   54.7285   23.5684 O   0  0  0  0  0  0  0  0  0  0  0  0
   43.5400   54.7874   34.4000 N   0  0  0  0  0  0  0  0  0  0  0  0
   44.0500   55.7708   33.6568 C   0  0  0  0  0  0  0  0  0  0  0  0
   45.3644   55.9276   33.5045 N   0  0  0  0  0  0  0  0  0  0  0  0
   46.2339   55.1778   34.1948 C   0  0  0  0  0  0  0  0  0  0  0  0
   45.7245   54.1543   35.0560 C   0  0  0  0  0  0  0  0  0  0  0  0
   44.3140   53.9858   35.1203 C   0  0  0  0  0  0  0  0  0  0  0  0
   43.7479   53.0201   35.9044 N   0  0  0  0  0  0  0  0  0  0  0  0
   46.7859   53.5556   35.6308 N   0  0  0  0  0  0  0  0  0  0  0  0
   47.8924   54.1231   35.2036 C   0  0  0  0  0  0  0  0  0  0  0  0
   47.6273   55.1238   34.3014 N   0  0  0  0  0  0  0  0  0  0  0  0
  2  1  1  1  0  0  0
  2  3  1  0  0  0  0
  2  5  1  0  0  0  0
  3  4  1  0  0  0  0
  3 17  1  0  0  0  0
  5  6  1  0  0  0  0
  7  6  1  6  0  0  0
  7  8  1  0  0  0  0
  7  9  1  0  0  0  0
 10  9  1  1  0  0  0
 10 11  1  0  0  0  0
 10 12  1  0  0  0  0
 11 16  1  0  0  0  0
 12 13  1  6  0  0  0
 12 14  1  0  0  0  0
 14 15  1  6  0  0  0
 14 16  1  0  0  0  0
 16 27  1  1  0  0  0
 18 19  2  0  0  0  0
 18 23  1  0  0  0  0
 19 20  1  0  0  0  0
 20 21  2  0  0  0  0
 21 22  1  0  0  0  0
 21 27  1  0  0  0  0
 22 23  2  0  0  0  0
 22 25  1  0  0  0  0
 23 24  1  0  0  0  0
 25 26  2  0  0  0  0
 26 27  1  0  0  0  0
M  END
>  <CHROM.1>
119.10046567,-55.15423102,173.53698318,-55.89010632,-92.13910452,155.34840824
-69.26200245,47.75750384,55.54115221,30.74759763,1.17368120,-0.54473292,-1.73269891

>  <Name>
ligand

>  <RI>
0

>  <Rbt.Current_Directory>
/home/itssahil/PROJECTS/Mol_Feturizer/New_Systems/rnas/3IQN

>  <Rbt.Executable>
rbdock ($Id: //depot/dev/client3/rdock/2013.1/src/exe/rbdock.cxx#4 $)

>  <Rbt.Library>
libRbt.so (2013.1, Build901 2013/11/27)

>  <Rbt.Parameter_File>
/export/apps/rDock/src/rDock_2013.1_src/data/scripts/dock_solv.prm

>  <Rbt.Receptor>
prm/pocket_docking_7.prm

>  <SCORE>
-16.2616

>  <SCORE.INTER>
-14.1534

>  <SCORE.INTER.CONST>
1

>  <SCORE.INTER.POLAR>
0

>  <SCORE.INTER.ROT>
7

>  <SCORE.INTER.SOLV>
8.61238

>  <SCORE.INTER.VDW>
-20.5731

>  <SCORE.INTER.norm>
-0.524201

>  <SCORE.INTRA>
-2.10816

>  <SCORE.INTRA.DIHEDRAL>
-2.62735

>  <SCORE.INTRA.DIHEDRAL.0>
10.0365

>  <SCORE.INTRA.POLAR>
0

>  <SCORE.INTRA.POLAR.0>
0

>  <SCORE.INTRA.REPUL>
0

>  <SCORE.INTRA.REPUL.0>
0

>  <SCORE.INTRA.SOLV>
-0.0201355

>  <SCORE.INTRA.SOLV.lig_0>
-48.6728

>  <SCORE.INTRA.VDW>
-0.78442

>  <SCORE.INTRA.VDW.0>
-1.10662

>  <SCORE.INTRA.norm>
-0.0780802

>  <SCORE.RESTR>
0

>  <SCORE.RESTR.CAVITY>
0

>  <SCORE.RESTR.norm>
0

>  <SCORE.SYSTEM>
0

>  <SCORE.SYSTEM.CONST>
0

>  <SCORE.SYSTEM.DIHEDRAL>
0

>  <SCORE.SYSTEM.SOLV>
0

>  <SCORE.SYSTEM.norm>
0

>  <SCORE.heavy>
27

>  <SCORE.norm>
-0.602282

>  <RMSD>
4.616

$$$$
ligand
 OpenBabel11021811483D
libRbt.so/2013.1/901 2013/11/27
 27 29  0  0  0  0  0  0  0  0999 V2000
   47.1901   57.8072   26.3975 N   0  0  0  0  0  0  0  0  0  0  0  0
   46.7390   57.0101   27.5457 C   0  0  2  0  0  0  0  0  0  0  0  0
   45.4985   57.6406   28.1036 C   0  0  0  0  0  0  0  0  0  0  0  0
   45.5253   58.7973   28.4929 O   0  0  0  0  0  0  0  0  0  0  0  0
   47.8261   56.9745   28.6303 C   0  0  0  0  0  0  0  0  0  0  0  0
   48.8977   55.9675   28.2234 C   0  0  0  0  0  0  0  0  0  0  0  0
   50.1925   55.7367   29.4835 S   0  0  2  0  0  0  0  0  0  0  0  0
   50.8718   54.0835   29.1431 C   0  0  0  0  0  0  0  0  0  0  0  0
   49.4531   55.3936   31.1210 C   0  0  0  0  0  0  0  0  0  0  0  0
   48.8784   56.7294   31.5238 C   0  0  1  0  0  0  0  0  0  0  0  0
   47.6279   56.4120   32.0399 O   0  0  0  0  0  0  0  0  0  0  0  0
   49.4734   57.5545   32.6659 C   0  0  1  0  0  0  0  0  0  0  0  0
   50.4571   58.4472   32.2279 O   0  0  0  0  0  0  0  0  0  0  0  0
   48.1277   58.2633   33.1734 C   0  0  1  0  0  0  0  0  0  0  0  0
   47.4198   58.9927   32.1604 O   0  0  0  0  0  0  0  0  0  0  0  0
   47.5806   56.8808   33.4448 C   0  0  1  0  0  0  0  0  0  0  0  0
   44.4615   56.9979   28.1515 O   0  0  0  0  0  0  0  0  0  0  0  0
   45.9968   52.4598   35.2378 N   0  0  0  0  0  0  0  0  0  0  0  0
   47.2101   52.8755   34.8712 C   0  0  0  0  0  0  0  0  0  0  0  0
   47.4322   54.1246   34.4641 N   0  0  0  0  0  0  0  0  0  0  0  0
   46.4192   54.9832   34.2860 C   0  0  0  0  0  0  0  0  0  0  0  0
   45.0916   54.5534   34.6046 C   0  0  0  0  0  0  0  0  0  0  0  0
   44.9265   53.2328   35.1055 C   0  0  0  0  0  0  0  0  0  0  0  0
   43.6947   52.7516   35.4502 N   0  0  0  0  0  0  0  0  0  0  0  0
   44.2665   55.5843   34.3370 N   0  0  0  0  0  0  0  0  0  0  0  0
   44.9677   56.5986   33.8804 C   0  0  0  0  0  0  0  0  0  0  0  0
   46.3081   56.3029   33.8369 N   0  0  0  0  0  0  0  0  0  0  0  0
  2  1  1  6  0  0  0
  2  3  1  0  0  0  0
  2  5  1  0  0  0  0
  3  4  1  0  0  0  0
  3 17  1  0  0  0  0
  5  6  1  0  0  0  0
  7  6  1  6  0  0  0
  7  8  1  0  0  0  0
  7  9  1  0  0  0  0
 10  9  1  1  0  0  0
 10 11  1  0  0  0  0
 10 12  1  0  0  0  0
 11 16  1  0  0  0  0
 12 13  1  6  0  0  0
 12 14  1  0  0  0  0
 14 15  1  6  0  0  0
 14 16  1  0  0  0  0
 16 27  1  6  0  0  0
 18 19  2  0  0  0  0
 18 23  1  0  0  0  0
 19 20  1  0  0  0  0
 20 21  2  0  0  0  0
 21 22  1  0  0  0  0
 21 27  1  0  0  0  0
 22 23  2  0  0  0  0
 22 25  1  0  0  0  0
 23 24  1  0  0  0  0
 25 26  2  0  0  0  0
 26 27  1  0  0  0  0
M  END
>  <CHROM.1>
-58.48031935,-78.38937253,-175.83917982,156.11221976,-72.15440557,136.39962508
86.29380828,47.31304350,56.08848392,31.60556477,1.23149611,0.08717475,-1.10496951

>  <Name>
ligand

>  <RI>
0

>  <Rbt.Current_Directory>
/home/itssahil/PROJECTS/Mol_Feturizer/New_Systems/rnas/3IQN

>  <Rbt.Executable>
rbdock ($Id: //depot/dev/client3/rdock/2013.1/src/exe/rbdock.cxx#4 $)

>  <Rbt.Library>
libRbt.so (2013.1, Build901 2013/11/27)

>  <Rbt.Parameter_File>
/export/apps/rDock/src/rDock_2013.1_src/data/scripts/dock_solv.prm

>  <Rbt.Receptor>
prm/pocket_docking_7.prm

>  <SCORE>
-18.3409

>  <SCORE.INTER>
-15.9091

>  <SCORE.INTER.CONST>
1

>  <SCORE.INTER.POLAR>
0

>  <SCORE.INTER.ROT>
7

>  <SCORE.INTER.SOLV>
15.7623

>  <SCORE.INTER.VDW>
-24.1269

>  <SCORE.INTER.norm>
-0.589228

>  <SCORE.INTRA>
-2.43173

>  <SCORE.INTRA.DIHEDRAL>
-0.711608

>  <SCORE.INTRA.DIHEDRAL.0>
10.0365

>  <SCORE.INTRA.POLAR>
0

>  <SCORE.INTRA.POLAR.0>
0

>  <SCORE.INTRA.REPUL>
0

>  <SCORE.INTRA.REPUL.0>
0

>  <SCORE.INTRA.SOLV>
-0.416149

>  <SCORE.INTRA.SOLV.lig_0>
-48.6728

>  <SCORE.INTRA.VDW>
-1.86785

>  <SCORE.INTRA.VDW.0>
-1.10662

>  <SCORE.INTRA.norm>
-0.0900641

>  <SCORE.RESTR>
0

>  <SCORE.RESTR.CAVITY>
0

>  <SCORE.RESTR.norm>
0

>  <SCORE.SYSTEM>
0

>  <SCORE.SYSTEM.CONST>
0

>  <SCORE.SYSTEM.DIHEDRAL>
0

>  <SCORE.SYSTEM.SOLV>
0

>  <SCORE.SYSTEM.norm>
0

>  <SCORE.heavy>
27

>  <SCORE.norm>
-0.679292

>  <RMSD>
4.660

$$$$
ligand
 OpenBabel11021811483D
libRbt.so/2013.1/901 2013/11/27
 27 29  0  0  0  0  0  0  0  0999 V2000
   47.1491   55.3748   26.6013 N   0  0  0  0  0  0  0  0  0  0  0  0
   48.4347   55.8872   26.1094 C   0  0  2  0  0  0  0  0  0  0  0  0
   48.7041   55.2818   24.7646 C   0  0  0  0  0  0  0  0  0  0  0  0
   47.8994   54.5063   24.2734 O   0  0  0  0  0  0  0  0  0  0  0  0
   49.5657   55.5071   27.0767 C   0  0  0  0  0  0  0  0  0  0  0  0
   49.1960   55.9796   28.4797 C   0  0  0  0  0  0  0  0  0  0  0  0
   50.4211   55.5195   29.7465 S   0  0  2  0  0  0  0  0  0  0  0  0
   50.7554   53.7575   29.4402 C   0  0  0  0  0  0  0  0  0  0  0  0
   49.6315   55.3636   31.3891 C   0  0  0  0  0  0  0  0  0  0  0  0
   49.0031   56.7197   31.5970 C   0  0  1  0  0  0  0  0  0  0  0  0
   47.7312   56.4277   32.0741 O   0  0  0  0  0  0  0  0  0  0  0  0
   49.5087   57.6900   32.6656 C   0  0  1  0  0  0  0  0  0  0  0  0
   50.4967   58.5543   32.1823 O   0  0  0  0  0  0  0  0  0  0  0  0
   48.1190   58.4129   33.0072 C   0  0  1  0  0  0  0  0  0  0  0  0
   47.4574   58.9975   31.8758 O   0  0  0  0  0  0  0  0  0  0  0  0
   47.5880   57.0560   33.4085 C   0  0  1  0  0  0  0  0  0  0  0  0
   49.7216   55.5799   24.1592 O   0  0  0  0  0  0  0  0  0  0  0  0
   45.9430   52.6331   35.1407 N   0  0  0  0  0  0  0  0  0  0  0  0
   47.1621   53.0371   34.7801 C   0  0  0  0  0  0  0  0  0  0  0  0
   47.4014   54.2885   34.3901 N   0  0  0  0  0  0  0  0  0  0  0  0
   46.4004   55.1632   34.2235 C   0  0  0  0  0  0  0  0  0  0  0  0
   45.0669   54.7474   34.5359 C   0  0  0  0  0  0  0  0  0  0  0  0
   44.8834   53.4224   35.0187 C   0  0  0  0  0  0  0  0  0  0  0  0
   43.6450   52.9535   35.3564 N   0  0  0  0  0  0  0  0  0  0  0  0
   44.2560   55.7930   34.2821 N   0  0  0  0  0  0  0  0  0  0  0  0
   44.9713   56.8037   33.8396 C   0  0  0  0  0  0  0  0  0  0  0  0
   46.3075   56.4903   33.7924 N   0  0  0  0  0  0  0  0  0  0  0  0
  2  1  1  1  0  0  0
  2  3  1  0  0  0  0
  2  5  1  0  0  0  0
  3  4  1  0  0  0  0
  3 17  1  0  0  0  0
  5  6  1  0  0  0  0
  7  6  1  6  0  0  0
  7  8  1  0  0  0  0
  7  9  1  0  0  0  0
 10  9  1  1  0  0  0
 10 11  1  0  0  0  0
 10 12  1  0  0  0  0
 11 16  1  0  0  0  0
 12 13  1  6  0  0  0
 12 14  1  0  0  0  0
 14 15  1  6  0  0  0
 14 16  1  0  0  0  0
 16 27  1  6  0  0  0
 18 19  2  0  0  0  0
 18 23  1  0  0  0  0
 19 20  1  0  0  0  0
 20 21  2  0  0  0  0
 21 22  1  0  0  0  0
 21 27  1  0  0  0  0
 22 23  2  0  0  0  0
 22 25  1  0  0  0  0
 23 24  1  0  0  0  0
 25 26  2  0  0  0  0
 26 27  1  0  0  0  0
M  END
>  <CHROM.1>
0.16818785,-53.76289636,177.21126580,-47.54817009,-57.28087732,134.86816653
77.71126136,47.87701606,55.65587111,31.08143745,1.00351199,-0.80132432,-1.93708259

>  <Name>
ligand

>  <RI>
0

>  <Rbt.Current_Directory>
/home/itssahil/PROJECTS/Mol_Feturizer/New_Systems/rnas/3IQN

>  <Rbt.Executable>
rbdock ($Id: //depot/dev/client3/rdock/2013.1/src/exe/rbdock.cxx#4 $)

>  <Rbt.Library>
libRbt.so (2013.1, Build901 2013/11/27)

>  <Rbt.Parameter_File>
/export/apps/rDock/src/rDock_2013.1_src/data/scripts/dock_solv.prm

>  <Rbt.Receptor>
prm/pocket_docking_7.prm

>  <SCORE>
-17.9641

>  <SCORE.INTER>
-16.8195

>  <SCORE.INTER.CONST>
1

>  <SCORE.INTER.POLAR>
0

>  <SCORE.INTER.ROT>
7

>  <SCORE.INTER.SOLV>
10.5403

>  <SCORE.INTER.VDW>
-22.9931

>  <SCORE.INTER.norm>
-0.622945

>  <SCORE.INTRA>
-1.14454

>  <SCORE.INTRA.DIHEDRAL>
-1.30178

>  <SCORE.INTRA.DIHEDRAL.0>
10.0365

>  <SCORE.INTRA.POLAR>
0

>  <SCORE.INTRA.POLAR.0>
0

>  <SCORE.INTRA.REPUL>
0

>  <SCORE.INTRA.REPUL.0>
0

>  <SCORE.INTRA.SOLV>
-0.297826

>  <SCORE.INTRA.SOLV.lig_0>
-48.6728

>  <SCORE.INTRA.VDW>
-0.344735

>  <SCORE.INTRA.VDW.0>
-1.10662

>  <SCORE.INTRA.norm>
-0.0423903

>  <SCORE.RESTR>
0

>  <SCORE.RESTR.CAVITY>
0

>  <SCORE.RESTR.norm>
0

>  <SCORE.SYSTEM>
0

>  <SCORE.SYSTEM.CONST>
0

>  <SCORE.SYSTEM.DIHEDRAL>
0

>  <SCORE.SYSTEM.SOLV>
0

>  <SCORE.SYSTEM.norm>
0

>  <SCORE.heavy>
27

>  <SCORE.norm>
-0.665336

>  <RMSD>
4.669

$$$$
ligand
 OpenBabel11021811483D
libRbt.so/2013.1/901 2013/11/27
 27 29  0  0  0  0  0  0  0  0999 V2000
   46.7124   59.6872   30.6237 N   0  0  0  0  0  0  0  0  0  0  0  0
   47.7776   58.6787   30.5485 C   0  0  2  0  0  0  0  0  0  0  0  0
   47.9657   58.2929   29.1121 C   0  0  0  0  0  0  0  0  0  0  0  0
   49.0901   58.1145   28.6716 O   0  0  0  0  0  0  0  0  0  0  0  0
   47.3939   57.4358   31.3654 C   0  0  0  0  0  0  0  0  0  0  0  0
   47.2916   57.8239   32.8375 C   0  0  0  0  0  0  0  0  0  0  0  0
   48.8956   57.8260   33.7005 S   0  0  2  0  0  0  0  0  0  0  0  0
   50.0160   58.7202   32.5800 C   0  0  0  0  0  0  0  0  0  0  0  0
   49.6839   56.1777   33.6128 C   0  0  0  0  0  0  0  0  0  0  0  0
   48.7879   55.3233   34.4755 C   0  0  1  0  0  0  0  0  0  0  0  0
   47.6764   55.0919   33.6745 O   0  0  0  0  0  0  0  0  0  0  0  0
   49.1708   53.8979   34.8760 C   0  0  1  0  0  0  0  0  0  0  0  0
   49.8758   53.8501   36.0833 O   0  0  0  0  0  0  0  0  0  0  0  0
   47.6981   53.2691   34.9546 C   0  0  1  0  0  0  0  0  0  0  0  0
   46.8011   53.9606   35.8359 O   0  0  0  0  0  0  0  0  0  0  0  0
   47.5391   53.6274   33.4950 C   0  0  1  0  0  0  0  0  0  0  0  0
   46.9908   58.1433   28.3925 O   0  0  0  0  0  0  0  0  0  0  0  0
   42.6890   54.9435   33.3802 N   0  0  0  0  0  0  0  0  0  0  0  0
   43.5820   54.9648   34.3709 C   0  0  0  0  0  0  0  0  0  0  0  0
   44.8538   54.6169   34.1787 N   0  0  0  0  0  0  0  0  0  0  0  0
   45.2615   54.1096   33.0077 C   0  0  0  0  0  0  0  0  0  0  0  0
   44.3160   54.0072   31.9380 C   0  0  0  0  0  0  0  0  0  0  0  0
   42.9912   54.4638   32.1805 C   0  0  0  0  0  0  0  0  0  0  0  0
   42.0334   54.4174   31.2069 N   0  0  0  0  0  0  0  0  0  0  0  0
   44.9641   53.4694   30.8864 N   0  0  0  0  0  0  0  0  0  0  0  0
   46.2136   53.2303   31.2186 C   0  0  0  0  0  0  0  0  0  0  0  0
   46.4719   53.6157   32.5111 N   0  0  0  0  0  0  0  0  0  0  0  0
  2  1  1  6  0  0  0
  2  3  1  0  0  0  0
  2  5  1  0  0  0  0
  3  4  1  0  0  0  0
  3 17  1  0  0  0  0
  5  6  1  0  0  0  0
  7  6  1  6  0  0  0
  7  8  1  0  0  0  0
  7  9  1  0  0  0  0
 10  9  1  6  0  0  0
 10 11  1  0  0  0  0
 10 12  1  0  0  0  0
 11 16  1  0  0  0  0
 12 13  1  1  0  0  0
 12 14  1  0  0  0  0
 14 15  1  1  0  0  0
 14 16  1  0  0  0  0
 16 27  1  1  0  0  0
 18 19  2  0  0  0  0
 18 23  1  0  0  0  0
 19 20  1  0  0  0  0
 20 21  2  0  0  0  0
 21 22  1  0  0  0  0
 21 27  1  0  0  0  0
 22 23  2  0  0  0  0
 22 25  1  0  0  0  0
 23 24  1  0  0  0  0
 25 26  2  0  0  0  0
 26 27  1  0  0  0  0
M  END
>  <CHROM.1>
139.89310641,-64.27104513,-83.51548180,46.56434201,-68.51667481,76.46351047
-65.68182033,46.94357458,55.76864763,32.63755932,0.96652242,-0.44564717,-0.86157143

>  <Name>
ligand

>  <RI>
0

>  <Rbt.Current_Directory>
/home/itssahil/PROJECTS/Mol_Feturizer/New_Systems/rnas/3IQN

>  <Rbt.Executable>
rbdock ($Id: //depot/dev/client3/rdock/2013.1/src/exe/rbdock.cxx#4 $)

>  <Rbt.Library>
libRbt.so (2013.1, Build901 2013/11/27)

>  <Rbt.Parameter_File>
/export/apps/rDock/src/rDock_2013.1_src/data/scripts/dock_solv.prm

>  <Rbt.Receptor>
prm/pocket_docking_8.prm

>  <SCORE>
-19.4976

>  <SCORE.INTER>
-17.1877

>  <SCORE.INTER.CONST>
1

>  <SCORE.INTER.POLAR>
0

>  <SCORE.INTER.ROT>
7

>  <SCORE.INTER.SOLV>
12.6981

>  <SCORE.INTER.VDW>
-23.9578

>  <SCORE.INTER.norm>
-0.636581

>  <SCORE.INTRA>
-2.30987

>  <SCORE.INTRA.DIHEDRAL>
-4.04641

>  <SCORE.INTRA.DIHEDRAL.0>
10.0365

>  <SCORE.INTRA.POLAR>
0

>  <SCORE.INTRA.POLAR.0>
0

>  <SCORE.INTRA.REPUL>
0

>  <SCORE.INTRA.REPUL.0>
0

>  <SCORE.INTRA.SOLV>
0.885431

>  <SCORE.INTRA.SOLV.lig_0>
-48.6728

>  <SCORE.INTRA.VDW>
-0.729386

>  <SCORE.INTRA.VDW.0>
-1.10662

>  <SCORE.INTRA.norm>
-0.0855509

>  <SCORE.RESTR>
0

>  <SCORE.RESTR.CAVITY>
0

>  <SCORE.RESTR.norm>
0

>  <SCORE.SYSTEM>
0

>  <SCORE.SYSTEM.CONST>
0

>  <SCORE.SYSTEM.DIHEDRAL>
0

>  <SCORE.SYSTEM.SOLV>
0

>  <SCORE.SYSTEM.norm>
0

>  <SCORE.heavy>
27

>  <SCORE.norm>
-0.722132

>  <RMSD>
4.745

$$$$
ligand
 OpenBabel11021811483D
libRbt.so/2013.1/901 2013/11/27
 27 29  0  0  0  0  0  0  0  0999 V2000
   48.8180   52.2065   27.7707 N   0  0  0  0  0  0  0  0  0  0  0  0
   48.1481   53.3911   27.2183 C   0  0  2  0  0  0  0  0  0  0  0  0
   47.2831   52.9570   26.0735 C   0  0  0  0  0  0  0  0  0  0  0  0
   47.6038   51.9909   25.3998 O   0  0  0  0  0  0  0  0  0  0  0  0
   49.1866   54.4063   26.7178 C   0  0  0  0  0  0  0  0  0  0  0  0
   50.0177   54.8887   27.9031 C   0  0  0  0  0  0  0  0  0  0  0  0
   49.0475   55.7994   29.1468 S   0  0  2  0  0  0  0  0  0  0  0  0
   48.6629   57.3898   28.3512 C   0  0  0  0  0  0  0  0  0  0  0  0
   50.1267   56.4209   30.4865 C   0  0  0  0  0  0  0  0  0  0  0  0
   49.1633   57.1465   31.3934 C   0  0  1  0  0  0  0  0  0  0  0  0
   48.8175   56.1931   32.3431 O   0  0  0  0  0  0  0  0  0  0  0  0
   49.6090   58.3079   32.2831 C   0  0  1  0  0  0  0  0  0  0  0  0
   49.4807   59.5490   31.6507 O   0  0  0  0  0  0  0  0  0  0  0  0
   48.5851   58.0845   33.4965 C   0  0  1  0  0  0  0  0  0  0  0  0
   47.2020   58.0677   33.1139 O   0  0  0  0  0  0  0  0  0  0  0  0
   49.1999   56.7156   33.6760 C   0  0  1  0  0  0  0  0  0  0  0  0
   46.2519   53.5636   25.8296 O   0  0  0  0  0  0  0  0  0  0  0  0
   45.1382   54.0785   35.0239 N   0  0  0  0  0  0  0  0  0  0  0  0
   45.2620   55.1952   34.3048 C   0  0  0  0  0  0  0  0  0  0  0  0
   46.4536   55.7142   34.0116 N   0  0  0  0  0  0  0  0  0  0  0  0
   47.5766   55.2038   34.5343 C   0  0  0  0  0  0  0  0  0  0  0  0
   47.4801   54.0436   35.3671 C   0  0  0  0  0  0  0  0  0  0  0  0
   46.1879   53.4908   35.5835 C   0  0  0  0  0  0  0  0  0  0  0  0
   46.0115   52.3739   36.3510 N   0  0  0  0  0  0  0  0  0  0  0  0
   48.7302   53.7361   35.7646 N   0  0  0  0  0  0  0  0  0  0  0  0
   49.5768   54.6040   35.2557 C   0  0  0  0  0  0  0  0  0  0  0  0
   48.9348   55.5309   34.4717 N   0  0  0  0  0  0  0  0  0  0  0  0
  2  1  1  6  0  0  0
  2  3  1  0  0  0  0
  2  5  1  0  0  0  0
  3  4  1  0  0  0  0
  3 17  1  0  0  0  0
  5  6  1  0  0  0  0
  7  6  1  6  0  0  0
  7  8  1  0  0  0  0
  7  9  1  0  0  0  0
 10  9  1  6  0  0  0
 10 11  1  0  0  0  0
 10 12  1  0  0  0  0
 11 16  1  0  0  0  0
 12 13  1  6  0  0  0
 12 14  1  0  0  0  0
 14 15  1  6  0  0  0
 14 16  1  0  0  0  0
 16 27  1  1  0  0  0
 18 19  2  0  0  0  0
 18 23  1  0  0  0  0
 19 20  1  0  0  0  0
 20 21  2  0  0  0  0
 21 22  1  0  0  0  0
 21 27  1  0  0  0  0
 22 23  2  0  0  0  0
 22 25  1  0  0  0  0
 23 24  1  0  0  0  0
 25 26  2  0  0  0  0
 26 27  1  0  0  0  0
M  END
>  <CHROM.1>
-30.42707251,-63.34071374,-63.93751405,-71.72180699,179.39422313,94.02033248
-66.98669918,48.15064154,55.28379280,31.38065268,1.36674331,-1.07735258,-1.90591526

>  <Name>
ligand

>  <RI>
0

>  <Rbt.Current_Directory>
/home/itssahil/PROJECTS/Mol_Feturizer/New_Systems/rnas/3IQN

>  <Rbt.Executable>
rbdock ($Id: //depot/dev/client3/rdock/2013.1/src/exe/rbdock.cxx#4 $)

>  <Rbt.Library>
libRbt.so (2013.1, Build901 2013/11/27)

>  <Rbt.Parameter_File>
/export/apps/rDock/src/rDock_2013.1_src/data/scripts/dock_solv.prm

>  <Rbt.Receptor>
prm/pocket_docking_6.prm

>  <SCORE>
-14.7529

>  <SCORE.INTER>
-12.3515

>  <SCORE.INTER.CONST>
1

>  <SCORE.INTER.POLAR>
0

>  <SCORE.INTER.ROT>
7

>  <SCORE.INTER.SOLV>
13.3644

>  <SCORE.INTER.VDW>
-20.9558

>  <SCORE.INTER.norm>
-0.457463

>  <SCORE.INTRA>
-2.40142

>  <SCORE.INTRA.DIHEDRAL>
-3.6247

>  <SCORE.INTRA.DIHEDRAL.0>
10.0365

>  <SCORE.INTRA.POLAR>
0

>  <SCORE.INTRA.POLAR.0>
0

>  <SCORE.INTRA.REPUL>
0

>  <SCORE.INTRA.REPUL.0>
0

>  <SCORE.INTRA.SOLV>
0.452417

>  <SCORE.INTRA.SOLV.lig_0>
-48.6728

>  <SCORE.INTRA.VDW>
-0.815281

>  <SCORE.INTRA.VDW.0>
-1.10662

>  <SCORE.INTRA.norm>
-0.0889415

>  <SCORE.RESTR>
0

>  <SCORE.RESTR.CAVITY>
0

>  <SCORE.RESTR.norm>
0

>  <SCORE.SYSTEM>
0

>  <SCORE.SYSTEM.CONST>
0

>  <SCORE.SYSTEM.DIHEDRAL>
0

>  <SCORE.SYSTEM.SOLV>
0

>  <SCORE.SYSTEM.norm>
0

>  <SCORE.heavy>
27

>  <SCORE.norm>
-0.546404

>  <RMSD>
4.751

$$$$
ligand
 OpenBabel11021811483D
libRbt.so/2013.1/901 2013/11/27
 27 29  0  0  0  0  0  0  0  0999 V2000
   47.1269   55.1700   28.5787 N   0  0  0  0  0  0  0  0  0  0  0  0
   47.1493   56.2670   27.6022 C   0  0  2  0  0  0  0  0  0  0  0  0
   47.9165   55.8141   26.3966 C   0  0  0  0  0  0  0  0  0  0  0  0
   47.5019   56.0729   25.2780 O   0  0  0  0  0  0  0  0  0  0  0  0
   47.8301   57.5046   28.2058 C   0  0  0  0  0  0  0  0  0  0  0  0
   46.8421   58.2114   29.1292 C   0  0  0  0  0  0  0  0  0  0  0  0
   46.5377   57.3176   30.6867 S   0  0  2  0  0  0  0  0  0  0  0  0
   44.8576   56.6432   30.5056 C   0  0  0  0  0  0  0  0  0  0  0  0
   46.2139   58.4871   32.0555 C   0  0  0  0  0  0  0  0  0  0  0  0
   47.5832   58.7047   32.6510 C   0  0  1  0  0  0  0  0  0  0  0  0
   47.7118   57.6752   33.5752 O   0  0  0  0  0  0  0  0  0  0  0  0
   48.8601   58.5297   31.8277 C   0  0  1  0  0  0  0  0  0  0  0  0
   49.2687   59.7170   31.2111 O   0  0  0  0  0  0  0  0  0  0  0  0
   49.8339   58.0349   33.0014 C   0  0  1  0  0  0  0  0  0  0  0  0
   49.9150   58.9255   34.1238 O   0  0  0  0  0  0  0  0  0  0  0  0
   48.8950   56.8669   33.1977 C   0  0  1  0  0  0  0  0  0  0  0  0
   48.9626   55.2009   26.5396 O   0  0  0  0  0  0  0  0  0  0  0  0
   45.1732   53.8209   34.6599 N   0  0  0  0  0  0  0  0  0  0  0  0
   45.1911   54.8307   33.7886 C   0  0  0  0  0  0  0  0  0  0  0  0
   46.3122   55.4900   33.4993 N   0  0  0  0  0  0  0  0  0  0  0  0
   47.4479   55.2472   34.1672 C   0  0  0  0  0  0  0  0  0  0  0  0
   47.4533   54.2153   35.1591 C   0  0  0  0  0  0  0  0  0  0  0  0
   46.2451   53.4958   35.3712 C   0  0  0  0  0  0  0  0  0  0  0  0
   46.1711   52.4840   36.2869 N   0  0  0  0  0  0  0  0  0  0  0  0
   48.6947   54.1738   35.6810 N   0  0  0  0  0  0  0  0  0  0  0  0
   49.4429   55.0875   35.1029 C   0  0  0  0  0  0  0  0  0  0  0  0
   48.7414   55.7784   34.1456 N   0  0  0  0  0  0  0  0  0  0  0  0
  2  1  1  1  0  0  0
  2  3  1  0  0  0  0
  2  5  1  0  0  0  0
  3  4  1  0  0  0  0
  3 17  1  0  0  0  0
  5  6  1  0  0  0  0
  7  6  1  6  0  0  0
  7  8  1  0  0  0  0
  7  9  1  0  0  0  0
 10  9  1  6  0  0  0
 10 11  1  0  0  0  0
 10 12  1  0  0  0  0
 11 16  1  0  0  0  0
 12 13  1  1  0  0  0
 12 14  1  0  0  0  0
 14 15  1  1  0  0  0
 14 16  1  0  0  0  0
 16 27  1  1  0  0  0
 18 19  2  0  0  0  0
 18 23  1  0  0  0  0
 19 20  1  0  0  0  0
 20 21  2  0  0  0  0
 21 22  1  0  0  0  0
 21 27  1  0  0  0  0
 22 23  2  0  0  0  0
 22 25  1  0  0  0  0
 23 24  1  0  0  0  0
 25 26  2  0  0  0  0
 26 27  1  0  0  0  0
M  END
>  <CHROM.1>
137.31865188,-78.37891931,72.39452999,-107.42940979,-92.16098509,-87.16967531
48.86714620,47.52232030,56.39646512,31.79475439,1.50339927,-1.03723912,-1.38707225

>  <Name>
ligand

>  <RI>
0

>  <Rbt.Current_Directory>
/home/itssahil/PROJECTS/Mol_Feturizer/New_Systems/rnas/3IQN

>  <Rbt.Executable>
rbdock ($Id: //depot/dev/client3/rdock/2013.1/src/exe/rbdock.cxx#4 $)

>  <Rbt.Library>
libRbt.so (2013.1, Build901 2013/11/27)

>  <Rbt.Parameter_File>
/export/apps/rDock/src/rDock_2013.1_src/data/scripts/dock_solv.prm

>  <Rbt.Receptor>
prm/pocket_docking_5.prm

>  <SCORE>
-13.0533

>  <SCORE.INTER>
-14.5632

>  <SCORE.INTER.CONST>
1

>  <SCORE.INTER.POLAR>
0

>  <SCORE.INTER.ROT>
7

>  <SCORE.INTER.SOLV>
13.7475

>  <SCORE.INTER.VDW>
-22.5579

>  <SCORE.INTER.norm>
-0.539376

>  <SCORE.INTRA>
1.50984

>  <SCORE.INTRA.DIHEDRAL>
2.18669

>  <SCORE.INTRA.DIHEDRAL.0>
10.0365

>  <SCORE.INTRA.POLAR>
0

>  <SCORE.INTRA.POLAR.0>
0

>  <SCORE.INTRA.REPUL>
0

>  <SCORE.INTRA.REPUL.0>
0

>  <SCORE.INTRA.SOLV>
2.18073

>  <SCORE.INTRA.SOLV.lig_0>
-48.6728

>  <SCORE.INTRA.VDW>
-0.673874

>  <SCORE.INTRA.VDW.0>
-1.10662

>  <SCORE.INTRA.norm>
0.05592

>  <SCORE.RESTR>
0

>  <SCORE.RESTR.CAVITY>
0

>  <SCORE.RESTR.norm>
0

>  <SCORE.SYSTEM>
0

>  <SCORE.SYSTEM.CONST>
0

>  <SCORE.SYSTEM.DIHEDRAL>
0

>  <SCORE.SYSTEM.SOLV>
0

>  <SCORE.SYSTEM.norm>
0

>  <SCORE.heavy>
27

>  <SCORE.norm>
-0.483456

>  <RMSD>
4.762

$$$$
ligand
 OpenBabel11021811483D
libRbt.so/2013.1/901 2013/11/27
 27 29  0  0  0  0  0  0  0  0999 V2000
   46.3184   57.6353   27.9146 N   0  0  0  0  0  0  0  0  0  0  0  0
   47.6614   57.6688   27.3209 C   0  0  2  0  0  0  0  0  0  0  0  0
   47.8161   56.4745   26.4282 C   0  0  0  0  0  0  0  0  0  0  0  0
   46.8545   55.7592   26.1956 O   0  0  0  0  0  0  0  0  0  0  0  0
   48.7322   57.6262   28.4214 C   0  0  0  0  0  0  0  0  0  0  0  0
   48.5774   56.3303   29.2119 C   0  0  0  0  0  0  0  0  0  0  0  0
   49.8345   56.1195   30.5129 S   0  0  2  0  0  0  0  0  0  0  0  0
   49.5490   54.4417   31.1564 C   0  0  0  0  0  0  0  0  0  0  0  0
   49.3839   57.0649   32.0126 C   0  0  0  0  0  0  0  0  0  0  0  0
   48.1951   57.8772   31.5609 C   0  0  1  0  0  0  0  0  0  0  0  0
   47.1099   57.0458   31.8096 O   0  0  0  0  0  0  0  0  0  0  0  0
   47.7663   59.1544   32.2848 C   0  0  1  0  0  0  0  0  0  0  0  0
   48.3707   60.3000   31.7564 O   0  0  0  0  0  0  0  0  0  0  0  0
   46.1888   59.0638   32.0127 C   0  0  1  0  0  0  0  0  0  0  0  0
   45.8278   58.9633   30.6274 O   0  0  0  0  0  0  0  0  0  0  0  0
   46.2043   57.7452   32.7512 C   0  0  1  0  0  0  0  0  0  0  0  0
   48.9014   56.2313   25.9246 O   0  0  0  0  0  0  0  0  0  0  0  0
   42.8517   55.1137   30.0859 N   0  0  0  0  0  0  0  0  0  0  0  0
   43.6466   56.1281   29.7417 C   0  0  0  0  0  0  0  0  0  0  0  0
   44.5164   56.6619   30.5984 N   0  0  0  0  0  0  0  0  0  0  0  0
   44.5407   56.2835   31.8833 C   0  0  0  0  0  0  0  0  0  0  0  0
   43.6550   55.2428   32.3089 C   0  0  0  0  0  0  0  0  0  0  0  0
   42.8017   54.6601   31.3319 C   0  0  0  0  0  0  0  0  0  0  0  0
   41.9394   53.6494   31.6523 N   0  0  0  0  0  0  0  0  0  0  0  0
   43.8685   55.0548   33.6259 N   0  0  0  0  0  0  0  0  0  0  0  0
   44.7972   55.8874   34.0416 C   0  0  0  0  0  0  0  0  0  0  0  0
   45.2690   56.6668   33.0140 N   0  0  0  0  0  0  0  0  0  0  0  0
  2  1  1  1  0  0  0
  2  3  1  0  0  0  0
  2  5  1  0  0  0  0
  3  4  1  0  0  0  0
  3 17  1  0  0  0  0
  5  6  1  0  0  0  0
  7  6  1  6  0  0  0
  7  8  1  0  0  0  0
  7  9  1  0  0  0  0
 10  9  1  1  0  0  0
 10 11  1  0  0  0  0
 10 12  1  0  0  0  0
 11 16  1  0  0  0  0
 12 13  1  6  0  0  0
 12 14  1  0  0  0  0
 14 15  1  6  0  0  0
 14 16  1  0  0  0  0
 16 27  1  6  0  0  0
 18 19  2  0  0  0  0
 18 23  1  0  0  0  0
 19 20  1  0  0  0  0
 20 21  2  0  0  0  0
 21 22  1  0  0  0  0
 21 27  1  0  0  0  0
 22 23  2  0  0  0  0
 22 25  1  0  0  0  0
 23 24  1  0  0  0  0
 25 26  2  0  0  0  0
 26 27  1  0  0  0  0
M  END
>  <CHROM.1>
7.61920725,60.70489179,177.66576866,-173.57565179,-8.33627077,88.51696107
-64.77218446,46.58197570,56.69792432,30.54435283,0.52093679,-0.43256653,-1.84069855

>  <Name>
ligand

>  <RI>
0

>  <Rbt.Current_Directory>
/home/itssahil/PROJECTS/Mol_Feturizer/New_Systems/rnas/3IQN

>  <Rbt.Executable>
rbdock ($Id: //depot/dev/client3/rdock/2013.1/src/exe/rbdock.cxx#4 $)

>  <Rbt.Library>
libRbt.so (2013.1, Build901 2013/11/27)

>  <Rbt.Parameter_File>
/export/apps/rDock/src/rDock_2013.1_src/data/scripts/dock_solv.prm

>  <Rbt.Receptor>
prm/pocket_docking_7.prm

>  <SCORE>
-15.5693

>  <SCORE.INTER>
-17.0257

>  <SCORE.INTER.CONST>
1

>  <SCORE.INTER.POLAR>
0

>  <SCORE.INTER.ROT>
7

>  <SCORE.INTER.SOLV>
10.2559

>  <SCORE.INTER.VDW>
-23.0357

>  <SCORE.INTER.norm>
-0.63058

>  <SCORE.INTRA>
1.44803

>  <SCORE.INTRA.DIHEDRAL>
0.529794

>  <SCORE.INTRA.DIHEDRAL.0>
10.0365

>  <SCORE.INTRA.POLAR>
0

>  <SCORE.INTRA.POLAR.0>
0

>  <SCORE.INTRA.REPUL>
0

>  <SCORE.INTRA.REPUL.0>
0

>  <SCORE.INTRA.SOLV>
2.42692

>  <SCORE.INTRA.SOLV.lig_0>
-48.6728

>  <SCORE.INTRA.VDW>
-0.0303234

>  <SCORE.INTRA.VDW.0>
-1.10662

>  <SCORE.INTRA.norm>
0.0536309

>  <SCORE.RESTR>
0.00834605

>  <SCORE.RESTR.CAVITY>
0.00834605

>  <SCORE.RESTR.norm>
0.000309113

>  <SCORE.SYSTEM>
0

>  <SCORE.SYSTEM.CONST>
0

>  <SCORE.SYSTEM.DIHEDRAL>
0

>  <SCORE.SYSTEM.SOLV>
0

>  <SCORE.SYSTEM.norm>
0

>  <SCORE.heavy>
27

>  <SCORE.norm>
-0.57664

>  <RMSD>
4.778

$$$$
ligand
 OpenBabel11021811483D
libRbt.so/2013.1/901 2013/11/27
 27 29  0  0  0  0  0  0  0  0999 V2000
   45.1957   53.8499   29.7756 N   0  0  0  0  0  0  0  0  0  0  0  0
   46.2019   53.1669   28.9519 C   0  0  2  0  0  0  0  0  0  0  0  0
   45.4914   52.3306   27.9306 C   0  0  0  0  0  0  0  0  0  0  0  0
   46.0738   51.9840   26.9152 O   0  0  0  0  0  0  0  0  0  0  0  0
   47.0843   52.2642   29.8272 C   0  0  0  0  0  0  0  0  0  0  0  0
   47.8694   53.1362   30.8027 C   0  0  0  0  0  0  0  0  0  0  0  0
   48.9944   54.3106   29.9826 S   0  0  2  0  0  0  0  0  0  0  0  0
   50.2737   53.2632   29.2232 C   0  0  0  0  0  0  0  0  0  0  0  0
   50.0428   55.1721   31.2091 C   0  0  0  0  0  0  0  0  0  0  0  0
   49.0971   56.1746   31.8237 C   0  0  1  0  0  0  0  0  0  0  0  0
   48.2480   55.3977   32.6022 O   0  0  0  0  0  0  0  0  0  0  0  0
   49.5699   57.2137   32.8416 C   0  0  1  0  0  0  0  0  0  0  0  0
   49.9715   58.4110   32.2399 O   0  0  0  0  0  0  0  0  0  0  0  0
   48.2220   57.3350   33.7012 C   0  0  1  0  0  0  0  0  0  0  0  0
   47.0560   57.6748   32.9367 O   0  0  0  0  0  0  0  0  0  0  0  0
   48.3617   55.8611   34.0051 C   0  0  1  0  0  0  0  0  0  0  0  0
   44.3365   51.9865   28.1268 O   0  0  0  0  0  0  0  0  0  0  0  0
   43.4696   54.8007   34.4650 N   0  0  0  0  0  0  0  0  0  0  0  0
   44.0964   55.8142   33.8654 C   0  0  0  0  0  0  0  0  0  0  0  0
   45.4258   55.8852   33.8111 N   0  0  0  0  0  0  0  0  0  0  0  0
   46.1918   55.0035   34.4673 C   0  0  0  0  0  0  0  0  0  0  0  0
   45.5548   53.9379   35.1797 C   0  0  0  0  0  0  0  0  0  0  0  0
   44.1349   53.8718   35.1396 C   0  0  0  0  0  0  0  0  0  0  0  0
   43.4508   52.8759   35.7782 N   0  0  0  0  0  0  0  0  0  0  0  0
   46.5302   53.2034   35.7494 N   0  0  0  0  0  0  0  0  0  0  0  0
   47.7001   53.7260   35.4543 C   0  0  0  0  0  0  0  0  0  0  0  0
   47.5675   54.8325   34.6517 N   0  0  0  0  0  0  0  0  0  0  0  0
  2  1  1  1  0  0  0
  2  3  1  0  0  0  0
  2  5  1  0  0  0  0
  3  4  1  0  0  0  0
  3 17  1  0  0  0  0
  5  6  1  0  0  0  0
  7  6  1  1  0  0  0
  7  8  1  0  0  0  0
  7  9  1  0  0  0  0
 10  9  1  1  0  0  0
 10 11  1  0  0  0  0
 10 12  1  0  0  0  0
 11 16  1  0  0  0  0
 12 13  1  6  0  0  0
 12 14  1  0  0  0  0
 14 15  1  6  0  0  0
 14 16  1  0  0  0  0
 16 27  1  1  0  0  0
 18 19  2  0  0  0  0
 18 23  1  0  0  0  0
 19 20  1  0  0  0  0
 20 21  2  0  0  0  0
 21 22  1  0  0  0  0
 21 27  1  0  0  0  0
 22 23  2  0  0  0  0
 22 25  1  0  0  0  0
 23 24  1  0  0  0  0
 25 26  2  0  0  0  0
 26 27  1  0  0  0  0
M  END
>  <CHROM.1>
158.96404186,-64.33286483,-61.82062017,-67.90167232,-75.83146913,71.99013354
-75.70525170,47.03333879,54.56756089,32.07541518,1.44755440,-0.54360824,-2.00932314

>  <Name>
ligand

>  <RI>
0

>  <Rbt.Current_Directory>
/home/itssahil/PROJECTS/Mol_Feturizer/New_Systems/rnas/3IQN

>  <Rbt.Executable>
rbdock ($Id: //depot/dev/client3/rdock/2013.1/src/exe/rbdock.cxx#4 $)

>  <Rbt.Library>
libRbt.so (2013.1, Build901 2013/11/27)

>  <Rbt.Parameter_File>
/export/apps/rDock/src/rDock_2013.1_src/data/scripts/dock_solv.prm

>  <Rbt.Receptor>
prm/pocket_docking_6.prm

>  <SCORE>
-18.0545

>  <SCORE.INTER>
-14.037

>  <SCORE.INTER.CONST>
1

>  <SCORE.INTER.POLAR>
0

>  <SCORE.INTER.ROT>
7

>  <SCORE.INTER.SOLV>
8.60187

>  <SCORE.INTER.VDW>
-20.4919

>  <SCORE.INTER.norm>
-0.519887

>  <SCORE.INTRA>
-4.01756

>  <SCORE.INTRA.DIHEDRAL>
-6.04566

>  <SCORE.INTRA.DIHEDRAL.0>
10.0365

>  <SCORE.INTRA.POLAR>
0

>  <SCORE.INTRA.POLAR.0>
0

>  <SCORE.INTRA.REPUL>
0

>  <SCORE.INTRA.REPUL.0>
0

>  <SCORE.INTRA.SOLV>
0.511111

>  <SCORE.INTRA.SOLV.lig_0>
-48.6728

>  <SCORE.INTRA.VDW>
-1.25029

>  <SCORE.INTRA.VDW.0>
-1.10662

>  <SCORE.INTRA.norm>
-0.148799

>  <SCORE.RESTR>
0

>  <SCORE.RESTR.CAVITY>
0

>  <SCORE.RESTR.norm>
0

>  <SCORE.SYSTEM>
0

>  <SCORE.SYSTEM.CONST>
0

>  <SCORE.SYSTEM.DIHEDRAL>
0

>  <SCORE.SYSTEM.SOLV>
0

>  <SCORE.SYSTEM.norm>
0

>  <SCORE.heavy>
27

>  <SCORE.norm>
-0.668686

>  <RMSD>
4.785

$$$$
ligand
 OpenBabel11021811483D
libRbt.so/2013.1/901 2013/11/27
 27 29  0  0  0  0  0  0  0  0999 V2000
   45.3759   52.2054   28.1142 N   0  0  0  0  0  0  0  0  0  0  0  0
   46.1877   52.7687   29.2009 C   0  0  2  0  0  0  0  0  0  0  0  0
   45.2882   53.5525   30.1086 C   0  0  0  0  0  0  0  0  0  0  0  0
   44.3872   54.2285   29.6381 O   0  0  0  0  0  0  0  0  0  0  0  0
   47.2720   53.6956   28.6313 C   0  0  0  0  0  0  0  0  0  0  0  0
   48.1277   54.2203   29.7806 C   0  0  0  0  0  0  0  0  0  0  0  0
   49.3641   55.4526   29.2608 S   0  0  2  0  0  0  0  0  0  0  0  0
   50.7503   54.4655   28.6170 C   0  0  0  0  0  0  0  0  0  0  0  0
   50.2037   56.1841   30.7120 C   0  0  0  0  0  0  0  0  0  0  0  0
   49.1168   57.0086   31.3568 C   0  0  1  0  0  0  0  0  0  0  0  0
   48.4258   56.0934   32.1414 O   0  0  0  0  0  0  0  0  0  0  0  0
   49.4302   58.1028   32.3783 C   0  0  1  0  0  0  0  0  0  0  0  0
   49.6134   59.3559   31.7841 O   0  0  0  0  0  0  0  0  0  0  0  0
   48.0990   57.9890   33.2648 C   0  0  1  0  0  0  0  0  0  0  0  0
   46.8771   58.1357   32.5267 O   0  0  0  0  0  0  0  0  0  0  0  0
   48.4895   56.5566   33.5476 C   0  0  1  0  0  0  0  0  0  0  0  0
   45.4515   53.4983   31.3174 O   0  0  0  0  0  0  0  0  0  0  0  0
   43.8279   54.9298   34.4920 N   0  0  0  0  0  0  0  0  0  0  0  0
   44.2677   56.0457   33.9084 C   0  0  0  0  0  0  0  0  0  0  0  0
   45.5655   56.2677   33.7037 N   0  0  0  0  0  0  0  0  0  0  0  0
   46.4938   55.4331   34.1901 C   0  0  0  0  0  0  0  0  0  0  0  0
   46.0635   54.2565   34.8823 C   0  0  0  0  0  0  0  0  0  0  0  0
   44.6640   54.0360   35.0046 C   0  0  0  0  0  0  0  0  0  0  0  0
   44.1708   52.9284   35.6351 N   0  0  0  0  0  0  0  0  0  0  0  0
   47.1725   53.5973   35.2705 N   0  0  0  0  0  0  0  0  0  0  0  0
   48.2366   54.2658   34.8837 C   0  0  0  0  0  0  0  0  0  0  0  0
   47.8920   55.4037   34.1963 N   0  0  0  0  0  0  0  0  0  0  0  0
  2  1  1  6  0  0  0
  2  3  1  0  0  0  0
  2  5  1  0  0  0  0
  3  4  1  0  0  0  0
  3 17  1  0  0  0  0
  5  6  1  0  0  0  0
  7  6  1  1  0  0  0
  7  8  1  0  0  0  0
  7  9  1  0  0  0  0
 10  9  1  1  0  0  0
 10 11  1  0  0  0  0
 10 12  1  0  0  0  0
 11 16  1  0  0  0  0
 12 13  1  6  0  0  0
 12 14  1  0  0  0  0
 14 15  1  6  0  0  0
 14 16  1  0  0  0  0
 16 27  1  1  0  0  0
 18 19  2  0  0  0  0
 18 23  1  0  0  0  0
 19 20  1  0  0  0  0
 20 21  2  0  0  0  0
 21 22  1  0  0  0  0
 21 27  1  0  0  0  0
 22 23  2  0  0  0  0
 22 25  1  0  0  0  0
 23 24  1  0  0  0  0
 25 26  2  0  0  0  0
 26 27  1  0  0  0  0
M  END
>  <CHROM.1>
-38.99602757,-177.88415064,-174.84169251,-81.85069633,-69.28667695,84.04923490
-83.50389604,47.20299626,55.24894227,31.95849667,0.69334809,-0.68018110,-2.03505411

>  <Name>
ligand

>  <RI>
0

>  <Rbt.Current_Directory>
/home/itssahil/PROJECTS/Mol_Feturizer/New_Systems/rnas/3IQN

>  <Rbt.Executable>
rbdock ($Id: //depot/dev/client3/rdock/2013.1/src/exe/rbdock.cxx#4 $)

>  <Rbt.Library>
libRbt.so (2013.1, Build901 2013/11/27)

>  <Rbt.Parameter_File>
/export/apps/rDock/src/rDock_2013.1_src/data/scripts/dock_solv.prm

>  <Rbt.Receptor>
prm/pocket_docking_6.prm

>  <SCORE>
-15.0212

>  <SCORE.INTER>
-10.5275

>  <SCORE.INTER.CONST>
1

>  <SCORE.INTER.POLAR>
0

>  <SCORE.INTER.ROT>
7

>  <SCORE.INTER.SOLV>
12.1946

>  <SCORE.INTER.VDW>
-19.3498

>  <SCORE.INTER.norm>
-0.389907

>  <SCORE.INTRA>
-4.49376

>  <SCORE.INTRA.DIHEDRAL>
-4.33258

>  <SCORE.INTRA.DIHEDRAL.0>
10.0365

>  <SCORE.INTRA.POLAR>
0

>  <SCORE.INTRA.POLAR.0>
0

>  <SCORE.INTRA.REPUL>
0

>  <SCORE.INTRA.REPUL.0>
0

>  <SCORE.INTRA.SOLV>
-0.858091

>  <SCORE.INTRA.SOLV.lig_0>
-48.6728

>  <SCORE.INTRA.VDW>
-1.89843

>  <SCORE.INTRA.VDW.0>
-1.10662

>  <SCORE.INTRA.norm>
-0.166436

>  <SCORE.RESTR>
0

>  <SCORE.RESTR.CAVITY>
0

>  <SCORE.RESTR.norm>
0

>  <SCORE.SYSTEM>
0

>  <SCORE.SYSTEM.CONST>
0

>  <SCORE.SYSTEM.DIHEDRAL>
0

>  <SCORE.SYSTEM.SOLV>
0

>  <SCORE.SYSTEM.norm>
0

>  <SCORE.heavy>
27

>  <SCORE.norm>
-0.556343

>  <RMSD>
4.804

$$$$
ligand
 OpenBabel11021811483D
libRbt.so/2013.1/901 2013/11/27
 27 29  0  0  0  0  0  0  0  0999 V2000
   49.8670   53.3869   25.8442 N   0  0  0  0  0  0  0  0  0  0  0  0
   49.0945   54.4986   25.2745 C   0  0  2  0  0  0  0  0  0  0  0  0
   49.8605   55.0651   24.1170 C   0  0  0  0  0  0  0  0  0  0  0  0
   51.0771   54.9698   24.0865 O   0  0  0  0  0  0  0  0  0  0  0  0
   48.8786   55.5939   26.3294 C   0  0  0  0  0  0  0  0  0  0  0  0
   47.9694   55.0503   27.4276 C   0  0  0  0  0  0  0  0  0  0  0  0
   47.4735   56.3083   28.6479 S   0  0  2  0  0  0  0  0  0  0  0  0
   46.9763   57.7443   27.6474 C   0  0  0  0  0  0  0  0  0  0  0  0
   48.9398   57.0396   29.4611 C   0  0  0  0  0  0  0  0  0  0  0  0
   48.3482   57.7675   30.6431 C   0  0  1  0  0  0  0  0  0  0  0  0
   47.9209   56.7465   31.4831 O   0  0  0  0  0  0  0  0  0  0  0  0
   49.2101   58.5980   31.5953 C   0  0  1  0  0  0  0  0  0  0  0  0
   49.3084   59.9367   31.2015 O   0  0  0  0  0  0  0  0  0  0  0  0
   48.3645   58.3731   32.9389 C   0  0  1  0  0  0  0  0  0  0  0  0
   46.9816   58.7439   32.8418 O   0  0  0  0  0  0  0  0  0  0  0  0
   48.6270   56.8935   32.7775 C   0  0  1  0  0  0  0  0  0  0  0  0
   49.2614   55.6064   23.2011 O   0  0  0  0  0  0  0  0  0  0  0  0
   44.3061   55.0663   34.5830 N   0  0  0  0  0  0  0  0  0  0  0  0
   44.6013   56.2481   34.0391 C   0  0  0  0  0  0  0  0  0  0  0  0
   45.8173   56.5210   33.5677 N   0  0  0  0  0  0  0  0  0  0  0  0
   46.8314   55.6615   33.7344 C   0  0  0  0  0  0  0  0  0  0  0  0
   46.5704   54.4082   34.3745 C   0  0  0  0  0  0  0  0  0  0  0  0
   45.2364   54.1430   34.7897 C   0  0  0  0  0  0  0  0  0  0  0  0
   44.9000   52.9633   35.3920 N   0  0  0  0  0  0  0  0  0  0  0  0
   47.7379   53.7377   34.4238 N   0  0  0  0  0  0  0  0  0  0  0  0
   48.6852   54.4684   33.8784 C   0  0  0  0  0  0  0  0  0  0  0  0
   48.1933   55.6645   33.4165 N   0  0  0  0  0  0  0  0  0  0  0  0
  2  1  1  1  0  0  0
  2  3  1  0  0  0  0
  2  5  1  0  0  0  0
  3  4  1  0  0  0  0
  3 17  1  0  0  0  0
  5  6  1  0  0  0  0
  7  6  1  6  0  0  0
  7  8  1  0  0  0  0
  7  9  1  0  0  0  0
 10  9  1  6  0  0  0
 10 11  1  0  0  0  0
 10 12  1  0  0  0  0
 11 16  1  0  0  0  0
 12 13  1  6  0  0  0
 12 14  1  0  0  0  0
 14 15  1  6  0  0  0
 14 16  1  0  0  0  0
 16 27  1  1  0  0  0
 18 19  2  0  0  0  0
 18 23  1  0  0  0  0
 19 20  1  0  0  0  0
 20 21  2  0  0  0  0
 21 22  1  0  0  0  0
 21 27  1  0  0  0  0
 22 23  2  0  0  0  0
 22 25  1  0  0  0  0
 23 24  1  0  0  0  0
 25 26  2  0  0  0  0
 26 27  1  0  0  0  0
M  END
>  <CHROM.1>
-27.10398710,-66.90596283,-173.32560379,46.23439827,-166.21808720,69.83439312
-68.83343262,47.84079719,56.03612666,30.44541261,0.67982443,-1.14550110,-2.43425090

>  <Name>
ligand

>  <RI>
0

>  <Rbt.Current_Directory>
/home/itssahil/PROJECTS/Mol_Feturizer/New_Systems/rnas/3IQN

>  <Rbt.Executable>
rbdock ($Id: //depot/dev/client3/rdock/2013.1/src/exe/rbdock.cxx#4 $)

>  <Rbt.Library>
libRbt.so (2013.1, Build901 2013/11/27)

>  <Rbt.Parameter_File>
/export/apps/rDock/src/rDock_2013.1_src/data/scripts/dock_solv.prm

>  <Rbt.Receptor>
prm/pocket_docking_5.prm

>  <SCORE>
-15.1804

>  <SCORE.INTER>
-12.2666

>  <SCORE.INTER.CONST>
1

>  <SCORE.INTER.POLAR>
0

>  <SCORE.INTER.ROT>
7

>  <SCORE.INTER.SOLV>
10.6901

>  <SCORE.INTER.VDW>
-20.0078

>  <SCORE.INTER.norm>
-0.454318

>  <SCORE.INTRA>
-2.91379

>  <SCORE.INTRA.DIHEDRAL>
-5.04561

>  <SCORE.INTRA.DIHEDRAL.0>
10.0365

>  <SCORE.INTRA.POLAR>
0

>  <SCORE.INTRA.POLAR.0>
0

>  <SCORE.INTRA.REPUL>
0

>  <SCORE.INTRA.REPUL.0>
0

>  <SCORE.INTRA.SOLV>
-0.234294

>  <SCORE.INTRA.SOLV.lig_0>
-48.6728

>  <SCORE.INTRA.VDW>
-0.273834

>  <SCORE.INTRA.VDW.0>
-1.10662

>  <SCORE.INTRA.norm>
-0.107918

>  <SCORE.RESTR>
0

>  <SCORE.RESTR.CAVITY>
0

>  <SCORE.RESTR.norm>
0

>  <SCORE.SYSTEM>
0

>  <SCORE.SYSTEM.CONST>
0

>  <SCORE.SYSTEM.DIHEDRAL>
0

>  <SCORE.SYSTEM.SOLV>
0

>  <SCORE.SYSTEM.norm>
0

>  <SCORE.heavy>
27

>  <SCORE.norm>
-0.562236

>  <RMSD>
4.809

$$$$
ligand
 OpenBabel11021811483D
libRbt.so/2013.1/901 2013/11/27
 27 29  0  0  0  0  0  0  0  0999 V2000
   49.4233   51.5815   28.7157 N   0  0  0  0  0  0  0  0  0  0  0  0
   48.8175   52.5828   27.8282 C   0  0  2  0  0  0  0  0  0  0  0  0
   48.1813   51.8703   26.6727 C   0  0  0  0  0  0  0  0  0  0  0  0
   47.0068   52.0694   26.4062 O   0  0  0  0  0  0  0  0  0  0  0  0
   49.8899   53.5497   27.3044 C   0  0  0  0  0  0  0  0  0  0  0  0
   50.5062   54.2919   28.4866 C   0  0  0  0  0  0  0  0  0  0  0  0
   49.3321   55.3850   29.3490 S   0  0  2  0  0  0  0  0  0  0  0  0
   49.0663   56.7688   28.1980 C   0  0  0  0  0  0  0  0  0  0  0  0
   50.1660   56.3060   30.6915 C   0  0  0  0  0  0  0  0  0  0  0  0
   49.0456   57.1126   31.3006 C   0  0  1  0  0  0  0  0  0  0  0  0
   48.3854   56.2023   32.1168 O   0  0  0  0  0  0  0  0  0  0  0  0
   49.3125   58.2556   32.2811 C   0  0  1  0  0  0  0  0  0  0  0  0
   49.4517   59.4914   31.6405 O   0  0  0  0  0  0  0  0  0  0  0  0
   47.9821   58.1252   33.1663 C   0  0  1  0  0  0  0  0  0  0  0  0
   46.7593   58.1979   32.4187 O   0  0  0  0  0  0  0  0  0  0  0  0
   48.4245   56.7202   33.5046 C   0  0  1  0  0  0  0  0  0  0  0  0
   48.8465   51.1047   25.9928 O   0  0  0  0  0  0  0  0  0  0  0  0
   43.8244   54.9165   34.4290 N   0  0  0  0  0  0  0  0  0  0  0  0
   44.2244   56.0244   33.8028 C   0  0  0  0  0  0  0  0  0  0  0  0
   45.5146   56.2988   33.6145 N   0  0  0  0  0  0  0  0  0  0  0  0
   46.4699   55.5329   34.1582 C   0  0  0  0  0  0  0  0  0  0  0  0
   46.0798   54.3700   34.8959 C   0  0  0  0  0  0  0  0  0  0  0  0
   44.6898   54.0883   34.9998 C   0  0  0  0  0  0  0  0  0  0  0  0
   44.2351   52.9883   35.6713 N   0  0  0  0  0  0  0  0  0  0  0  0
   47.2096   53.7832   35.3370 N   0  0  0  0  0  0  0  0  0  0  0  0
   48.2495   54.4836   34.9411 C   0  0  0  0  0  0  0  0  0  0  0  0
   47.8674   55.5709   34.1943 N   0  0  0  0  0  0  0  0  0  0  0  0
  2  1  1  1  0  0  0
  2  3  1  0  0  0  0
  2  5  1  0  0  0  0
  3  4  1  0  0  0  0
  3 17  1  0  0  0  0
  5  6  1  0  0  0  0
  7  6  1  6  0  0  0
  7  8  1  0  0  0  0
  7  9  1  0  0  0  0
 10  9  1  1  0  0  0
 10 11  1  0  0  0  0
 10 12  1  0  0  0  0
 11 16  1  0  0  0  0
 12 13  1  6  0  0  0
 12 14  1  0  0  0  0
 14 15  1  6  0  0  0
 14 16  1  0  0  0  0
 16 27  1  1  0  0  0
 18 19  2  0  0  0  0
 18 23  1  0  0  0  0
 19 20  1  0  0  0  0
 20 21  2  0  0  0  0
 21 22  1  0  0  0  0
 21 27  1  0  0  0  0
 22 23  2  0  0  0  0
 22 25  1  0  0  0  0
 23 24  1  0  0  0  0
 25 26  2  0  0  0  0
 26 27  1  0  0  0  0
M  END
>  <CHROM.1>
125.89028543,-62.05746925,-65.28520604,-71.67033038,-178.54084254,79.65829362
-82.26981286,47.85710132,55.12767765,31.34888312,0.97125237,-0.87990860,-2.41169087

>  <Name>
ligand

>  <RI>
0

>  <Rbt.Current_Directory>
/home/itssahil/PROJECTS/Mol_Feturizer/New_Systems/rnas/3IQN

>  <Rbt.Executable>
rbdock ($Id: //depot/dev/client3/rdock/2013.1/src/exe/rbdock.cxx#4 $)

>  <Rbt.Library>
libRbt.so (2013.1, Build901 2013/11/27)

>  <Rbt.Parameter_File>
/export/apps/rDock/src/rDock_2013.1_src/data/scripts/dock_solv.prm

>  <Rbt.Receptor>
prm/pocket_docking_7.prm

>  <SCORE>
-16.0566

>  <SCORE.INTER>
-12.8257

>  <SCORE.INTER.CONST>
1

>  <SCORE.INTER.POLAR>
0

>  <SCORE.INTER.ROT>
7

>  <SCORE.INTER.SOLV>
12.9591

>  <SCORE.INTER.VDW>
-21.1368

>  <SCORE.INTER.norm>
-0.475024

>  <SCORE.INTRA>
-3.23094

>  <SCORE.INTRA.DIHEDRAL>
-5.35201

>  <SCORE.INTRA.DIHEDRAL.0>
10.0365

>  <SCORE.INTRA.POLAR>
0

>  <SCORE.INTRA.POLAR.0>
0

>  <SCORE.INTRA.REPUL>
0

>  <SCORE.INTRA.REPUL.0>
0

>  <SCORE.INTRA.SOLV>
0.418569

>  <SCORE.INTRA.SOLV.lig_0>
-48.6728

>  <SCORE.INTRA.VDW>
-0.764219

>  <SCORE.INTRA.VDW.0>
-1.10662

>  <SCORE.INTRA.norm>
-0.119664

>  <SCORE.RESTR>
0

>  <SCORE.RESTR.CAVITY>
0

>  <SCORE.RESTR.norm>
0

>  <SCORE.SYSTEM>
0

>  <SCORE.SYSTEM.CONST>
0

>  <SCORE.SYSTEM.DIHEDRAL>
0

>  <SCORE.SYSTEM.SOLV>
0

>  <SCORE.SYSTEM.norm>
0

>  <SCORE.heavy>
27

>  <SCORE.norm>
-0.594689

>  <RMSD>
4.817

$$$$
ligand
 OpenBabel11021811483D
libRbt.so/2013.1/901 2013/11/27
 27 29  0  0  0  0  0  0  0  0999 V2000
   45.3564   54.6382   28.9703 N   0  0  0  0  0  0  0  0  0  0  0  0
   46.3038   54.0059   28.0429 C   0  0  2  0  0  0  0  0  0  0  0  0
   46.1346   52.5190   28.1316 C   0  0  0  0  0  0  0  0  0  0  0  0
   46.1626   51.8411   27.1167 O   0  0  0  0  0  0  0  0  0  0  0  0
   47.7461   54.3792   28.4171 C   0  0  0  0  0  0  0  0  0  0  0  0
   47.9676   55.8588   28.1172 C   0  0  0  0  0  0  0  0  0  0  0  0
   49.6214   56.4558   28.5926 S   0  0  2  0  0  0  0  0  0  0  0  0
   50.7736   55.3928   27.6691 C   0  0  0  0  0  0  0  0  0  0  0  0
   50.0482   55.9109   30.2857 C   0  0  0  0  0  0  0  0  0  0  0  0
   49.0892   56.6933   31.1491 C   0  0  1  0  0  0  0  0  0  0  0  0
   48.8248   55.8384   32.2121 O   0  0  0  0  0  0  0  0  0  0  0  0
   49.5163   57.9639   31.8854 C   0  0  1  0  0  0  0  0  0  0  0  0
   49.3069   59.1204   31.1269 O   0  0  0  0  0  0  0  0  0  0  0  0
   48.5523   57.8356   33.1601 C   0  0  1  0  0  0  0  0  0  0  0  0
   47.1574   57.7198   32.8431 O   0  0  0  0  0  0  0  0  0  0  0  0
   49.2353   56.5215   33.4613 C   0  0  1  0  0  0  0  0  0  0  0  0
   45.9849   51.9905   29.2220 O   0  0  0  0  0  0  0  0  0  0  0  0
   45.3461   53.9531   35.3444 N   0  0  0  0  0  0  0  0  0  0  0  0
   45.3914   54.9889   34.5050 C   0  0  0  0  0  0  0  0  0  0  0  0
   46.5463   55.5002   34.0809 N   0  0  0  0  0  0  0  0  0  0  0  0
   47.7146   55.0741   34.5793 C   0  0  0  0  0  0  0  0  0  0  0  0
   47.7050   54.0080   35.5343 C   0  0  0  0  0  0  0  0  0  0  0  0
   46.4459   53.4525   35.8925 C   0  0  0  0  0  0  0  0  0  0  0  0
   46.3512   52.4205   36.7834 N   0  0  0  0  0  0  0  0  0  0  0  0
   48.9862   53.7730   35.8787 N   0  0  0  0  0  0  0  0  0  0  0  0
   49.7731   54.6002   35.2266 C   0  0  0  0  0  0  0  0  0  0  0  0
   49.0560   55.4231   34.3932 N   0  0  0  0  0  0  0  0  0  0  0  0
  2  1  1  1  0  0  0
  2  3  1  0  0  0  0
  2  5  1  0  0  0  0
  3  4  1  0  0  0  0
  3 17  1  0  0  0  0
  5  6  1  0  0  0  0
  7  6  1  6  0  0  0
  7  8  1  0  0  0  0
  7  9  1  0  0  0  0
 10  9  1  6  0  0  0
 10 11  1  0  0  0  0
 10 12  1  0  0  0  0
 11 16  1  0  0  0  0
 12 13  1  6  0  0  0
 12 14  1  0  0  0  0
 14 15  1  6  0  0  0
 14 16  1  0  0  0  0
 16 27  1  1  0  0  0
 18 19  2  0  0  0  0
 18 23  1  0  0  0  0
 19 20  1  0  0  0  0
 20 21  2  0  0  0  0
 21 22  1  0  0  0  0
 21 27  1  0  0  0  0
 22 23  2  0  0  0  0
 22 25  1  0  0  0  0
 23 24  1  0  0  0  0
 25 26  2  0  0  0  0
 26 27  1  0  0  0  0
M  END
>  <CHROM.1>
139.03032976,-69.39399228,177.18461100,57.66533465,-68.16985338,146.96148555
-68.64196462,47.91126478,55.18651494,31.68803405,1.44592534,-0.90237544,-1.64767808

>  <Name>
ligand

>  <RI>
0

>  <Rbt.Current_Directory>
/home/itssahil/PROJECTS/Mol_Feturizer/New_Systems/rnas/3IQN

>  <Rbt.Executable>
rbdock ($Id: //depot/dev/client3/rdock/2013.1/src/exe/rbdock.cxx#4 $)

>  <Rbt.Library>
libRbt.so (2013.1, Build901 2013/11/27)

>  <Rbt.Parameter_File>
/export/apps/rDock/src/rDock_2013.1_src/data/scripts/dock_solv.prm

>  <Rbt.Receptor>
prm/pocket_docking_5.prm

>  <SCORE>
-16.5599

>  <SCORE.INTER>
-13.4347

>  <SCORE.INTER.CONST>
1

>  <SCORE.INTER.POLAR>
0

>  <SCORE.INTER.ROT>
7

>  <SCORE.INTER.SOLV>
12.1073

>  <SCORE.INTER.VDW>
-21.2589

>  <SCORE.INTER.norm>
-0.49758

>  <SCORE.INTRA>
-3.12527

>  <SCORE.INTRA.DIHEDRAL>
-3.64226

>  <SCORE.INTRA.DIHEDRAL.0>
10.0365

>  <SCORE.INTRA.POLAR>
0

>  <SCORE.INTRA.POLAR.0>
0

>  <SCORE.INTRA.REPUL>
0

>  <SCORE.INTRA.REPUL.0>
0

>  <SCORE.INTRA.SOLV>
-0.190031

>  <SCORE.INTRA.SOLV.lig_0>
-48.6728

>  <SCORE.INTRA.VDW>
-1.20913

>  <SCORE.INTRA.VDW.0>
-1.10662

>  <SCORE.INTRA.norm>
-0.115751

>  <SCORE.RESTR>
0

>  <SCORE.RESTR.CAVITY>
0

>  <SCORE.RESTR.norm>
0

>  <SCORE.SYSTEM>
0

>  <SCORE.SYSTEM.CONST>
0

>  <SCORE.SYSTEM.DIHEDRAL>
0

>  <SCORE.SYSTEM.SOLV>
0

>  <SCORE.SYSTEM.norm>
0

>  <SCORE.heavy>
27

>  <SCORE.norm>
-0.613331

>  <RMSD>
4.819

$$$$
ligand
 OpenBabel11021811483D
libRbt.so/2013.1/901 2013/11/27
 27 29  0  0  0  0  0  0  0  0999 V2000
   47.9505   54.3215   25.9396 N   0  0  0  0  0  0  0  0  0  0  0  0
   48.9395   55.3944   25.7712 C   0  0  2  0  0  0  0  0  0  0  0  0
   49.6192   55.2103   24.4477 C   0  0  0  0  0  0  0  0  0  0  0  0
   50.7413   54.7320   24.4005 O   0  0  0  0  0  0  0  0  0  0  0  0
   49.9851   55.3371   26.8949 C   0  0  0  0  0  0  0  0  0  0  0  0
   49.2927   55.6018   28.2286 C   0  0  0  0  0  0  0  0  0  0  0  0
   50.3613   55.3028   29.6729 S   0  0  2  0  0  0  0  0  0  0  0  0
   50.9332   53.5874   29.4707 C   0  0  0  0  0  0  0  0  0  0  0  0
   49.3605   55.0777   31.1874 C   0  0  0  0  0  0  0  0  0  0  0  0
   48.7614   56.4450   31.4082 C   0  0  1  0  0  0  0  0  0  0  0  0
   47.5211   56.1775   31.9746 O   0  0  0  0  0  0  0  0  0  0  0  0
   49.3470   57.4306   32.4204 C   0  0  1  0  0  0  0  0  0  0  0  0
   50.3095   58.2734   31.8547 O   0  0  0  0  0  0  0  0  0  0  0  0
   47.9906   58.1764   32.8383 C   0  0  1  0  0  0  0  0  0  0  0  0
   47.2612   58.7458   31.7413 O   0  0  0  0  0  0  0  0  0  0  0  0
   47.4735   56.8342   33.3022 C   0  0  1  0  0  0  0  0  0  0  0  0
   49.0398   55.5259   23.4203 O   0  0  0  0  0  0  0  0  0  0  0  0
   45.9203   52.4976   35.3148 N   0  0  0  0  0  0  0  0  0  0  0  0
   47.1178   52.8802   34.8688 C   0  0  0  0  0  0  0  0  0  0  0  0
   47.3372   54.1125   34.4120 N   0  0  0  0  0  0  0  0  0  0  0  0
   46.3301   54.9836   34.2643 C   0  0  0  0  0  0  0  0  0  0  0  0
   45.0156   54.5877   34.6691 C   0  0  0  0  0  0  0  0  0  0  0  0
   44.8571   53.2857   35.2186 C   0  0  0  0  0  0  0  0  0  0  0  0
   43.6388   52.8372   35.6457 N   0  0  0  0  0  0  0  0  0  0  0  0
   44.1938   55.6250   34.4163 N   0  0  0  0  0  0  0  0  0  0  0  0
   44.8849   56.6124   33.8907 C   0  0  0  0  0  0  0  0  0  0  0  0
   46.2157   56.2913   33.7819 N   0  0  0  0  0  0  0  0  0  0  0  0
  2  1  1  1  0  0  0
  2  3  1  0  0  0  0
  2  5  1  0  0  0  0
  3  4  1  0  0  0  0
  3 17  1  0  0  0  0
  5  6  1  0  0  0  0
  7  6  1  6  0  0  0
  7  8  1  0  0  0  0
  7  9  1  0  0  0  0
 10  9  1  1  0  0  0
 10 11  1  0  0  0  0
 10 12  1  0  0  0  0
 11 16  1  0  0  0  0
 12 13  1  6  0  0  0
 12 14  1  0  0  0  0
 14 15  1  6  0  0  0
 14 16  1  0  0  0  0
 16 27  1  6  0  0  0
 18 19  2  0  0  0  0
 18 23  1  0  0  0  0
 19 20  1  0  0  0  0
 20 21  2  0  0  0  0
 21 22  1  0  0  0  0
 21 27  1  0  0  0  0
 22 23  2  0  0  0  0
 22 25  1  0  0  0  0
 23 24  1  0  0  0  0
 25 26  2  0  0  0  0
 26 27  1  0  0  0  0
M  END
>  <CHROM.1>
-102.58224217,-63.81016704,170.79389870,-55.46356698,-67.63037236,147.24608367
79.20664204,47.98672195,55.43311447,30.97491325,0.76653299,-0.94421762,-2.21347961

>  <Name>
ligand

>  <RI>
0

>  <Rbt.Current_Directory>
/home/itssahil/PROJECTS/Mol_Feturizer/New_Systems/rnas/3IQN

>  <Rbt.Executable>
rbdock ($Id: //depot/dev/client3/rdock/2013.1/src/exe/rbdock.cxx#4 $)

>  <Rbt.Library>
libRbt.so (2013.1, Build901 2013/11/27)

>  <Rbt.Parameter_File>
/export/apps/rDock/src/rDock_2013.1_src/data/scripts/dock_solv.prm

>  <Rbt.Receptor>
prm/pocket_docking_7.prm

>  <SCORE>
-18.7386

>  <SCORE.INTER>
-16.5731

>  <SCORE.INTER.CONST>
1

>  <SCORE.INTER.POLAR>
0

>  <SCORE.INTER.ROT>
7

>  <SCORE.INTER.SOLV>
8.19206

>  <SCORE.INTER.VDW>
-22.0461

>  <SCORE.INTER.norm>
-0.613819

>  <SCORE.INTRA>
-2.1655

>  <SCORE.INTRA.DIHEDRAL>
-3.45779

>  <SCORE.INTRA.DIHEDRAL.0>
10.0365

>  <SCORE.INTRA.POLAR>
0

>  <SCORE.INTRA.POLAR.0>
0

>  <SCORE.INTRA.REPUL>
0

>  <SCORE.INTRA.REPUL.0>
0

>  <SCORE.INTRA.SOLV>
-0.314503

>  <SCORE.INTRA.SOLV.lig_0>
-48.6728

>  <SCORE.INTRA.VDW>
-0.279354

>  <SCORE.INTRA.VDW.0>
-1.10662

>  <SCORE.INTRA.norm>
-0.0802038

>  <SCORE.RESTR>
0

>  <SCORE.RESTR.CAVITY>
0

>  <SCORE.RESTR.norm>
0

>  <SCORE.SYSTEM>
0

>  <SCORE.SYSTEM.CONST>
0

>  <SCORE.SYSTEM.DIHEDRAL>
0

>  <SCORE.SYSTEM.SOLV>
0

>  <SCORE.SYSTEM.norm>
0

>  <SCORE.heavy>
27

>  <SCORE.norm>
-0.694023

>  <RMSD>
4.834

$$$$
ligand
 OpenBabel11021811483D
libRbt.so/2013.1/901 2013/11/27
 27 29  0  0  0  0  0  0  0  0999 V2000
   47.5731   52.6965   27.5780 N   0  0  0  0  0  0  0  0  0  0  0  0
   47.6293   54.1600   27.4677 C   0  0  2  0  0  0  0  0  0  0  0  0
   46.5303   54.6098   26.5526 C   0  0  0  0  0  0  0  0  0  0  0  0
   46.0365   55.7175   26.6921 O   0  0  0  0  0  0  0  0  0  0  0  0
   48.9843   54.6001   26.8936 C   0  0  0  0  0  0  0  0  0  0  0  0
   49.0980   56.1178   27.0023 C   0  0  0  0  0  0  0  0  0  0  0  0
   49.3330   56.7074   28.7095 S   0  0  2  0  0  0  0  0  0  0  0  0
   50.5489   55.5591   29.4261 C   0  0  0  0  0  0  0  0  0  0  0  0
   47.8970   56.2672   29.7535 C   0  0  0  0  0  0  0  0  0  0  0  0
   47.9654   57.2767   30.8730 C   0  0  1  0  0  0  0  0  0  0  0  0
   46.8648   56.9715   31.6643 O   0  0  0  0  0  0  0  0  0  0  0  0
   49.0917   57.2617   31.9076 C   0  0  1  0  0  0  0  0  0  0  0  0
   50.1799   58.0548   31.5286 O   0  0  0  0  0  0  0  0  0  0  0  0
   48.2714   57.8343   33.1606 C   0  0  1  0  0  0  0  0  0  0  0  0
   47.6347   59.0993   32.9282 O   0  0  0  0  0  0  0  0  0  0  0  0
   47.3558   56.6398   33.0225 C   0  0  1  0  0  0  0  0  0  0  0  0
   46.1444   53.8708   25.6606 O   0  0  0  0  0  0  0  0  0  0  0  0
   45.7173   52.4601   35.2839 N   0  0  0  0  0  0  0  0  0  0  0  0
   46.8968   52.7586   34.7370 C   0  0  0  0  0  0  0  0  0  0  0  0
   47.1503   53.9626   34.2258 N   0  0  0  0  0  0  0  0  0  0  0  0
   46.1862   54.8876   34.1266 C   0  0  0  0  0  0  0  0  0  0  0  0
   44.8863   54.5816   34.6418 C   0  0  0  0  0  0  0  0  0  0  0  0
   44.6965   53.3069   35.2429 C   0  0  0  0  0  0  0  0  0  0  0  0
   43.4912   52.9435   35.7746 N   0  0  0  0  0  0  0  0  0  0  0  0
   44.1080   55.6585   34.4185 N   0  0  0  0  0  0  0  0  0  0  0  0
   44.8118   56.5883   33.8111 C   0  0  0  0  0  0  0  0  0  0  0  0
   46.1097   56.1859   33.6126 N   0  0  0  0  0  0  0  0  0  0  0  0
  2  1  1  6  0  0  0
  2  3  1  0  0  0  0
  2  5  1  0  0  0  0
  3  4  1  0  0  0  0
  3 17  1  0  0  0  0
  5  6  1  0  0  0  0
  7  6  1  6  0  0  0
  7  8  1  0  0  0  0
  7  9  1  0  0  0  0
 10  9  1  6  0  0  0
 10 11  1  0  0  0  0
 10 12  1  0  0  0  0
 11 16  1  0  0  0  0
 12 13  1  6  0  0  0
 12 14  1  0  0  0  0
 14 15  1  6  0  0  0
 14 16  1  0  0  0  0
 16 27  1  1  0  0  0
 18 19  2  0  0  0  0
 18 23  1  0  0  0  0
 19 20  1  0  0  0  0
 20 21  2  0  0  0  0
 21 22  1  0  0  0  0
 21 27  1  0  0  0  0
 22 23  2  0  0  0  0
 22 25  1  0  0  0  0
 23 24  1  0  0  0  0
 25 26  2  0  0  0  0
 26 27  1  0  0  0  0
M  END
>  <CHROM.1>
151.44726238,-170.94054870,71.67358706,42.94061480,-156.87924681,178.94553603
123.46134661,47.23307915,55.54364147,31.13335087,0.99482896,-0.87561695,-1.92863485

>  <Name>
ligand

>  <RI>
0

>  <Rbt.Current_Directory>
/home/itssahil/PROJECTS/Mol_Feturizer/New_Systems/rnas/3IQN

>  <Rbt.Executable>
rbdock ($Id: //depot/dev/client3/rdock/2013.1/src/exe/rbdock.cxx#4 $)

>  <Rbt.Library>
libRbt.so (2013.1, Build901 2013/11/27)

>  <Rbt.Parameter_File>
/export/apps/rDock/src/rDock_2013.1_src/data/scripts/dock_solv.prm

>  <Rbt.Receptor>
prm/pocket_docking_7.prm

>  <SCORE>
-14.0941

>  <SCORE.INTER>
-11.3413

>  <SCORE.INTER.CONST>
1

>  <SCORE.INTER.POLAR>
0

>  <SCORE.INTER.ROT>
7

>  <SCORE.INTER.SOLV>
9.10109

>  <SCORE.INTER.VDW>
-18.8612

>  <SCORE.INTER.norm>
-0.420049

>  <SCORE.INTRA>
-2.7528

>  <SCORE.INTRA.DIHEDRAL>
-3.77882

>  <SCORE.INTRA.DIHEDRAL.0>
10.0365

>  <SCORE.INTRA.POLAR>
0

>  <SCORE.INTRA.POLAR.0>
0

>  <SCORE.INTRA.REPUL>
0

>  <SCORE.INTRA.REPUL.0>
0

>  <SCORE.INTRA.SOLV>
-0.139586

>  <SCORE.INTRA.SOLV.lig_0>
-48.6728

>  <SCORE.INTRA.VDW>
-0.793591

>  <SCORE.INTRA.VDW.0>
-1.10662

>  <SCORE.INTRA.norm>
-0.101955

>  <SCORE.RESTR>
0

>  <SCORE.RESTR.CAVITY>
0

>  <SCORE.RESTR.norm>
0

>  <SCORE.SYSTEM>
0

>  <SCORE.SYSTEM.CONST>
0

>  <SCORE.SYSTEM.DIHEDRAL>
0

>  <SCORE.SYSTEM.SOLV>
0

>  <SCORE.SYSTEM.norm>
0

>  <SCORE.heavy>
27

>  <SCORE.norm>
-0.522004

>  <RMSD>
4.848

$$$$
ligand
 OpenBabel11021811483D
libRbt.so/2013.1/901 2013/11/27
 27 29  0  0  0  0  0  0  0  0999 V2000
   47.2324   56.5309   27.0675 N   0  0  0  0  0  0  0  0  0  0  0  0
   48.6629   56.2992   26.8282 C   0  0  2  0  0  0  0  0  0  0  0  0
   48.8037   55.3311   25.6922 C   0  0  0  0  0  0  0  0  0  0  0  0
   47.9514   54.4761   25.5112 O   0  0  0  0  0  0  0  0  0  0  0  0
   49.3257   55.7132   28.0839 C   0  0  0  0  0  0  0  0  0  0  0  0
   49.2046   56.7212   29.2230 C   0  0  0  0  0  0  0  0  0  0  0  0
   49.8197   56.0915   30.8176 S   0  0  2  0  0  0  0  0  0  0  0  0
   48.6821   54.7368   31.2432 C   0  0  0  0  0  0  0  0  0  0  0  0
   49.3953   57.2387   32.1776 C   0  0  0  0  0  0  0  0  0  0  0  0
   48.1942   57.9773   31.6402 C   0  0  1  0  0  0  0  0  0  0  0  0
   47.1337   57.1151   31.8905 O   0  0  0  0  0  0  0  0  0  0  0  0
   47.6868   59.2702   32.2806 C   0  0  1  0  0  0  0  0  0  0  0  0
   48.2658   60.4121   31.7169 O   0  0  0  0  0  0  0  0  0  0  0  0
   46.1262   59.1007   31.9545 C   0  0  1  0  0  0  0  0  0  0  0  0
   45.8246   58.9161   30.5636 O   0  0  0  0  0  0  0  0  0  0  0  0
   46.1645   57.8225   32.7600 C   0  0  1  0  0  0  0  0  0  0  0  0
   49.7641   55.4126   24.9427 O   0  0  0  0  0  0  0  0  0  0  0  0
   42.8913   55.0441   30.1455 N   0  0  0  0  0  0  0  0  0  0  0  0
   43.6545   56.0763   29.7827 C   0  0  0  0  0  0  0  0  0  0  0  0
   44.5084   56.6511   30.6287 N   0  0  0  0  0  0  0  0  0  0  0  0
   44.5456   56.2958   31.9199 C   0  0  0  0  0  0  0  0  0  0  0  0
   43.6926   55.2360   32.3647 C   0  0  0  0  0  0  0  0  0  0  0  0
   42.8565   54.6107   31.3992 C   0  0  0  0  0  0  0  0  0  0  0  0
   42.0259   53.5798   31.7383 N   0  0  0  0  0  0  0  0  0  0  0  0
   43.9130   55.0773   33.6844 N   0  0  0  0  0  0  0  0  0  0  0  0
   44.8163   55.9450   34.0843 C   0  0  0  0  0  0  0  0  0  0  0  0
   45.2629   56.7207   33.0428 N   0  0  0  0  0  0  0  0  0  0  0  0
  2  1  1  1  0  0  0
  2  3  1  0  0  0  0
  2  5  1  0  0  0  0
  3  4  1  0  0  0  0
  3 17  1  0  0  0  0
  5  6  1  0  0  0  0
  7  6  1  6  0  0  0
  7  8  1  0  0  0  0
  7  9  1  0  0  0  0
 10  9  1  1  0  0  0
 10 11  1  0  0  0  0
 10 12  1  0  0  0  0
 11 16  1  0  0  0  0
 12 13  1  6  0  0  0
 12 14  1  0  0  0  0
 14 15  1  6  0  0  0
 14 16  1  0  0  0  0
 16 27  1  6  0  0  0
 18 19  2  0  0  0  0
 18 23  1  0  0  0  0
 19 20  1  0  0  0  0
 20 21  2  0  0  0  0
 21 22  1  0  0  0  0
 21 27  1  0  0  0  0
 22 23  2  0  0  0  0
 22 25  1  0  0  0  0
 23 24  1  0  0  0  0
 25 26  2  0  0  0  0
 26 27  1  0  0  0  0
M  END
>  <CHROM.1>
-31.14985998,-62.06589523,174.82322269,-65.53671335,24.15790935,81.93969865
-67.81787999,46.76842645,56.46462340,30.44602746,0.71580938,-0.44653654,-2.07435349

>  <Name>
ligand

>  <RI>
0

>  <Rbt.Current_Directory>
/home/itssahil/PROJECTS/Mol_Feturizer/New_Systems/rnas/3IQN

>  <Rbt.Executable>
rbdock ($Id: //depot/dev/client3/rdock/2013.1/src/exe/rbdock.cxx#4 $)

>  <Rbt.Library>
libRbt.so (2013.1, Build901 2013/11/27)

>  <Rbt.Parameter_File>
/export/apps/rDock/src/rDock_2013.1_src/data/scripts/dock_solv.prm

>  <Rbt.Receptor>
prm/pocket_docking_7.prm

>  <SCORE>
-16.529

>  <SCORE.INTER>
-15.0169

>  <SCORE.INTER.CONST>
1

>  <SCORE.INTER.POLAR>
0

>  <SCORE.INTER.ROT>
7

>  <SCORE.INTER.SOLV>
8.82611

>  <SCORE.INTER.VDW>
-21.22

>  <SCORE.INTER.norm>
-0.556183

>  <SCORE.INTRA>
-1.53612

>  <SCORE.INTRA.DIHEDRAL>
-2.93084

>  <SCORE.INTRA.DIHEDRAL.0>
10.0365

>  <SCORE.INTRA.POLAR>
0

>  <SCORE.INTRA.POLAR.0>
0

>  <SCORE.INTRA.REPUL>
0

>  <SCORE.INTRA.REPUL.0>
0

>  <SCORE.INTRA.SOLV>
0.0368878

>  <SCORE.INTRA.SOLV.lig_0>
-48.6728

>  <SCORE.INTRA.VDW>
-0.0891392

>  <SCORE.INTRA.VDW.0>
-1.10662

>  <SCORE.INTRA.norm>
-0.0568932

>  <SCORE.RESTR>
0.0240227

>  <SCORE.RESTR.CAVITY>
0.0240227

>  <SCORE.RESTR.norm>
0.000889731

>  <SCORE.SYSTEM>
0

>  <SCORE.SYSTEM.CONST>
0

>  <SCORE.SYSTEM.DIHEDRAL>
0

>  <SCORE.SYSTEM.SOLV>
0

>  <SCORE.SYSTEM.norm>
0

>  <SCORE.heavy>
27

>  <SCORE.norm>
-0.612186

>  <RMSD>
4.858

$$$$
ligand
 OpenBabel11021811483D
libRbt.so/2013.1/901 2013/11/27
 27 29  0  0  0  0  0  0  0  0999 V2000
   49.5258   52.4241   26.8871 N   0  0  0  0  0  0  0  0  0  0  0  0
   49.2745   53.6876   27.5926 C   0  0  2  0  0  0  0  0  0  0  0  0
   47.7971   53.8267   27.8062 C   0  0  0  0  0  0  0  0  0  0  0  0
   47.0627   54.0495   26.8569 O   0  0  0  0  0  0  0  0  0  0  0  0
   49.7843   54.8738   26.7604 C   0  0  0  0  0  0  0  0  0  0  0  0
   49.8832   56.1025   27.6598 C   0  0  0  0  0  0  0  0  0  0  0  0
   48.2647   56.7304   28.2110 S   0  0  2  0  0  0  0  0  0  0  0  0
   47.4533   57.3025   26.6863 C   0  0  0  0  0  0  0  0  0  0  0  0
   48.4442   58.3481   29.0455 C   0  0  0  0  0  0  0  0  0  0  0  0
   47.3169   58.3429   30.0486 C   0  0  1  0  0  0  0  0  0  0  0  0
   47.8020   57.5622   31.0906 O   0  0  0  0  0  0  0  0  0  0  0  0
   46.8925   59.6086   30.7947 C   0  0  1  0  0  0  0  0  0  0  0  0
   45.8915   60.3182   30.1229 O   0  0  0  0  0  0  0  0  0  0  0  0
   46.4044   58.9268   32.1613 C   0  0  1  0  0  0  0  0  0  0  0  0
   45.3996   57.9154   31.9970 O   0  0  0  0  0  0  0  0  0  0  0  0
   47.8091   58.3917   32.3185 C   0  0  1  0  0  0  0  0  0  0  0  0
   47.3329   53.7006   28.9284 O   0  0  0  0  0  0  0  0  0  0  0  0
   46.6723   54.1610   34.7839 N   0  0  0  0  0  0  0  0  0  0  0  0
   45.9303   54.9517   34.0070 C   0  0  0  0  0  0  0  0  0  0  0  0
   46.4437   56.0175   33.3940 N   0  0  0  0  0  0  0  0  0  0  0  0
   47.7013   56.4125   33.6333 C   0  0  0  0  0  0  0  0  0  0  0  0
   48.5109   55.6276   34.5149 C   0  0  0  0  0  0  0  0  0  0  0  0
   47.9306   54.4593   35.0812 C   0  0  0  0  0  0  0  0  0  0  0  0
   48.6415   53.6461   35.9184 N   0  0  0  0  0  0  0  0  0  0  0  0
   49.7131   56.2310   34.5914 N   0  0  0  0  0  0  0  0  0  0  0  0
   49.7082   57.3120   33.8430 C   0  0  0  0  0  0  0  0  0  0  0  0
   48.5015   57.4780   33.2088 N   0  0  0  0  0  0  0  0  0  0  0  0
  2  1  1  6  0  0  0
  2  3  1  0  0  0  0
  2  5  1  0  0  0  0
  3  4  1  0  0  0  0
  3 17  1  0  0  0  0
  5  6  1  0  0  0  0
  7  6  1  6  0  0  0
  7  8  1  0  0  0  0
  7  9  1  0  0  0  0
 10  9  1  6  0  0  0
 10 11  1  0  0  0  0
 10 12  1  0  0  0  0
 11 16  1  0  0  0  0
 12 13  1  6  0  0  0
 12 14  1  0  0  0  0
 14 15  1  6  0  0  0
 14 16  1  0  0  0  0
 16 27  1  1  0  0  0
 18 19  2  0  0  0  0
 18 23  1  0  0  0  0
 19 20  1  0  0  0  0
 20 21  2  0  0  0  0
 21 22  1  0  0  0  0
 21 27  1  0  0  0  0
 22 23  2  0  0  0  0
 22 25  1  0  0  0  0
 23 24  1  0  0  0  0
 25 26  2  0  0  0  0
 26 27  1  0  0  0  0
M  END
>  <CHROM.1>
-70.69862307,-163.85852043,-68.23561167,-65.39783755,-149.35562887,79.34189847
-74.68587240,47.84553674,56.28006702,30.80177749,-1.18517400,-1.27643236
1.80789515

>  <Name>
ligand

>  <RI>
0

>  <Rbt.Current_Directory>
/home/itssahil/PROJECTS/Mol_Feturizer/New_Systems/rnas/3IQN

>  <Rbt.Executable>
rbdock ($Id: //depot/dev/client3/rdock/2013.1/src/exe/rbdock.cxx#4 $)

>  <Rbt.Library>
libRbt.so (2013.1, Build901 2013/11/27)

>  <Rbt.Parameter_File>
/export/apps/rDock/src/rDock_2013.1_src/data/scripts/dock_solv.prm

>  <Rbt.Receptor>
prm/pocket_docking_3.prm

>  <SCORE>
-14.0973

>  <SCORE.INTER>
-11.8012

>  <SCORE.INTER.CONST>
1

>  <SCORE.INTER.POLAR>
0

>  <SCORE.INTER.ROT>
7

>  <SCORE.INTER.SOLV>
13.2748

>  <SCORE.INTER.VDW>
-20.5591

>  <SCORE.INTER.norm>
-0.437081

>  <SCORE.INTRA>
-2.41782

>  <SCORE.INTRA.DIHEDRAL>
-1.46195

>  <SCORE.INTRA.DIHEDRAL.0>
10.0365

>  <SCORE.INTRA.POLAR>
0

>  <SCORE.INTRA.POLAR.0>
0

>  <SCORE.INTRA.REPUL>
0

>  <SCORE.INTRA.REPUL.0>
0

>  <SCORE.INTRA.SOLV>
-0.776941

>  <SCORE.INTRA.SOLV.lig_0>
-48.6728

>  <SCORE.INTRA.VDW>
-1.29837

>  <SCORE.INTRA.VDW.0>
-1.10662

>  <SCORE.INTRA.norm>
-0.0895488

>  <SCORE.RESTR>
0.121717

>  <SCORE.RESTR.CAVITY>
0.121717

>  <SCORE.RESTR.norm>
0.00450805

>  <SCORE.SYSTEM>
0

>  <SCORE.SYSTEM.CONST>
0

>  <SCORE.SYSTEM.DIHEDRAL>
0

>  <SCORE.SYSTEM.SOLV>
0

>  <SCORE.SYSTEM.norm>
0

>  <SCORE.heavy>
27

>  <SCORE.norm>
-0.522122

>  <RMSD>
4.860

$$$$
ligand
 OpenBabel11021811483D
libRbt.so/2013.1/901 2013/11/27
 27 29  0  0  0  0  0  0  0  0999 V2000
   46.8884   55.4143   28.2940 N   0  0  0  0  0  0  0  0  0  0  0  0
   47.3861   56.7765   28.5268 C   0  0  2  0  0  0  0  0  0  0  0  0
   47.7261   57.3908   27.2023 C   0  0  0  0  0  0  0  0  0  0  0  0
   48.4278   56.7818   26.4105 O   0  0  0  0  0  0  0  0  0  0  0  0
   48.6415   56.7418   29.4112 C   0  0  0  0  0  0  0  0  0  0  0  0
   48.7895   58.0887   30.1128 C   0  0  0  0  0  0  0  0  0  0  0  0
   47.7843   58.2335   31.6248 S   0  0  2  0  0  0  0  0  0  0  0  0
   47.5820   60.0251   31.8690 C   0  0  0  0  0  0  0  0  0  0  0  0
   48.7873   57.8693   33.1104 C   0  0  0  0  0  0  0  0  0  0  0  0
   48.4865   56.4152   33.3786 C   0  0  1  0  0  0  0  0  0  0  0  0
   48.6761   55.8030   32.1457 O   0  0  0  0  0  0  0  0  0  0  0  0
   49.3771   55.5578   34.2790 C   0  0  1  0  0  0  0  0  0  0  0  0
   48.9679   55.5791   35.6165 O   0  0  0  0  0  0  0  0  0  0  0  0
   49.1604   54.1451   33.5524 C   0  0  1  0  0  0  0  0  0  0  0  0
   47.7890   53.7383   33.4373 O   0  0  0  0  0  0  0  0  0  0  0  0
   49.7317   54.7751   32.3030 C   0  0  1  0  0  0  0  0  0  0  0  0
   47.2859   58.4928   26.9149 O   0  0  0  0  0  0  0  0  0  0  0  0
   47.3927   51.7436   29.0460 N   0  0  0  0  0  0  0  0  0  0  0  0
   47.1687   51.9846   30.3388 C   0  0  0  0  0  0  0  0  0  0  0  0
   47.8826   52.8789   31.0213 N   0  0  0  0  0  0  0  0  0  0  0  0
   48.9414   53.4850   30.4677 C   0  0  0  0  0  0  0  0  0  0  0  0
   49.2563   53.2024   29.1003 C   0  0  0  0  0  0  0  0  0  0  0  0
   48.4131   52.2952   28.4015 C   0  0  0  0  0  0  0  0  0  0  0  0
   48.6342   51.9856   27.0890 N   0  0  0  0  0  0  0  0  0  0  0  0
   50.3510   53.9233   28.7886 N   0  0  0  0  0  0  0  0  0  0  0  0
   50.7341   54.6135   29.8401 C   0  0  0  0  0  0  0  0  0  0  0  0
   49.8992   54.4030   30.9100 N   0  0  0  0  0  0  0  0  0  0  0  0
  2  1  1  6  0  0  0
  2  3  1  0  0  0  0
  2  5  1  0  0  0  0
  3  4  1  0  0  0  0
  3 17  1  0  0  0  0
  5  6  1  0  0  0  0
  7  6  1  6  0  0  0
  7  8  1  0  0  0  0
  7  9  1  0  0  0  0
 10  9  1  6  0  0  0
 10 11  1  0  0  0  0
 10 12  1  0  0  0  0
 11 16  1  0  0  0  0
 12 13  1  1  0  0  0
 12 14  1  0  0  0  0
 14 15  1  6  0  0  0
 14 16  1  0  0  0  0
 16 27  1  6  0  0  0
 18 19  2  0  0  0  0
 18 23  1  0  0  0  0
 19 20  1  0  0  0  0
 20 21  2  0  0  0  0
 21 22  1  0  0  0  0
 21 27  1  0  0  0  0
 22 23  2  0  0  0  0
 22 25  1  0  0  0  0
 23 24  1  0  0  0  0
 25 26  2  0  0  0  0
 26 27  1  0  0  0  0
M  END
>  <CHROM.1>
-49.95764337,-156.21745278,83.11632595,-157.47619499,-96.32112082,49.62541539
-81.87775397,48.47082230,55.48336183,30.56995438,1.93424499,1.40698304,-2.32621009

>  <Name>
ligand

>  <RI>
0

>  <Rbt.Current_Directory>
/home/itssahil/PROJECTS/Mol_Feturizer/New_Systems/rnas/3IQN

>  <Rbt.Executable>
rbdock ($Id: //depot/dev/client3/rdock/2013.1/src/exe/rbdock.cxx#4 $)

>  <Rbt.Library>
libRbt.so (2013.1, Build901 2013/11/27)

>  <Rbt.Parameter_File>
/export/apps/rDock/src/rDock_2013.1_src/data/scripts/dock_solv.prm

>  <Rbt.Receptor>
prm/pocket_docking_2.prm

>  <SCORE>
-12.3496

>  <SCORE.INTER>
-13.089

>  <SCORE.INTER.CONST>
1

>  <SCORE.INTER.POLAR>
0

>  <SCORE.INTER.ROT>
7

>  <SCORE.INTER.SOLV>
9.81224

>  <SCORE.INTER.VDW>
-20.2634

>  <SCORE.INTER.norm>
-0.484777

>  <SCORE.INTRA>
-0.428906

>  <SCORE.INTRA.DIHEDRAL>
1.84906

>  <SCORE.INTRA.DIHEDRAL.0>
10.0365

>  <SCORE.INTRA.POLAR>
0

>  <SCORE.INTRA.POLAR.0>
0

>  <SCORE.INTRA.REPUL>
0

>  <SCORE.INTRA.REPUL.0>
0

>  <SCORE.INTRA.SOLV>
1.49146

>  <SCORE.INTRA.SOLV.lig_0>
-48.6728

>  <SCORE.INTRA.VDW>
-2.09917

>  <SCORE.INTRA.VDW.0>
-1.10662

>  <SCORE.INTRA.norm>
-0.0158854

>  <SCORE.RESTR>
1.16834

>  <SCORE.RESTR.CAVITY>
1.16834

>  <SCORE.RESTR.norm>
0.0432719

>  <SCORE.SYSTEM>
0

>  <SCORE.SYSTEM.CONST>
0

>  <SCORE.SYSTEM.DIHEDRAL>
0

>  <SCORE.SYSTEM.SOLV>
0

>  <SCORE.SYSTEM.norm>
0

>  <SCORE.heavy>
27

>  <SCORE.norm>
-0.457391

>  <RMSD>
4.870

$$$$
ligand
 OpenBabel11021811483D
libRbt.so/2013.1/901 2013/11/27
 27 29  0  0  0  0  0  0  0  0999 V2000
   48.9125   54.8934   25.7039 N   0  0  0  0  0  0  0  0  0  0  0  0
   48.4001   54.6267   27.0543 C   0  0  2  0  0  0  0  0  0  0  0  0
   47.0861   53.9153   26.9317 C   0  0  0  0  0  0  0  0  0  0  0  0
   46.2828   54.2619   26.0805 O   0  0  0  0  0  0  0  0  0  0  0  0
   48.1986   55.9439   27.8182 C   0  0  0  0  0  0  0  0  0  0  0  0
   49.5641   56.5532   28.1220 C   0  0  0  0  0  0  0  0  0  0  0  0
   50.4327   55.7370   29.4992 S   0  0  2  0  0  0  0  0  0  0  0  0
   50.8796   54.0972   28.8498 C   0  0  0  0  0  0  0  0  0  0  0  0
   49.2506   55.2042   30.7895 C   0  0  0  0  0  0  0  0  0  0  0  0
   48.6125   56.5003   31.2254 C   0  0  1  0  0  0  0  0  0  0  0  0
   47.4819   56.0961   31.9247 O   0  0  0  0  0  0  0  0  0  0  0  0
   49.2787   57.4276   32.2430 C   0  0  1  0  0  0  0  0  0  0  0  0
   50.1024   58.3838   31.6397 O   0  0  0  0  0  0  0  0  0  0  0  0
   47.9551   58.0354   32.9132 C   0  0  1  0  0  0  0  0  0  0  0  0
   47.0470   58.6505   31.9877 O   0  0  0  0  0  0  0  0  0  0  0  0
   47.5855   56.6235   33.3057 C   0  0  1  0  0  0  0  0  0  0  0  0
   46.8318   52.9807   27.6751 O   0  0  0  0  0  0  0  0  0  0  0  0
   46.7294   52.2273   35.5882 N   0  0  0  0  0  0  0  0  0  0  0  0
   47.8369   52.7337   35.0437 C   0  0  0  0  0  0  0  0  0  0  0  0
   47.8680   53.9609   34.5257 N   0  0  0  0  0  0  0  0  0  0  0  0
   46.7513   54.6930   34.4169 C   0  0  0  0  0  0  0  0  0  0  0  0
   45.5269   54.1570   34.9292 C   0  0  0  0  0  0  0  0  0  0  0  0
   45.5710   52.8726   35.5379 C   0  0  0  0  0  0  0  0  0  0  0  0
   44.4501   52.2975   36.0676 N   0  0  0  0  0  0  0  0  0  0  0  0
   44.5657   55.0718   34.6961 N   0  0  0  0  0  0  0  0  0  0  0  0
   45.0902   56.1113   34.0852 C   0  0  0  0  0  0  0  0  0  0  0  0
   46.4408   55.9524   33.8942 N   0  0  0  0  0  0  0  0  0  0  0  0
  2  1  1  6  0  0  0
  2  3  1  0  0  0  0
  2  5  1  0  0  0  0
  3  4  1  0  0  0  0
  3 17  1  0  0  0  0
  5  6  1  0  0  0  0
  7  6  1  6  0  0  0
  7  8  1  0  0  0  0
  7  9  1  0  0  0  0
 10  9  1  1  0  0  0
 10 11  1  0  0  0  0
 10 12  1  0  0  0  0
 11 16  1  0  0  0  0
 12 13  1  6  0  0  0
 12 14  1  0  0  0  0
 14 15  1  6  0  0  0
 14 16  1  0  0  0  0
 16 27  1  6  0  0  0
 18 19  2  0  0  0  0
 18 23  1  0  0  0  0
 19 20  1  0  0  0  0
 20 21  2  0  0  0  0
 21 22  1  0  0  0  0
 21 27  1  0  0  0  0
 22 23  2  0  0  0  0
 22 25  1  0  0  0  0
 23 24  1  0  0  0  0
 25 26  2  0  0  0  0
 26 27  1  0  0  0  0
M  END
>  <CHROM.1>
-40.90521698,-69.25459362,-76.68372294,69.48598453,-60.45609331,164.50580111
88.81547535,47.75162162,55.24639471,31.37261751,0.94523079,-0.94465609,-1.97003430

>  <Name>
ligand

>  <RI>
0

>  <Rbt.Current_Directory>
/home/itssahil/PROJECTS/Mol_Feturizer/New_Systems/rnas/3IQN

>  <Rbt.Executable>
rbdock ($Id: //depot/dev/client3/rdock/2013.1/src/exe/rbdock.cxx#4 $)

>  <Rbt.Library>
libRbt.so (2013.1, Build901 2013/11/27)

>  <Rbt.Parameter_File>
/export/apps/rDock/src/rDock_2013.1_src/data/scripts/dock_solv.prm

>  <Rbt.Receptor>
prm/pocket_docking_5.prm

>  <SCORE>
-15.5982

>  <SCORE.INTER>
-12.3063

>  <SCORE.INTER.CONST>
1

>  <SCORE.INTER.POLAR>
0

>  <SCORE.INTER.ROT>
7

>  <SCORE.INTER.SOLV>
10.4553

>  <SCORE.INTER.VDW>
-19.956

>  <SCORE.INTER.norm>
-0.455787

>  <SCORE.INTRA>
-3.29431

>  <SCORE.INTRA.DIHEDRAL>
-4.09793

>  <SCORE.INTRA.DIHEDRAL.0>
10.0365

>  <SCORE.INTRA.POLAR>
0

>  <SCORE.INTRA.POLAR.0>
0

>  <SCORE.INTRA.REPUL>
0

>  <SCORE.INTRA.REPUL.0>
0

>  <SCORE.INTRA.SOLV>
0.808209

>  <SCORE.INTRA.SOLV.lig_0>
-48.6728

>  <SCORE.INTRA.VDW>
-1.64945

>  <SCORE.INTRA.VDW.0>
-1.10662

>  <SCORE.INTRA.norm>
-0.122012

>  <SCORE.RESTR>
0.00236181

>  <SCORE.RESTR.CAVITY>
0.00236181

>  <SCORE.RESTR.norm>
8.74743e-05

>  <SCORE.SYSTEM>
0

>  <SCORE.SYSTEM.CONST>
0

>  <SCORE.SYSTEM.DIHEDRAL>
0

>  <SCORE.SYSTEM.SOLV>
0

>  <SCORE.SYSTEM.norm>
0

>  <SCORE.heavy>
27

>  <SCORE.norm>
-0.577712

>  <RMSD>
4.879

$$$$
ligand
 OpenBabel11021811483D
libRbt.so/2013.1/901 2013/11/27
 27 29  0  0  0  0  0  0  0  0999 V2000
   47.4587   51.6609   29.5369 N   0  0  0  0  0  0  0  0  0  0  0  0
   47.4382   53.1228   29.6781 C   0  0  2  0  0  0  0  0  0  0  0  0
   46.3363   53.6674   28.8198 C   0  0  0  0  0  0  0  0  0  0  0  0
   45.5333   54.4584   29.2886 O   0  0  0  0  0  0  0  0  0  0  0  0
   48.7795   53.7210   29.2281 C   0  0  0  0  0  0  0  0  0  0  0  0
   48.8423   55.1807   29.6680 C   0  0  0  0  0  0  0  0  0  0  0  0
   47.8632   56.2986   28.6150 S   0  0  2  0  0  0  0  0  0  0  0  0
   48.7487   56.3214   27.0257 C   0  0  0  0  0  0  0  0  0  0  0  0
   48.1268   58.0435   29.0967 C   0  0  0  0  0  0  0  0  0  0  0  0
   47.1186   58.2499   30.2003 C   0  0  1  0  0  0  0  0  0  0  0  0
   47.5481   57.3949   31.2079 O   0  0  0  0  0  0  0  0  0  0  0  0
   47.0086   59.5741   30.9577 C   0  0  1  0  0  0  0  0  0  0  0  0
   46.0966   60.4559   30.3681 O   0  0  0  0  0  0  0  0  0  0  0  0
   46.5352   58.9978   32.3770 C   0  0  1  0  0  0  0  0  0  0  0  0
   45.3498   58.1904   32.3271 O   0  0  0  0  0  0  0  0  0  0  0  0
   47.8253   58.2112   32.4131 C   0  0  1  0  0  0  0  0  0  0  0  0
   46.2565   53.3286   27.6495 O   0  0  0  0  0  0  0  0  0  0  0  0
   46.1634   54.2856   35.0770 N   0  0  0  0  0  0  0  0  0  0  0  0
   45.5098   55.1994   34.3578 C   0  0  0  0  0  0  0  0  0  0  0  0
   46.1512   56.1452   33.6726 N   0  0  0  0  0  0  0  0  0  0  0  0
   47.4783   56.2947   33.7785 C   0  0  0  0  0  0  0  0  0  0  0  0
   48.2094   55.3743   34.5952 C   0  0  0  0  0  0  0  0  0  0  0  0
   47.4788   54.3404   35.2429 C   0  0  0  0  0  0  0  0  0  0  0  0
   48.1037   53.4107   36.0256 N   0  0  0  0  0  0  0  0  0  0  0  0
   49.5054   55.7383   34.5397 N   0  0  0  0  0  0  0  0  0  0  0  0
   49.6297   56.7971   33.7700 C   0  0  0  0  0  0  0  0  0  0  0  0
   48.4185   57.1866   33.2529 N   0  0  0  0  0  0  0  0  0  0  0  0
  2  1  1  6  0  0  0
  2  3  1  0  0  0  0
  2  5  1  0  0  0  0
  3  4  1  0  0  0  0
  3 17  1  0  0  0  0
  5  6  1  0  0  0  0
  7  6  1  1  0  0  0
  7  8  1  0  0  0  0
  7  9  1  0  0  0  0
 10  9  1  6  0  0  0
 10 11  1  0  0  0  0
 10 12  1  0  0  0  0
 11 16  1  0  0  0  0
 12 13  1  6  0  0  0
 12 14  1  0  0  0  0
 14 15  1  6  0  0  0
 14 16  1  0  0  0  0
 16 27  1  1  0  0  0
 18 19  2  0  0  0  0
 18 23  1  0  0  0  0
 19 20  1  0  0  0  0
 20 21  2  0  0  0  0
 21 22  1  0  0  0  0
 21 27  1  0  0  0  0
 22 23  2  0  0  0  0
 22 25  1  0  0  0  0
 23 24  1  0  0  0  0
 25 26  2  0  0  0  0
 26 27  1  0  0  0  0
M  END
>  <CHROM.1>
130.41637320,-167.68038480,-77.34821345,-68.88221801,-86.19021525,64.58175160
-75.09980870,47.38462614,56.02305550,31.34753084,-1.65417619,-1.50898042
1.39194399

>  <Name>
ligand

>  <RI>
0

>  <Rbt.Current_Directory>
/home/itssahil/PROJECTS/Mol_Feturizer/New_Systems/rnas/3IQN

>  <Rbt.Executable>
rbdock ($Id: //depot/dev/client3/rdock/2013.1/src/exe/rbdock.cxx#4 $)

>  <Rbt.Library>
libRbt.so (2013.1, Build901 2013/11/27)

>  <Rbt.Parameter_File>
/export/apps/rDock/src/rDock_2013.1_src/data/scripts/dock_solv.prm

>  <Rbt.Receptor>
prm/pocket_docking_4.prm

>  <SCORE>
-13.4956

>  <SCORE.INTER>
-9.36691

>  <SCORE.INTER.CONST>
1

>  <SCORE.INTER.POLAR>
0

>  <SCORE.INTER.ROT>
7

>  <SCORE.INTER.SOLV>
16.2418

>  <SCORE.INTER.VDW>
-19.9252

>  <SCORE.INTER.norm>
-0.346923

>  <SCORE.INTRA>
-4.12874

>  <SCORE.INTRA.DIHEDRAL>
-3.98139

>  <SCORE.INTRA.DIHEDRAL.0>
10.0365

>  <SCORE.INTRA.POLAR>
0

>  <SCORE.INTRA.POLAR.0>
0

>  <SCORE.INTRA.REPUL>
0

>  <SCORE.INTRA.REPUL.0>
0

>  <SCORE.INTRA.SOLV>
-0.667062

>  <SCORE.INTRA.SOLV.lig_0>
-48.6728

>  <SCORE.INTRA.VDW>
-1.80451

>  <SCORE.INTRA.VDW.0>
-1.10662

>  <SCORE.INTRA.norm>
-0.152916

>  <SCORE.RESTR>
0

>  <SCORE.RESTR.CAVITY>
0

>  <SCORE.RESTR.norm>
0

>  <SCORE.SYSTEM>
0

>  <SCORE.SYSTEM.CONST>
0

>  <SCORE.SYSTEM.DIHEDRAL>
0

>  <SCORE.SYSTEM.SOLV>
0

>  <SCORE.SYSTEM.norm>
0

>  <SCORE.heavy>
27

>  <SCORE.norm>
-0.499839

>  <RMSD>
4.894

$$$$
ligand
 OpenBabel11021811483D
libRbt.so/2013.1/901 2013/11/27
 27 29  0  0  0  0  0  0  0  0999 V2000
   44.8539   54.6019   34.5061 N   0  0  0  0  0  0  0  0  0  0  0  0
   46.0020   54.9502   33.6589 C   0  0  2  0  0  0  0  0  0  0  0  0
   46.1103   56.4442   33.5965 C   0  0  0  0  0  0  0  0  0  0  0  0
   47.2076   56.9776   33.6364 O   0  0  0  0  0  0  0  0  0  0  0  0
   45.8073   54.3924   32.2410 C   0  0  0  0  0  0  0  0  0  0  0  0
   47.0558   54.6914   31.4163 C   0  0  0  0  0  0  0  0  0  0  0  0
   48.3288   53.3938   31.5306 S   0  0  2  0  0  0  0  0  0  0  0  0
   48.5666   53.1432   33.3170 C   0  0  0  0  0  0  0  0  0  0  0  0
   49.9817   54.0667   31.1293 C   0  0  0  0  0  0  0  0  0  0  0  0
   49.8621   54.4190   29.6669 C   0  0  1  0  0  0  0  0  0  0  0  0
   48.8883   55.4099   29.6417 O   0  0  0  0  0  0  0  0  0  0  0  0
   51.0000   55.0975   28.9028 C   0  0  1  0  0  0  0  0  0  0  0  0
   51.8668   54.1784   28.3022 O   0  0  0  0  0  0  0  0  0  0  0  0
   50.1184   55.9400   27.8619 C   0  0  1  0  0  0  0  0  0  0  0  0
   49.2050   55.1547   27.0819 O   0  0  0  0  0  0  0  0  0  0  0  0
   49.4910   56.6285   29.0521 C   0  0  1  0  0  0  0  0  0  0  0  0
   45.0995   57.1207   33.4901 O   0  0  0  0  0  0  0  0  0  0  0  0
   48.2799   59.9916   32.5864 N   0  0  0  0  0  0  0  0  0  0  0  0
   49.3091   59.1482   32.4919 C   0  0  0  0  0  0  0  0  0  0  0  0
   49.4783   58.3617   31.4298 N   0  0  0  0  0  0  0  0  0  0  0  0
   48.5506   58.2943   30.4656 C   0  0  0  0  0  0  0  0  0  0  0  0
   47.3968   59.1356   30.5638 C   0  0  0  0  0  0  0  0  0  0  0  0
   47.3080   60.0081   31.6832 C   0  0  0  0  0  0  0  0  0  0  0  0
   46.2479   60.8558   31.8421 N   0  0  0  0  0  0  0  0  0  0  0  0
   46.6260   58.8780   29.4892 N   0  0  0  0  0  0  0  0  0  0  0  0
   47.2008   57.9551   28.7499 C   0  0  0  0  0  0  0  0  0  0  0  0
   48.4018   57.5592   29.2853 N   0  0  0  0  0  0  0  0  0  0  0  0
  2  1  1  1  0  0  0
  2  3  1  0  0  0  0
  2  5  1  0  0  0  0
  3  4  1  0  0  0  0
  3 17  1  0  0  0  0
  5  6  1  0  0  0  0
  7  6  1  1  0  0  0
  7  8  1  0  0  0  0
  7  9  1  0  0  0  0
 10  9  1  1  0  0  0
 10 11  1  0  0  0  0
 10 12  1  0  0  0  0
 11 16  1  0  0  0  0
 12 13  1  6  0  0  0
 12 14  1  0  0  0  0
 14 15  1  1  0  0  0
 14 16  1  0  0  0  0
 16 27  1  6  0  0  0
 18 19  2  0  0  0  0
 18 23  1  0  0  0  0
 19 20  1  0  0  0  0
 20 21  2  0  0  0  0
 21 22  1  0  0  0  0
 21 27  1  0  0  0  0
 22 23  2  0  0  0  0
 22 25  1  0  0  0  0
 23 24  1  0  0  0  0
 25 26  2  0  0  0  0
 26 27  1  0  0  0  0
M  END
>  <CHROM.1>
139.96367709,-176.27732510,88.88506668,-51.66237631,-66.47761890,63.53760861
94.90378069,48.10320714,56.32762800,31.04529878,2.81605760,0.88913684,-0.25057324

>  <Name>
ligand

>  <RI>
0

>  <Rbt.Current_Directory>
/home/itssahil/PROJECTS/Mol_Feturizer/New_Systems/rnas/3IQN

>  <Rbt.Executable>
rbdock ($Id: //depot/dev/client3/rdock/2013.1/src/exe/rbdock.cxx#4 $)

>  <Rbt.Library>
libRbt.so (2013.1, Build901 2013/11/27)

>  <Rbt.Parameter_File>
/export/apps/rDock/src/rDock_2013.1_src/data/scripts/dock_solv.prm

>  <Rbt.Receptor>
prm/pocket_docking_4.prm

>  <SCORE>
-15.9799

>  <SCORE.INTER>
-13.0257

>  <SCORE.INTER.CONST>
1

>  <SCORE.INTER.POLAR>
0

>  <SCORE.INTER.ROT>
7

>  <SCORE.INTER.SOLV>
19.4364

>  <SCORE.INTER.VDW>
-23.4292

>  <SCORE.INTER.norm>
-0.482432

>  <SCORE.INTRA>
-2.9759

>  <SCORE.INTRA.DIHEDRAL>
-3.69157

>  <SCORE.INTRA.DIHEDRAL.0>
10.0365

>  <SCORE.INTRA.POLAR>
0

>  <SCORE.INTRA.POLAR.0>
0

>  <SCORE.INTRA.REPUL>
0

>  <SCORE.INTRA.REPUL.0>
0

>  <SCORE.INTRA.SOLV>
-0.485623

>  <SCORE.INTRA.SOLV.lig_0>
-48.6728

>  <SCORE.INTRA.VDW>
-0.887297

>  <SCORE.INTRA.VDW.0>
-1.10662

>  <SCORE.INTRA.norm>
-0.110218

>  <SCORE.RESTR>
0.0216502

>  <SCORE.RESTR.CAVITY>
0.0216502

>  <SCORE.RESTR.norm>
0.000801861

>  <SCORE.SYSTEM>
0

>  <SCORE.SYSTEM.CONST>
0

>  <SCORE.SYSTEM.DIHEDRAL>
0

>  <SCORE.SYSTEM.SOLV>
0

>  <SCORE.SYSTEM.norm>
0

>  <SCORE.heavy>
27

>  <SCORE.norm>
-0.591848

>  <RMSD>
4.899

$$$$
ligand
 OpenBabel11021811483D
libRbt.so/2013.1/901 2013/11/27
 27 29  0  0  0  0  0  0  0  0999 V2000
   45.2658   53.3147   30.2393 N   0  0  0  0  0  0  0  0  0  0  0  0
   46.0474   54.0134   29.2106 C   0  0  2  0  0  0  0  0  0  0  0  0
   46.1883   53.1075   28.0244 C   0  0  0  0  0  0  0  0  0  0  0  0
   46.2559   53.5807   26.9011 O   0  0  0  0  0  0  0  0  0  0  0  0
   47.4408   54.3697   29.7497 C   0  0  0  0  0  0  0  0  0  0  0  0
   48.0106   55.5203   28.9252 C   0  0  0  0  0  0  0  0  0  0  0  0
   49.7449   55.9091   29.3234 S   0  0  2  0  0  0  0  0  0  0  0  0
   50.6636   54.4016   28.8833 C   0  0  0  0  0  0  0  0  0  0  0  0
   50.0206   55.8759   31.1314 C   0  0  0  0  0  0  0  0  0  0  0  0
   49.3503   57.1428   31.6032 C   0  0  1  0  0  0  0  0  0  0  0  0
   48.1045   56.7154   32.0460 O   0  0  0  0  0  0  0  0  0  0  0  0
   49.8523   57.9174   32.8227 C   0  0  1  0  0  0  0  0  0  0  0  0
   50.7937   58.8962   32.4872 O   0  0  0  0  0  0  0  0  0  0  0  0
   48.4483   58.5067   33.3247 C   0  0  1  0  0  0  0  0  0  0  0  0
   47.7326   59.2638   32.3378 O   0  0  0  0  0  0  0  0  0  0  0  0
   47.9787   57.0782   33.4772 C   0  0  1  0  0  0  0  0  0  0  0  0
   46.2506   51.8993   28.1891 O   0  0  0  0  0  0  0  0  0  0  0  0
   46.6231   52.5076   35.0711 N   0  0  0  0  0  0  0  0  0  0  0  0
   47.8220   53.0201   34.7891 C   0  0  0  0  0  0  0  0  0  0  0  0
   47.9746   54.2924   34.4242 N   0  0  0  0  0  0  0  0  0  0  0  0
   46.9132   55.0795   34.2032 C   0  0  0  0  0  0  0  0  0  0  0  0
   45.6045   54.5460   34.4300 C   0  0  0  0  0  0  0  0  0  0  0  0
   45.5082   53.2040   34.8904 C   0  0  0  0  0  0  0  0  0  0  0  0
   44.2971   52.6254   35.1479 N   0  0  0  0  0  0  0  0  0  0  0  0
   44.7226   55.5209   34.1350 N   0  0  0  0  0  0  0  0  0  0  0  0
   45.3726   56.5952   33.7450 C   0  0  0  0  0  0  0  0  0  0  0  0
   46.7315   56.3991   33.7774 N   0  0  0  0  0  0  0  0  0  0  0  0
  2  1  1  1  0  0  0
  2  3  1  0  0  0  0
  2  5  1  0  0  0  0
  3  4  1  0  0  0  0
  3 17  1  0  0  0  0
  5  6  1  0  0  0  0
  7  6  1  1  0  0  0
  7  8  1  0  0  0  0
  7  9  1  0  0  0  0
 10  9  1  1  0  0  0
 10 11  1  0  0  0  0
 10 12  1  0  0  0  0
 11 16  1  0  0  0  0
 12 13  1  6  0  0  0
 12 14  1  0  0  0  0
 14 15  1  6  0  0  0
 14 16  1  0  0  0  0
 16 27  1  6  0  0  0
 18 19  2  0  0  0  0
 18 23  1  0  0  0  0
 19 20  1  0  0  0  0
 20 21  2  0  0  0  0
 21 22  1  0  0  0  0
 21 27  1  0  0  0  0
 22 23  2  0  0  0  0
 22 25  1  0  0  0  0
 23 24  1  0  0  0  0
 25 26  2  0  0  0  0
 26 27  1  0  0  0  0
M  END
>  <CHROM.1>
148.42157552,-158.12759133,-172.84037099,62.82361491,-73.65761763,97.96530012
89.35962622,47.54908897,55.29229033,31.75873791,1.21856771,-0.83618417,-1.96779915

>  <Name>
ligand

>  <RI>
0

>  <Rbt.Current_Directory>
/home/itssahil/PROJECTS/Mol_Feturizer/New_Systems/rnas/3IQN

>  <Rbt.Executable>
rbdock ($Id: //depot/dev/client3/rdock/2013.1/src/exe/rbdock.cxx#4 $)

>  <Rbt.Library>
libRbt.so (2013.1, Build901 2013/11/27)

>  <Rbt.Parameter_File>
/export/apps/rDock/src/rDock_2013.1_src/data/scripts/dock_solv.prm

>  <Rbt.Receptor>
prm/pocket_docking_5.prm

>  <SCORE>
-15.6127

>  <SCORE.INTER>
-12.3179

>  <SCORE.INTER.CONST>
1

>  <SCORE.INTER.POLAR>
0

>  <SCORE.INTER.ROT>
7

>  <SCORE.INTER.SOLV>
11.3881

>  <SCORE.INTER.VDW>
-20.2747

>  <SCORE.INTER.norm>
-0.45622

>  <SCORE.INTRA>
-3.29477

>  <SCORE.INTRA.DIHEDRAL>
-1.09544

>  <SCORE.INTRA.DIHEDRAL.0>
10.0365

>  <SCORE.INTRA.POLAR>
0

>  <SCORE.INTRA.POLAR.0>
0

>  <SCORE.INTRA.REPUL>
0

>  <SCORE.INTRA.REPUL.0>
0

>  <SCORE.INTRA.SOLV>
-1.06024

>  <SCORE.INTRA.SOLV.lig_0>
-48.6728

>  <SCORE.INTRA.VDW>
-2.21693

>  <SCORE.INTRA.VDW.0>
-1.10662

>  <SCORE.INTRA.norm>
-0.122029

>  <SCORE.RESTR>
0

>  <SCORE.RESTR.CAVITY>
0

>  <SCORE.RESTR.norm>
0

>  <SCORE.SYSTEM>
0

>  <SCORE.SYSTEM.CONST>
0

>  <SCORE.SYSTEM.DIHEDRAL>
0

>  <SCORE.SYSTEM.SOLV>
0

>  <SCORE.SYSTEM.norm>
0

>  <SCORE.heavy>
27

>  <SCORE.norm>
-0.578249

>  <RMSD>
4.899

$$$$
ligand
 OpenBabel11021811483D
libRbt.so/2013.1/901 2013/11/27
 27 29  0  0  0  0  0  0  0  0999 V2000
   50.9039   52.9267   28.0110 N   0  0  0  0  0  0  0  0  0  0  0  0
   51.1720   53.9836   28.9950 C   0  0  2  0  0  0  0  0  0  0  0  0
   50.0018   54.0719   29.9279 C   0  0  0  0  0  0  0  0  0  0  0  0
   49.9811   54.9257   30.8001 O   0  0  0  0  0  0  0  0  0  0  0  0
   51.3652   55.3337   28.2884 C   0  0  0  0  0  0  0  0  0  0  0  0
   50.2493   55.5199   27.2645 C   0  0  0  0  0  0  0  0  0  0  0  0
   48.6262   55.8658   28.0149 S   0  0  2  0  0  0  0  0  0  0  0  0
   47.4867   55.9899   26.6019 C   0  0  0  0  0  0  0  0  0  0  0  0
   48.5319   57.5991   28.5917 C   0  0  0  0  0  0  0  0  0  0  0  0
   47.3250   57.5934   29.4974 C   0  0  1  0  0  0  0  0  0  0  0  0
   47.8311   57.1813   30.7240 O   0  0  0  0  0  0  0  0  0  0  0  0
   46.6021   58.8829   29.8894 C   0  0  1  0  0  0  0  0  0  0  0  0
   45.5655   59.2069   29.0077 O   0  0  0  0  0  0  0  0  0  0  0  0
   46.1044   58.4425   31.3485 C   0  0  1  0  0  0  0  0  0  0  0  0
   45.3225   57.2394   31.3736 O   0  0  0  0  0  0  0  0  0  0  0  0
   47.5583   58.2500   31.7136 C   0  0  1  0  0  0  0  0  0  0  0  0
   49.0660   53.2980   29.8005 O   0  0  0  0  0  0  0  0  0  0  0  0
   47.3439   54.1447   34.6066 N   0  0  0  0  0  0  0  0  0  0  0  0
   46.5649   54.5551   33.6045 C   0  0  0  0  0  0  0  0  0  0  0  0
   46.8275   55.6678   32.9201 N   0  0  0  0  0  0  0  0  0  0  0  0
   47.8176   56.4900   33.2924 C   0  0  0  0  0  0  0  0  0  0  0  0
   48.6359   56.1181   34.4064 C   0  0  0  0  0  0  0  0  0  0  0  0
   48.3535   54.8824   35.0509 C   0  0  0  0  0  0  0  0  0  0  0  0
   49.0984   54.4460   36.1102 N   0  0  0  0  0  0  0  0  0  0  0  0
   49.5418   57.1005   34.5780 N   0  0  0  0  0  0  0  0  0  0  0  0
   49.3474   58.0371   33.6759 C   0  0  0  0  0  0  0  0  0  0  0  0
   48.3072   57.7185   32.8378 N   0  0  0  0  0  0  0  0  0  0  0  0
  2  1  1  6  0  0  0
  2  3  1  0  0  0  0
  2  5  1  0  0  0  0
  3  4  1  0  0  0  0
  3 17  1  0  0  0  0
  5  6  1  0  0  0  0
  7  6  1  6  0  0  0
  7  8  1  0  0  0  0
  7  9  1  0  0  0  0
 10  9  1  6  0  0  0
 10 11  1  0  0  0  0
 10 12  1  0  0  0  0
 11 16  1  0  0  0  0
 12 13  1  6  0  0  0
 12 14  1  0  0  0  0
 14 15  1  6  0  0  0
 14 16  1  0  0  0  0
 16 27  1  1  0  0  0
 18 19  2  0  0  0  0
 18 23  1  0  0  0  0
 19 20  1  0  0  0  0
 20 21  2  0  0  0  0
 21 22  1  0  0  0  0
 21 27  1  0  0  0  0
 22 23  2  0  0  0  0
 22 25  1  0  0  0  0
 23 24  1  0  0  0  0
 25 26  2  0  0  0  0
 26 27  1  0  0  0  0
M  END
>  <CHROM.1>
-176.99865678,46.75954088,72.30421380,-178.28469607,-164.87181977,85.39991874
-62.86383895,48.34772093,56.11911856,30.91185472,-1.25345648,-0.85010853
1.72825178

>  <Name>
ligand

>  <RI>
0

>  <Rbt.Current_Directory>
/home/itssahil/PROJECTS/Mol_Feturizer/New_Systems/rnas/3IQN

>  <Rbt.Executable>
rbdock ($Id: //depot/dev/client3/rdock/2013.1/src/exe/rbdock.cxx#4 $)

>  <Rbt.Library>
libRbt.so (2013.1, Build901 2013/11/27)

>  <Rbt.Parameter_File>
/export/apps/rDock/src/rDock_2013.1_src/data/scripts/dock_solv.prm

>  <Rbt.Receptor>
prm/pocket_docking_7.prm

>  <SCORE>
-12.8979

>  <SCORE.INTER>
-10.7204

>  <SCORE.INTER.CONST>
1

>  <SCORE.INTER.POLAR>
0

>  <SCORE.INTER.ROT>
7

>  <SCORE.INTER.SOLV>
16.9898

>  <SCORE.INTER.VDW>
-21.0768

>  <SCORE.INTER.norm>
-0.397051

>  <SCORE.INTRA>
-2.19349

>  <SCORE.INTRA.DIHEDRAL>
-2.34774

>  <SCORE.INTRA.DIHEDRAL.0>
10.0365

>  <SCORE.INTRA.POLAR>
0

>  <SCORE.INTRA.POLAR.0>
0

>  <SCORE.INTRA.REPUL>
0

>  <SCORE.INTRA.REPUL.0>
0

>  <SCORE.INTRA.SOLV>
0.75567

>  <SCORE.INTRA.SOLV.lig_0>
-48.6728

>  <SCORE.INTRA.VDW>
-1.39745

>  <SCORE.INTRA.VDW.0>
-1.10662

>  <SCORE.INTRA.norm>
-0.0812404

>  <SCORE.RESTR>
0.0159812

>  <SCORE.RESTR.CAVITY>
0.0159812

>  <SCORE.RESTR.norm>
0.000591896

>  <SCORE.SYSTEM>
0

>  <SCORE.SYSTEM.CONST>
0

>  <SCORE.SYSTEM.DIHEDRAL>
0

>  <SCORE.SYSTEM.SOLV>
0

>  <SCORE.SYSTEM.norm>
0

>  <SCORE.heavy>
27

>  <SCORE.norm>
-0.477699

>  <RMSD>
4.900

$$$$
ligand
 OpenBabel11021811483D
libRbt.so/2013.1/901 2013/11/27
 27 29  0  0  0  0  0  0  0  0999 V2000
   47.2572   57.7870   26.5099 N   0  0  0  0  0  0  0  0  0  0  0  0
   48.0934   57.8335   27.7165 C   0  0  2  0  0  0  0  0  0  0  0  0
   48.8619   56.5498   27.8115 C   0  0  0  0  0  0  0  0  0  0  0  0
   50.0601   56.5729   28.0440 O   0  0  0  0  0  0  0  0  0  0  0  0
   47.2167   57.9978   28.9670 C   0  0  0  0  0  0  0  0  0  0  0  0
   48.1198   58.1474   30.1878 C   0  0  0  0  0  0  0  0  0  0  0  0
   47.2123   58.5356   31.7185 S   0  0  2  0  0  0  0  0  0  0  0  0
   46.9020   60.3259   31.6241 C   0  0  0  0  0  0  0  0  0  0  0  0
   48.3373   58.5315   33.1608 C   0  0  0  0  0  0  0  0  0  0  0  0
   48.4513   57.0660   33.5020 C   0  0  1  0  0  0  0  0  0  0  0  0
   47.1524   56.6990   33.8322 O   0  0  0  0  0  0  0  0  0  0  0  0
   48.8008   56.0151   32.4473 C   0  0  1  0  0  0  0  0  0  0  0  0
   50.1780   55.7914   32.3476 O   0  0  0  0  0  0  0  0  0  0  0  0
   47.9816   54.7808   33.0607 C   0  0  1  0  0  0  0  0  0  0  0  0
   48.3169   54.4589   34.4184 O   0  0  0  0  0  0  0  0  0  0  0  0
   46.7334   55.6192   32.9079 C   0  0  1  0  0  0  0  0  0  0  0  0
   48.2817   55.4848   27.6710 O   0  0  0  0  0  0  0  0  0  0  0  0
   42.5873   53.5122   31.0003 N   0  0  0  0  0  0  0  0  0  0  0  0
   43.8360   53.5724   30.5351 C   0  0  0  0  0  0  0  0  0  0  0  0
   44.8187   54.1434   31.2306 N   0  0  0  0  0  0  0  0  0  0  0  0
   44.5673   54.7939   32.3745 C   0  0  0  0  0  0  0  0  0  0  0  0
   43.2261   54.8100   32.8741 C   0  0  0  0  0  0  0  0  0  0  0  0
   42.2334   54.1197   32.1257 C   0  0  0  0  0  0  0  0  0  0  0  0
   40.9329   54.0719   32.5430 N   0  0  0  0  0  0  0  0  0  0  0  0
   43.2377   55.5228   34.0174 N   0  0  0  0  0  0  0  0  0  0  0  0
   44.4594   55.9460   34.2565 C   0  0  0  0  0  0  0  0  0  0  0  0
   45.3365   55.5195   33.2897 N   0  0  0  0  0  0  0  0  0  0  0  0
  2  1  1  6  0  0  0
  2  3  1  0  0  0  0
  2  5  1  0  0  0  0
  3  4  1  0  0  0  0
  3 17  1  0  0  0  0
  5  6  1  0  0  0  0
  7  6  1  6  0  0  0
  7  8  1  0  0  0  0
  7  9  1  0  0  0  0
 10  9  1  6  0  0  0
 10 11  1  0  0  0  0
 10 12  1  0  0  0  0
 11 16  1  0  0  0  0
 12 13  1  1  0  0  0
 12 14  1  0  0  0  0
 14 15  1  1  0  0  0
 14 16  1  0  0  0  0
 16 27  1  1  0  0  0
 18 19  2  0  0  0  0
 18 23  1  0  0  0  0
 19 20  1  0  0  0  0
 20 21  2  0  0  0  0
 21 22  1  0  0  0  0
 21 27  1  0  0  0  0
 22 23  2  0  0  0  0
 22 25  1  0  0  0  0
 23 24  1  0  0  0  0
 25 26  2  0  0  0  0
 26 27  1  0  0  0  0
M  END
>  <CHROM.1>
132.73532497,-175.80178792,173.58793879,-80.53235882,-81.44916036,-62.17821608
165.64232102,46.55134391,56.23156936,31.48216059,0.53559800,-0.49839811,-1.54059312

>  <Name>
ligand

>  <RI>
0

>  <Rbt.Current_Directory>
/home/itssahil/PROJECTS/Mol_Feturizer/New_Systems/rnas/3IQN

>  <Rbt.Executable>
rbdock ($Id: //depot/dev/client3/rdock/2013.1/src/exe/rbdock.cxx#4 $)

>  <Rbt.Library>
libRbt.so (2013.1, Build901 2013/11/27)

>  <Rbt.Parameter_File>
/export/apps/rDock/src/rDock_2013.1_src/data/scripts/dock_solv.prm

>  <Rbt.Receptor>
prm/pocket_docking_8.prm

>  <SCORE>
-16.1987

>  <SCORE.INTER>
-12.2397

>  <SCORE.INTER.CONST>
1

>  <SCORE.INTER.POLAR>
0

>  <SCORE.INTER.ROT>
7

>  <SCORE.INTER.SOLV>
13.6964

>  <SCORE.INTER.VDW>
-20.9919

>  <SCORE.INTER.norm>
-0.45332

>  <SCORE.INTRA>
-3.95908

>  <SCORE.INTRA.DIHEDRAL>
-5.4591

>  <SCORE.INTRA.DIHEDRAL.0>
10.0365

>  <SCORE.INTRA.POLAR>
0

>  <SCORE.INTRA.POLAR.0>
0

>  <SCORE.INTRA.REPUL>
0

>  <SCORE.INTRA.REPUL.0>
0

>  <SCORE.INTRA.SOLV>
-0.766459

>  <SCORE.INTRA.SOLV.lig_0>
-48.6728

>  <SCORE.INTRA.VDW>
-0.846302

>  <SCORE.INTRA.VDW.0>
-1.10662

>  <SCORE.INTRA.norm>
-0.146633

>  <SCORE.RESTR>
0

>  <SCORE.RESTR.CAVITY>
0

>  <SCORE.RESTR.norm>
0

>  <SCORE.SYSTEM>
0

>  <SCORE.SYSTEM.CONST>
0

>  <SCORE.SYSTEM.DIHEDRAL>
0

>  <SCORE.SYSTEM.SOLV>
0

>  <SCORE.SYSTEM.norm>
0

>  <SCORE.heavy>
27

>  <SCORE.norm>
-0.599953

>  <RMSD>
4.914

$$$$
ligand
 OpenBabel11021811483D
libRbt.so/2013.1/901 2013/11/27
 27 29  0  0  0  0  0  0  0  0999 V2000
   46.2924   53.0687   26.8349 N   0  0  0  0  0  0  0  0  0  0  0  0
   47.3315   52.5107   27.7102 C   0  0  2  0  0  0  0  0  0  0  0  0
   46.7814   52.4187   29.1017 C   0  0  0  0  0  0  0  0  0  0  0  0
   47.2942   51.6620   29.9107 O   0  0  0  0  0  0  0  0  0  0  0  0
   48.5720   53.4165   27.7101 C   0  0  0  0  0  0  0  0  0  0  0  0
   48.1431   54.8423   28.0441 C   0  0  0  0  0  0  0  0  0  0  0  0
   49.5339   56.0143   28.1419 S   0  0  2  0  0  0  0  0  0  0  0  0
   50.3755   55.5955   29.6997 C   0  0  0  0  0  0  0  0  0  0  0  0
   48.9454   57.6864   28.5932 C   0  0  0  0  0  0  0  0  0  0  0  0
   47.6818   57.4067   29.3692 C   0  0  1  0  0  0  0  0  0  0  0  0
   48.1393   57.0304   30.6261 O   0  0  0  0  0  0  0  0  0  0  0  0
   46.6922   58.5156   29.7300 C   0  0  1  0  0  0  0  0  0  0  0  0
   45.7007   58.6878   28.7584 O   0  0  0  0  0  0  0  0  0  0  0  0
   46.1525   57.9118   31.1137 C   0  0  1  0  0  0  0  0  0  0  0  0
   45.6160   56.5844   31.0158 O   0  0  0  0  0  0  0  0  0  0  0  0
   47.5754   57.9743   31.6194 C   0  0  1  0  0  0  0  0  0  0  0  0
   45.8310   53.1140   29.4243 O   0  0  0  0  0  0  0  0  0  0  0  0
   48.0042   53.7006   34.2309 N   0  0  0  0  0  0  0  0  0  0  0  0
   47.2627   54.0088   33.1658 C   0  0  0  0  0  0  0  0  0  0  0  0
   47.3337   55.2043   32.5817 N   0  0  0  0  0  0  0  0  0  0  0  0
   48.0631   56.1922   33.1174 C   0  0  0  0  0  0  0  0  0  0  0  0
   48.8217   55.9210   34.3004 C   0  0  0  0  0  0  0  0  0  0  0  0
   48.7641   54.6048   34.8356 C   0  0  0  0  0  0  0  0  0  0  0  0
   49.4725   54.2591   35.9520 N   0  0  0  0  0  0  0  0  0  0  0  0
   49.4541   57.0624   34.6359 N   0  0  0  0  0  0  0  0  0  0  0  0
   49.1466   58.0033   33.7705 C   0  0  0  0  0  0  0  0  0  0  0  0
   48.3026   57.5318   32.7952 N   0  0  0  0  0  0  0  0  0  0  0  0
  2  1  1  6  0  0  0
  2  3  1  0  0  0  0
  2  5  1  0  0  0  0
  3  4  1  0  0  0  0
  3 17  1  0  0  0  0
  5  6  1  0  0  0  0
  7  6  1  1  0  0  0
  7  8  1  0  0  0  0
  7  9  1  0  0  0  0
 10  9  1  6  0  0  0
 10 11  1  0  0  0  0
 10 12  1  0  0  0  0
 11 16  1  0  0  0  0
 12 13  1  6  0  0  0
 12 14  1  0  0  0  0
 14 15  1  6  0  0  0
 14 16  1  0  0  0  0
 16 27  1  1  0  0  0
 18 19  2  0  0  0  0
 18 23  1  0  0  0  0
 19 20  1  0  0  0  0
 20 21  2  0  0  0  0
 21 22  1  0  0  0  0
 21 27  1  0  0  0  0
 22 23  2  0  0  0  0
 22 25  1  0  0  0  0
 23 24  1  0  0  0  0
 25 26  2  0  0  0  0
 26 27  1  0  0  0  0
M  END
>  <CHROM.1>
159.43808517,52.83535453,177.73508163,-73.12716006,26.89148831,78.73727011
-60.09691070,47.87744073,55.60119811,30.78045253,-3.04910876,-1.40480717
-0.17792251

>  <Name>
ligand

>  <RI>
0

>  <Rbt.Current_Directory>
/home/itssahil/PROJECTS/Mol_Feturizer/New_Systems/rnas/3IQN

>  <Rbt.Executable>
rbdock ($Id: //depot/dev/client3/rdock/2013.1/src/exe/rbdock.cxx#4 $)

>  <Rbt.Library>
libRbt.so (2013.1, Build901 2013/11/27)

>  <Rbt.Parameter_File>
/export/apps/rDock/src/rDock_2013.1_src/data/scripts/dock_solv.prm

>  <Rbt.Receptor>
prm/pocket_docking_4.prm

>  <SCORE>
-9.77522

>  <SCORE.INTER>
-8.45883

>  <SCORE.INTER.CONST>
1

>  <SCORE.INTER.POLAR>
0

>  <SCORE.INTER.ROT>
7

>  <SCORE.INTER.SOLV>
16.0465

>  <SCORE.INTER.VDW>
-19.2547

>  <SCORE.INTER.norm>
-0.31329

>  <SCORE.INTRA>
-1.31639

>  <SCORE.INTRA.DIHEDRAL>
-3.53623

>  <SCORE.INTRA.DIHEDRAL.0>
10.0365

>  <SCORE.INTRA.POLAR>
0

>  <SCORE.INTRA.POLAR.0>
0

>  <SCORE.INTRA.REPUL>
0

>  <SCORE.INTRA.REPUL.0>
0

>  <SCORE.INTRA.SOLV>
0.0919653

>  <SCORE.INTRA.SOLV.lig_0>
-48.6728

>  <SCORE.INTRA.VDW>
0.405741

>  <SCORE.INTRA.VDW.0>
-1.10662

>  <SCORE.INTRA.norm>
-0.0487551

>  <SCORE.RESTR>
0

>  <SCORE.RESTR.CAVITY>
0

>  <SCORE.RESTR.norm>
0

>  <SCORE.SYSTEM>
0

>  <SCORE.SYSTEM.CONST>
0

>  <SCORE.SYSTEM.DIHEDRAL>
0

>  <SCORE.SYSTEM.SOLV>
0

>  <SCORE.SYSTEM.norm>
0

>  <SCORE.heavy>
27

>  <SCORE.norm>
-0.362045

>  <RMSD>
4.916

$$$$
ligand
 OpenBabel11021811483D
libRbt.so/2013.1/901 2013/11/27
 27 29  0  0  0  0  0  0  0  0999 V2000
   47.6068   54.0495   27.7754 N   0  0  0  0  0  0  0  0  0  0  0  0
   47.1364   52.7692   28.3202 C   0  0  2  0  0  0  0  0  0  0  0  0
   45.7484   52.9611   28.8531 C   0  0  0  0  0  0  0  0  0  0  0  0
   45.3309   54.0867   29.0739 O   0  0  0  0  0  0  0  0  0  0  0  0
   48.0594   52.3011   29.4553 C   0  0  0  0  0  0  0  0  0  0  0  0
   48.1047   53.3807   30.5326 C   0  0  0  0  0  0  0  0  0  0  0  0
   49.1848   54.7845   30.1081 S   0  0  2  0  0  0  0  0  0  0  0  0
   50.6658   54.0178   29.3807 C   0  0  0  0  0  0  0  0  0  0  0  0
   49.9551   55.4902   31.6096 C   0  0  0  0  0  0  0  0  0  0  0  0
   49.2098   56.7886   31.7989 C   0  0  1  0  0  0  0  0  0  0  0  0
   47.9442   56.3891   32.2106 O   0  0  0  0  0  0  0  0  0  0  0  0
   49.5833   57.7824   32.8997 C   0  0  1  0  0  0  0  0  0  0  0  0
   50.5201   58.7296   32.4731 O   0  0  0  0  0  0  0  0  0  0  0  0
   48.1248   58.3867   33.1795 C   0  0  1  0  0  0  0  0  0  0  0  0
   47.4732   58.9309   32.0225 O   0  0  0  0  0  0  0  0  0  0  0  0
   47.6867   56.9864   33.5420 C   0  0  1  0  0  0  0  0  0  0  0  0
   45.0354   51.9895   29.0494 O   0  0  0  0  0  0  0  0  0  0  0  0
   46.2954   52.3392   34.8598 N   0  0  0  0  0  0  0  0  0  0  0  0
   47.4911   52.8445   34.5524 C   0  0  0  0  0  0  0  0  0  0  0  0
   47.6582   54.1373   34.2762 N   0  0  0  0  0  0  0  0  0  0  0  0
   46.6080   54.9626   34.1728 C   0  0  0  0  0  0  0  0  0  0  0  0
   45.2992   54.4430   34.4296 C   0  0  0  0  0  0  0  0  0  0  0  0
   45.1915   53.0723   34.7926 C   0  0  0  0  0  0  0  0  0  0  0  0
   43.9806   52.5033   35.0713 N   0  0  0  0  0  0  0  0  0  0  0  0
   44.4293   55.4573   34.2568 N   0  0  0  0  0  0  0  0  0  0  0  0
   45.0864   56.5433   33.9138 C   0  0  0  0  0  0  0  0  0  0  0  0
   46.4393   56.3146   33.8577 N   0  0  0  0  0  0  0  0  0  0  0  0
  2  1  1  1  0  0  0
  2  3  1  0  0  0  0
  2  5  1  0  0  0  0
  3  4  1  0  0  0  0
  3 17  1  0  0  0  0
  5  6  1  0  0  0  0
  7  6  1  1  0  0  0
  7  8  1  0  0  0  0
  7  9  1  0  0  0  0
 10  9  1  1  0  0  0
 10 11  1  0  0  0  0
 10 12  1  0  0  0  0
 11 16  1  0  0  0  0
 12 13  1  6  0  0  0
 12 14  1  0  0  0  0
 14 15  1  6  0  0  0
 14 16  1  0  0  0  0
 16 27  1  6  0  0  0
 18 19  2  0  0  0  0
 18 23  1  0  0  0  0
 19 20  1  0  0  0  0
 20 21  2  0  0  0  0
 21 22  1  0  0  0  0
 21 27  1  0  0  0  0
 22 23  2  0  0  0  0
 22 25  1  0  0  0  0
 23 24  1  0  0  0  0
 25 26  2  0  0  0  0
 26 27  1  0  0  0  0
M  END
>  <CHROM.1>
-17.18028898,57.48155261,-78.03790556,-42.33492116,-106.61980019,71.14147661
72.68248467,47.37990562,54.92855230,31.92363421,-1.41099282,0.78715648,0.95254614

>  <Name>
ligand

>  <RI>
0

>  <Rbt.Current_Directory>
/home/itssahil/PROJECTS/Mol_Feturizer/New_Systems/rnas/3IQN

>  <Rbt.Executable>
rbdock ($Id: //depot/dev/client3/rdock/2013.1/src/exe/rbdock.cxx#4 $)

>  <Rbt.Library>
libRbt.so (2013.1, Build901 2013/11/27)

>  <Rbt.Parameter_File>
/export/apps/rDock/src/rDock_2013.1_src/data/scripts/dock_solv.prm

>  <Rbt.Receptor>
prm/pocket_docking_5.prm

>  <SCORE>
-13.8472

>  <SCORE.INTER>
-14.1122

>  <SCORE.INTER.CONST>
1

>  <SCORE.INTER.POLAR>
0

>  <SCORE.INTER.ROT>
7

>  <SCORE.INTER.SOLV>
9.39051

>  <SCORE.INTER.VDW>
-20.805

>  <SCORE.INTER.norm>
-0.522674

>  <SCORE.INTRA>
0.264997

>  <SCORE.INTRA.DIHEDRAL>
-0.195735

>  <SCORE.INTRA.DIHEDRAL.0>
10.0365

>  <SCORE.INTRA.POLAR>
0

>  <SCORE.INTRA.POLAR.0>
0

>  <SCORE.INTRA.REPUL>
0

>  <SCORE.INTRA.REPUL.0>
0

>  <SCORE.INTRA.SOLV>
1.81752

>  <SCORE.INTRA.SOLV.lig_0>
-48.6728

>  <SCORE.INTRA.VDW>
-0.545894

>  <SCORE.INTRA.VDW.0>
-1.10662

>  <SCORE.INTRA.norm>
0.00981471

>  <SCORE.RESTR>
0

>  <SCORE.RESTR.CAVITY>
0

>  <SCORE.RESTR.norm>
0

>  <SCORE.SYSTEM>
0

>  <SCORE.SYSTEM.CONST>
0

>  <SCORE.SYSTEM.DIHEDRAL>
0

>  <SCORE.SYSTEM.SOLV>
0

>  <SCORE.SYSTEM.norm>
0

>  <SCORE.heavy>
27

>  <SCORE.norm>
-0.51286

>  <RMSD>
4.917

$$$$
ligand
 OpenBabel11021811483D
libRbt.so/2013.1/901 2013/11/27
 27 29  0  0  0  0  0  0  0  0999 V2000
   47.0435   57.1485   28.3570 N   0  0  0  0  0  0  0  0  0  0  0  0
   46.1175   56.6270   29.3708 C   0  0  2  0  0  0  0  0  0  0  0  0
   44.7165   56.7881   28.8620 C   0  0  0  0  0  0  0  0  0  0  0  0
   44.5238   57.1651   27.7171 O   0  0  0  0  0  0  0  0  0  0  0  0
   46.2754   57.4029   30.6870 C   0  0  0  0  0  0  0  0  0  0  0  0
   47.5563   56.9465   31.3793 C   0  0  0  0  0  0  0  0  0  0  0  0
   47.8637   57.7884   32.9649 S   0  0  2  0  0  0  0  0  0  0  0  0
   48.7918   59.2870   32.5140 C   0  0  0  0  0  0  0  0  0  0  0  0
   49.1740   56.9334   33.9125 C   0  0  0  0  0  0  0  0  0  0  0  0
   48.4676   55.7123   34.4482 C   0  0  1  0  0  0  0  0  0  0  0  0
   48.0450   55.0440   33.3057 O   0  0  0  0  0  0  0  0  0  0  0  0
   49.2183   54.6018   35.1846 C   0  0  1  0  0  0  0  0  0  0  0  0
   49.2666   54.8112   36.5669 O   0  0  0  0  0  0  0  0  0  0  0  0
   48.3020   53.3622   34.7436 C   0  0  1  0  0  0  0  0  0  0  0  0
   46.9095   53.5088   35.0584 O   0  0  0  0  0  0  0  0  0  0  0  0
   48.6570   53.6944   33.3126 C   0  0  1  0  0  0  0  0  0  0  0  0
   43.7734   56.5259   29.5917 O   0  0  0  0  0  0  0  0  0  0  0  0
   50.2112   54.4576   28.5934 N   0  0  0  0  0  0  0  0  0  0  0  0
   50.6448   54.9552   29.7526 C   0  0  0  0  0  0  0  0  0  0  0  0
   50.1215   54.5792   30.9189 N   0  0  0  0  0  0  0  0  0  0  0  0
   49.0497   53.7768   30.9681 C   0  0  0  0  0  0  0  0  0  0  0  0
   48.5119   53.2743   29.7406 C   0  0  0  0  0  0  0  0  0  0  0  0
   49.1590   53.6514   28.5318 C   0  0  0  0  0  0  0  0  0  0  0  0
   48.7193   53.2007   27.3189 N   0  0  0  0  0  0  0  0  0  0  0  0
   47.4508   52.5070   30.0576 N   0  0  0  0  0  0  0  0  0  0  0  0
   47.2901   52.5005   31.3625 C   0  0  0  0  0  0  0  0  0  0  0  0
   48.2526   53.2522   31.9905 N   0  0  0  0  0  0  0  0  0  0  0  0
  2  1  1  6  0  0  0
  2  3  1  0  0  0  0
  2  5  1  0  0  0  0
  3  4  1  0  0  0  0
  3 17  1  0  0  0  0
  5  6  1  0  0  0  0
  7  6  1  6  0  0  0
  7  8  1  0  0  0  0
  7  9  1  0  0  0  0
 10  9  1  6  0  0  0
 10 11  1  0  0  0  0
 10 12  1  0  0  0  0
 11 16  1  0  0  0  0
 12 13  1  1  0  0  0
 12 14  1  0  0  0  0
 14 15  1  6  0  0  0
 14 16  1  0  0  0  0
 16 27  1  6  0  0  0
 18 19  2  0  0  0  0
 18 23  1  0  0  0  0
 19 20  1  0  0  0  0
 20 21  2  0  0  0  0
 21 22  1  0  0  0  0
 21 27  1  0  0  0  0
 22 23  2  0  0  0  0
 22 25  1  0  0  0  0
 23 24  1  0  0  0  0
 25 26  2  0  0  0  0
 26 27  1  0  0  0  0
M  END
>  <CHROM.1>
7.13686811,-75.48417395,-179.79777155,-88.02182470,-75.70906107,59.95839467
79.09567500,47.88086782,55.34097536,31.50250674,2.22920014,0.99340225,-1.98447080

>  <Name>
ligand

>  <RI>
0

>  <Rbt.Current_Directory>
/home/itssahil/PROJECTS/Mol_Feturizer/New_Systems/rnas/3IQN

>  <Rbt.Executable>
rbdock ($Id: //depot/dev/client3/rdock/2013.1/src/exe/rbdock.cxx#4 $)

>  <Rbt.Library>
libRbt.so (2013.1, Build901 2013/11/27)

>  <Rbt.Parameter_File>
/export/apps/rDock/src/rDock_2013.1_src/data/scripts/dock_solv.prm

>  <Rbt.Receptor>
prm/pocket_docking_5.prm

>  <SCORE>
-19.2871

>  <SCORE.INTER>
-15.0787

>  <SCORE.INTER.CONST>
1

>  <SCORE.INTER.POLAR>
0

>  <SCORE.INTER.ROT>
7

>  <SCORE.INTER.SOLV>
7.10289

>  <SCORE.INTER.VDW>
-20.6868

>  <SCORE.INTER.norm>
-0.558472

>  <SCORE.INTRA>
-4.20838

>  <SCORE.INTRA.DIHEDRAL>
-4.68179

>  <SCORE.INTRA.DIHEDRAL.0>
10.0365

>  <SCORE.INTRA.POLAR>
0

>  <SCORE.INTRA.POLAR.0>
0

>  <SCORE.INTRA.REPUL>
0

>  <SCORE.INTRA.REPUL.0>
0

>  <SCORE.INTRA.SOLV>
-0.414712

>  <SCORE.INTRA.SOLV.lig_0>
-48.6728

>  <SCORE.INTRA.VDW>
-1.66013

>  <SCORE.INTRA.VDW.0>
-1.10662

>  <SCORE.INTRA.norm>
-0.155866

>  <SCORE.RESTR>
0

>  <SCORE.RESTR.CAVITY>
0

>  <SCORE.RESTR.norm>
0

>  <SCORE.SYSTEM>
0

>  <SCORE.SYSTEM.CONST>
0

>  <SCORE.SYSTEM.DIHEDRAL>
0

>  <SCORE.SYSTEM.SOLV>
0

>  <SCORE.SYSTEM.norm>
0

>  <SCORE.heavy>
27

>  <SCORE.norm>
-0.714338

>  <RMSD>
4.917

$$$$
ligand
 OpenBabel11021811483D
libRbt.so/2013.1/901 2013/11/27
 27 29  0  0  0  0  0  0  0  0999 V2000
   50.0890   53.4491   26.3557 N   0  0  0  0  0  0  0  0  0  0  0  0
   49.1097   54.0696   25.4539 C   0  0  2  0  0  0  0  0  0  0  0  0
   49.8483   54.9143   24.4596 C   0  0  0  0  0  0  0  0  0  0  0  0
   49.2393   55.4636   23.5554 O   0  0  0  0  0  0  0  0  0  0  0  0
   48.1355   54.9511   26.2495 C   0  0  0  0  0  0  0  0  0  0  0  0
   48.9376   55.8906   27.1453 C   0  0  0  0  0  0  0  0  0  0  0  0
   47.9339   56.6987   28.4325 S   0  0  2  0  0  0  0  0  0  0  0  0
   46.8201   57.8068   27.5148 C   0  0  0  0  0  0  0  0  0  0  0  0
   48.9096   57.9679   29.3174 C   0  0  0  0  0  0  0  0  0  0  0  0
   48.0058   58.3591   30.4606 C   0  0  1  0  0  0  0  0  0  0  0  0
   48.1307   57.3065   31.3591 O   0  0  0  0  0  0  0  0  0  0  0  0
   48.3115   59.5582   31.3593 C   0  0  1  0  0  0  0  0  0  0  0  0
   47.7325   60.7422   30.8907 O   0  0  0  0  0  0  0  0  0  0  0  0
   47.6635   59.0080   32.7187 C   0  0  1  0  0  0  0  0  0  0  0  0
   46.2842   58.6270   32.6099 O   0  0  0  0  0  0  0  0  0  0  0  0
   48.6378   57.8553   32.6387 C   0  0  1  0  0  0  0  0  0  0  0  0
   51.0554   55.0617   24.5684 O   0  0  0  0  0  0  0  0  0  0  0  0
   45.7852   54.3671   34.8667 N   0  0  0  0  0  0  0  0  0  0  0  0
   45.4624   55.5133   34.2655 C   0  0  0  0  0  0  0  0  0  0  0  0
   46.3796   56.2838   33.6819 N   0  0  0  0  0  0  0  0  0  0  0  0
   47.6851   56.0010   33.7839 C   0  0  0  0  0  0  0  0  0  0  0  0
   48.0775   54.8135   34.4800 C   0  0  0  0  0  0  0  0  0  0  0  0
   47.0490   53.9919   35.0177 C   0  0  0  0  0  0  0  0  0  0  0  0
   47.3382   52.8324   35.6808 N   0  0  0  0  0  0  0  0  0  0  0  0
   49.4234   54.7609   34.4463 N   0  0  0  0  0  0  0  0  0  0  0  0
   49.8859   55.8080   33.7994 C   0  0  0  0  0  0  0  0  0  0  0  0
   48.8664   56.6098   33.3482 N   0  0  0  0  0  0  0  0  0  0  0  0
  2  1  1  1  0  0  0
  2  3  1  0  0  0  0
  2  5  1  0  0  0  0
  3  4  1  0  0  0  0
  3 17  1  0  0  0  0
  5  6  1  0  0  0  0
  7  6  1  6  0  0  0
  7  8  1  0  0  0  0
  7  9  1  0  0  0  0
 10  9  1  6  0  0  0
 10 11  1  0  0  0  0
 10 12  1  0  0  0  0
 11 16  1  0  0  0  0
 12 13  1  6  0  0  0
 12 14  1  0  0  0  0
 14 15  1  6  0  0  0
 14 16  1  0  0  0  0
 16 27  1  1  0  0  0
 18 19  2  0  0  0  0
 18 23  1  0  0  0  0
 19 20  1  0  0  0  0
 20 21  2  0  0  0  0
 21 22  1  0  0  0  0
 21 27  1  0  0  0  0
 22 23  2  0  0  0  0
 22 25  1  0  0  0  0
 23 24  1  0  0  0  0
 25 26  2  0  0  0  0
 26 27  1  0  0  0  0
M  END
>  <CHROM.1>
175.50021924,50.57965841,-165.78505415,-67.27924307,-171.34242049,76.59714746
-74.45455976,48.17411103,56.31763463,30.45964722,-0.57699775,-1.31148104
2.49562045

>  <Name>
ligand

>  <RI>
0

>  <Rbt.Current_Directory>
/home/itssahil/PROJECTS/Mol_Feturizer/New_Systems/rnas/3IQN

>  <Rbt.Executable>
rbdock ($Id: //depot/dev/client3/rdock/2013.1/src/exe/rbdock.cxx#4 $)

>  <Rbt.Library>
libRbt.so (2013.1, Build901 2013/11/27)

>  <Rbt.Parameter_File>
/export/apps/rDock/src/rDock_2013.1_src/data/scripts/dock_solv.prm

>  <Rbt.Receptor>
prm/pocket_docking_5.prm

>  <SCORE>
-16.6942

>  <SCORE.INTER>
-14.5761

>  <SCORE.INTER.CONST>
1

>  <SCORE.INTER.POLAR>
0

>  <SCORE.INTER.ROT>
7

>  <SCORE.INTER.SOLV>
11.9588

>  <SCORE.INTER.VDW>
-21.9703

>  <SCORE.INTER.norm>
-0.539855

>  <SCORE.INTRA>
-2.12335

>  <SCORE.INTRA.DIHEDRAL>
-4.35651

>  <SCORE.INTRA.DIHEDRAL.0>
10.0365

>  <SCORE.INTRA.POLAR>
0

>  <SCORE.INTRA.POLAR.0>
0

>  <SCORE.INTRA.REPUL>
0

>  <SCORE.INTRA.REPUL.0>
0

>  <SCORE.INTRA.SOLV>
0.0374014

>  <SCORE.INTRA.SOLV.lig_0>
-48.6728

>  <SCORE.INTRA.VDW>
0.0362092

>  <SCORE.INTRA.VDW.0>
-1.10662

>  <SCORE.INTRA.norm>
-0.0786424

>  <SCORE.RESTR>
0.00525826

>  <SCORE.RESTR.CAVITY>
0.00525826

>  <SCORE.RESTR.norm>
0.000194751

>  <SCORE.SYSTEM>
0

>  <SCORE.SYSTEM.CONST>
0

>  <SCORE.SYSTEM.DIHEDRAL>
0

>  <SCORE.SYSTEM.SOLV>
0

>  <SCORE.SYSTEM.norm>
0

>  <SCORE.heavy>
27

>  <SCORE.norm>
-0.618302

>  <RMSD>
4.930

$$$$
ligand
 OpenBabel11021811483D
libRbt.so/2013.1/901 2013/11/27
 27 29  0  0  0  0  0  0  0  0999 V2000
   47.5671   55.4922   27.4328 N   0  0  0  0  0  0  0  0  0  0  0  0
   47.5065   56.6833   28.2901 C   0  0  2  0  0  0  0  0  0  0  0  0
   46.8847   57.8006   27.5075 C   0  0  0  0  0  0  0  0  0  0  0  0
   47.2883   58.0557   26.3840 O   0  0  0  0  0  0  0  0  0  0  0  0
   48.9187   57.0941   28.7330 C   0  0  0  0  0  0  0  0  0  0  0  0
   48.8136   58.2938   29.6699 C   0  0  0  0  0  0  0  0  0  0  0  0
   47.9291   57.9290   31.2197 S   0  0  2  0  0  0  0  0  0  0  0  0
   47.4824   59.5620   31.8861 C   0  0  0  0  0  0  0  0  0  0  0  0
   49.0969   57.4123   32.5294 C   0  0  0  0  0  0  0  0  0  0  0  0
   48.5558   56.0715   32.9611 C   0  0  1  0  0  0  0  0  0  0  0  0
   48.6576   55.2877   31.8183 O   0  0  0  0  0  0  0  0  0  0  0  0
   49.2801   55.1998   33.9880 C   0  0  1  0  0  0  0  0  0  0  0  0
   48.8624   55.4541   35.2986 O   0  0  0  0  0  0  0  0  0  0  0  0
   48.8419   53.7617   33.4306 C   0  0  1  0  0  0  0  0  0  0  0  0
   47.4237   53.5724   33.3194 O   0  0  0  0  0  0  0  0  0  0  0  0
   49.5262   54.1294   32.1341 C   0  0  1  0  0  0  0  0  0  0  0  0
   45.9653   58.4411   27.9924 O   0  0  0  0  0  0  0  0  0  0  0  0
   46.3899   52.2538   28.6825 N   0  0  0  0  0  0  0  0  0  0  0  0
   46.1659   52.7211   29.9117 C   0  0  0  0  0  0  0  0  0  0  0  0
   47.1442   53.2306   30.6592 N   0  0  0  0  0  0  0  0  0  0  0  0
   48.4203   53.1799   30.2545 C   0  0  0  0  0  0  0  0  0  0  0  0
   48.7104   52.6240   28.9679 C   0  0  0  0  0  0  0  0  0  0  0  0
   47.6165   52.1640   28.1844 C   0  0  0  0  0  0  0  0  0  0  0  0
   47.8062   51.6363   26.9382 N   0  0  0  0  0  0  0  0  0  0  0  0
   50.0462   52.6836   28.8026 N   0  0  0  0  0  0  0  0  0  0  0  0
   50.5956   53.2188   29.8705 C   0  0  0  0  0  0  0  0  0  0  0  0
   49.6481   53.5641   30.8028 N   0  0  0  0  0  0  0  0  0  0  0  0
  2  1  1  6  0  0  0
  2  3  1  0  0  0  0
  2  5  1  0  0  0  0
  3  4  1  0  0  0  0
  3 17  1  0  0  0  0
  5  6  1  0  0  0  0
  7  6  1  6  0  0  0
  7  8  1  0  0  0  0
  7  9  1  0  0  0  0
 10  9  1  6  0  0  0
 10 11  1  0  0  0  0
 10 12  1  0  0  0  0
 11 16  1  0  0  0  0
 12 13  1  1  0  0  0
 12 14  1  0  0  0  0
 14 15  1  6  0  0  0
 14 16  1  0  0  0  0
 16 27  1  6  0  0  0
 18 19  2  0  0  0  0
 18 23  1  0  0  0  0
 19 20  1  0  0  0  0
 20 21  2  0  0  0  0
 21 22  1  0  0  0  0
 21 27  1  0  0  0  0
 22 23  2  0  0  0  0
 22 25  1  0  0  0  0
 23 24  1  0  0  0  0
 25 26  2  0  0  0  0
 26 27  1  0  0  0  0
M  END
>  <CHROM.1>
-48.98096041,-177.50593878,63.75131921,-162.66315429,-124.45034244,62.46469639
-60.61205797,48.15945768,55.30808884,30.36094009,2.68720326,1.32154575,-2.68754887

>  <Name>
ligand

>  <RI>
0

>  <Rbt.Current_Directory>
/home/itssahil/PROJECTS/Mol_Feturizer/New_Systems/rnas/3IQN

>  <Rbt.Executable>
rbdock ($Id: //depot/dev/client3/rdock/2013.1/src/exe/rbdock.cxx#4 $)

>  <Rbt.Library>
libRbt.so (2013.1, Build901 2013/11/27)

>  <Rbt.Parameter_File>
/export/apps/rDock/src/rDock_2013.1_src/data/scripts/dock_solv.prm

>  <Rbt.Receptor>
prm/pocket_docking_4.prm

>  <SCORE>
-13.7588

>  <SCORE.INTER>
-11.5129

>  <SCORE.INTER.CONST>
1

>  <SCORE.INTER.POLAR>
0

>  <SCORE.INTER.ROT>
7

>  <SCORE.INTER.SOLV>
12.478

>  <SCORE.INTER.VDW>
-20.1013

>  <SCORE.INTER.norm>
-0.426403

>  <SCORE.INTRA>
-2.24592

>  <SCORE.INTRA.DIHEDRAL>
-0.662838

>  <SCORE.INTRA.DIHEDRAL.0>
10.0365

>  <SCORE.INTRA.POLAR>
0

>  <SCORE.INTRA.POLAR.0>
0

>  <SCORE.INTRA.REPUL>
0

>  <SCORE.INTRA.REPUL.0>
0

>  <SCORE.INTRA.SOLV>
1.30655

>  <SCORE.INTRA.SOLV.lig_0>
-48.6728

>  <SCORE.INTRA.VDW>
-2.56778

>  <SCORE.INTRA.VDW.0>
-1.10662

>  <SCORE.INTRA.norm>
-0.0831824

>  <SCORE.RESTR>
0

>  <SCORE.RESTR.CAVITY>
0

>  <SCORE.RESTR.norm>
0

>  <SCORE.SYSTEM>
0

>  <SCORE.SYSTEM.CONST>
0

>  <SCORE.SYSTEM.DIHEDRAL>
0

>  <SCORE.SYSTEM.SOLV>
0

>  <SCORE.SYSTEM.norm>
0

>  <SCORE.heavy>
27

>  <SCORE.norm>
-0.509585

>  <RMSD>
4.931

$$$$
ligand
 OpenBabel11021811483D
libRbt.so/2013.1/901 2013/11/27
 27 29  0  0  0  0  0  0  0  0999 V2000
   45.6295   57.6308   27.6132 N   0  0  0  0  0  0  0  0  0  0  0  0
   46.8196   57.6703   28.4731 C   0  0  2  0  0  0  0  0  0  0  0  0
   47.5356   56.3586   28.3535 C   0  0  0  0  0  0  0  0  0  0  0  0
   48.7353   56.3377   28.1291 O   0  0  0  0  0  0  0  0  0  0  0  0
   46.4129   57.8987   29.9366 C   0  0  0  0  0  0  0  0  0  0  0  0
   47.6192   57.6329   30.8323 C   0  0  0  0  0  0  0  0  0  0  0  0
   47.4599   58.3543   32.4971 S   0  0  2  0  0  0  0  0  0  0  0  0
   48.0006   60.0804   32.3007 C   0  0  0  0  0  0  0  0  0  0  0  0
   48.8058   57.7718   33.5903 C   0  0  0  0  0  0  0  0  0  0  0  0
   48.5032   56.3023   33.7526 C   0  0  1  0  0  0  0  0  0  0  0  0
   48.6611   55.7864   32.4722 O   0  0  0  0  0  0  0  0  0  0  0  0
   49.4096   55.3748   34.5634 C   0  0  1  0  0  0  0  0  0  0  0  0
   49.0313   55.2945   35.9077 O   0  0  0  0  0  0  0  0  0  0  0  0
   49.1685   54.0232   33.7353 C   0  0  1  0  0  0  0  0  0  0  0  0
   47.7926   53.6316   33.6212 O   0  0  0  0  0  0  0  0  0  0  0  0
   49.7145   54.7456   32.5252 C   0  0  1  0  0  0  0  0  0  0  0  0
   46.9171   55.3157   28.4970 O   0  0  0  0  0  0  0  0  0  0  0  0
   47.3986   51.8436   29.1364 N   0  0  0  0  0  0  0  0  0  0  0  0
   47.2111   51.9815   30.4499 C   0  0  0  0  0  0  0  0  0  0  0  0
   47.9080   52.8584   31.1714 N   0  0  0  0  0  0  0  0  0  0  0  0
   48.9173   53.5521   30.6284 C   0  0  0  0  0  0  0  0  0  0  0  0
   49.1948   53.3824   29.2346 C   0  0  0  0  0  0  0  0  0  0  0  0
   48.3688   52.4876   28.5002 C   0  0  0  0  0  0  0  0  0  0  0  0
   48.5558   52.2825   27.1621 N   0  0  0  0  0  0  0  0  0  0  0  0
   50.2436   54.1751   28.9399 N   0  0  0  0  0  0  0  0  0  0  0  0
   50.6329   54.8067   30.0254 C   0  0  0  0  0  0  0  0  0  0  0  0
   49.8479   54.4813   31.1042 N   0  0  0  0  0  0  0  0  0  0  0  0
  2  1  1  6  0  0  0
  2  3  1  0  0  0  0
  2  5  1  0  0  0  0
  3  4  1  0  0  0  0
  3 17  1  0  0  0  0
  5  6  1  0  0  0  0
  7  6  1  6  0  0  0
  7  8  1  0  0  0  0
  7  9  1  0  0  0  0
 10  9  1  6  0  0  0
 10 11  1  0  0  0  0
 10 12  1  0  0  0  0
 11 16  1  0  0  0  0
 12 13  1  1  0  0  0
 12 14  1  0  0  0  0
 14 15  1  6  0  0  0
 14 16  1  0  0  0  0
 16 27  1  6  0  0  0
 18 19  2  0  0  0  0
 18 23  1  0  0  0  0
 19 20  1  0  0  0  0
 20 21  2  0  0  0  0
 21 22  1  0  0  0  0
 21 27  1  0  0  0  0
 22 23  2  0  0  0  0
 22 25  1  0  0  0  0
 23 24  1  0  0  0  0
 25 26  2  0  0  0  0
 26 27  1  0  0  0  0
M  END
>  <CHROM.1>
130.16125951,167.77715677,161.70121754,-83.93876690,-67.34777306,64.75537326
-84.90646352,48.25668356,55.45935511,30.97787863,1.68766655,1.22806889,-2.27909518

>  <Name>
ligand

>  <RI>
0

>  <Rbt.Current_Directory>
/home/itssahil/PROJECTS/Mol_Feturizer/New_Systems/rnas/3IQN

>  <Rbt.Executable>
rbdock ($Id: //depot/dev/client3/rdock/2013.1/src/exe/rbdock.cxx#4 $)

>  <Rbt.Library>
libRbt.so (2013.1, Build901 2013/11/27)

>  <Rbt.Parameter_File>
/export/apps/rDock/src/rDock_2013.1_src/data/scripts/dock_solv.prm

>  <Rbt.Receptor>
prm/pocket_docking_2.prm

>  <SCORE>
-10.5571

>  <SCORE.INTER>
-7.60958

>  <SCORE.INTER.CONST>
1

>  <SCORE.INTER.POLAR>
0

>  <SCORE.INTER.ROT>
7

>  <SCORE.INTER.SOLV>
13.1227

>  <SCORE.INTER.VDW>
-17.7139

>  <SCORE.INTER.norm>
-0.281836

>  <SCORE.INTRA>
-3.70721

>  <SCORE.INTRA.DIHEDRAL>
-4.30342

>  <SCORE.INTRA.DIHEDRAL.0>
10.0365

>  <SCORE.INTRA.POLAR>
0

>  <SCORE.INTRA.POLAR.0>
0

>  <SCORE.INTRA.REPUL>
0

>  <SCORE.INTRA.REPUL.0>
0

>  <SCORE.INTRA.SOLV>
-0.475208

>  <SCORE.INTRA.SOLV.lig_0>
-48.6728

>  <SCORE.INTRA.VDW>
-1.31789

>  <SCORE.INTRA.VDW.0>
-1.10662

>  <SCORE.INTRA.norm>
-0.137304

>  <SCORE.RESTR>
0.759706

>  <SCORE.RESTR.CAVITY>
0.759706

>  <SCORE.RESTR.norm>
0.0281373

>  <SCORE.SYSTEM>
0

>  <SCORE.SYSTEM.CONST>
0

>  <SCORE.SYSTEM.DIHEDRAL>
0

>  <SCORE.SYSTEM.SOLV>
0

>  <SCORE.SYSTEM.norm>
0

>  <SCORE.heavy>
27

>  <SCORE.norm>
-0.391003

>  <RMSD>
4.933

$$$$
ligand
 OpenBabel11021811483D
libRbt.so/2013.1/901 2013/11/27
 27 29  0  0  0  0  0  0  0  0999 V2000
   49.2840   53.0447   27.6926 N   0  0  0  0  0  0  0  0  0  0  0  0
   48.2916   53.8346   26.9520 C   0  0  2  0  0  0  0  0  0  0  0  0
   47.6243   52.9404   25.9506 C   0  0  0  0  0  0  0  0  0  0  0  0
   46.4571   53.1298   25.6473 O   0  0  0  0  0  0  0  0  0  0  0  0
   48.9752   54.9997   26.2209 C   0  0  0  0  0  0  0  0  0  0  0  0
   49.4694   56.0091   27.2529 C   0  0  0  0  0  0  0  0  0  0  0  0
   48.1279   56.7802   28.2139 S   0  0  2  0  0  0  0  0  0  0  0  0
   47.2203   57.7899   27.0026 C   0  0  0  0  0  0  0  0  0  0  0  0
   48.7734   58.1319   29.2637 C   0  0  0  0  0  0  0  0  0  0  0  0
   47.6726   58.3348   30.2757 C   0  0  1  0  0  0  0  0  0  0  0  0
   47.9423   57.3873   31.2556 O   0  0  0  0  0  0  0  0  0  0  0  0
   47.5688   59.6105   31.1129 C   0  0  1  0  0  0  0  0  0  0  0  0
   46.7790   60.5907   30.5027 O   0  0  0  0  0  0  0  0  0  0  0  0
   46.9176   58.9761   32.4335 C   0  0  1  0  0  0  0  0  0  0  0  0
   45.6953   58.2583   32.2096 O   0  0  0  0  0  0  0  0  0  0  0  0
   48.1454   58.1010   32.5383 C   0  0  1  0  0  0  0  0  0  0  0  0
   48.2573   52.0350   25.4307 O   0  0  0  0  0  0  0  0  0  0  0  0
   45.9365   54.3537   35.0577 N   0  0  0  0  0  0  0  0  0  0  0  0
   45.4212   55.3650   34.3570 C   0  0  0  0  0  0  0  0  0  0  0  0
   46.1930   56.2375   33.7101 N   0  0  0  0  0  0  0  0  0  0  0  0
   47.5261   56.2090   33.8399 C   0  0  0  0  0  0  0  0  0  0  0  0
   48.1157   55.1781   34.6390 C   0  0  0  0  0  0  0  0  0  0  0  0
   47.2445   54.2311   35.2444 C   0  0  0  0  0  0  0  0  0  0  0  0
   47.7282   53.2060   36.0078 N   0  0  0  0  0  0  0  0  0  0  0  0
   49.4489   55.3707   34.6135 N   0  0  0  0  0  0  0  0  0  0  0  0
   49.7244   56.4252   33.8781 C   0  0  0  0  0  0  0  0  0  0  0  0
   48.5842   56.9843   33.3553 N   0  0  0  0  0  0  0  0  0  0  0  0
  2  1  1  6  0  0  0
  2  3  1  0  0  0  0
  2  5  1  0  0  0  0
  3  4  1  0  0  0  0
  3 17  1  0  0  0  0
  5  6  1  0  0  0  0
  7  6  1  6  0  0  0
  7  8  1  0  0  0  0
  7  9  1  0  0  0  0
 10  9  1  6  0  0  0
 10 11  1  0  0  0  0
 10 12  1  0  0  0  0
 11 16  1  0  0  0  0
 12 13  1  6  0  0  0
 12 14  1  0  0  0  0
 14 15  1  6  0  0  0
 14 16  1  0  0  0  0
 16 27  1  1  0  0  0
 18 19  2  0  0  0  0
 18 23  1  0  0  0  0
 19 20  1  0  0  0  0
 20 21  2  0  0  0  0
 21 22  1  0  0  0  0
 21 27  1  0  0  0  0
 22 23  2  0  0  0  0
 22 25  1  0  0  0  0
 23 24  1  0  0  0  0
 25 26  2  0  0  0  0
 26 27  1  0  0  0  0
M  END
>  <CHROM.1>
147.94562718,-69.08910628,-63.52376701,-67.15441498,-162.33910311,84.84039776
-81.58487261,47.74800098,56.10882259,30.66864433,-0.46640818,-1.46578733
2.45463252

>  <Name>
ligand

>  <RI>
0

>  <Rbt.Current_Directory>
/home/itssahil/PROJECTS/Mol_Feturizer/New_Systems/rnas/3IQN

>  <Rbt.Executable>
rbdock ($Id: //depot/dev/client3/rdock/2013.1/src/exe/rbdock.cxx#4 $)

>  <Rbt.Library>
libRbt.so (2013.1, Build901 2013/11/27)

>  <Rbt.Parameter_File>
/export/apps/rDock/src/rDock_2013.1_src/data/scripts/dock_solv.prm

>  <Rbt.Receptor>
prm/pocket_docking_6.prm

>  <SCORE>
-17.0796

>  <SCORE.INTER>
-14.3712

>  <SCORE.INTER.CONST>
1

>  <SCORE.INTER.POLAR>
0

>  <SCORE.INTER.ROT>
7

>  <SCORE.INTER.SOLV>
11.0542

>  <SCORE.INTER.VDW>
-21.5322

>  <SCORE.INTER.norm>
-0.532268

>  <SCORE.INTRA>
-2.70832

>  <SCORE.INTRA.DIHEDRAL>
-3.21246

>  <SCORE.INTRA.DIHEDRAL.0>
10.0365

>  <SCORE.INTRA.POLAR>
0

>  <SCORE.INTRA.POLAR.0>
0

>  <SCORE.INTRA.REPUL>
0

>  <SCORE.INTRA.REPUL.0>
0

>  <SCORE.INTRA.SOLV>
0.273385

>  <SCORE.INTRA.SOLV.lig_0>
-48.6728

>  <SCORE.INTRA.VDW>
-1.23878

>  <SCORE.INTRA.VDW.0>
-1.10662

>  <SCORE.INTRA.norm>
-0.100308

>  <SCORE.RESTR>
0

>  <SCORE.RESTR.CAVITY>
0

>  <SCORE.RESTR.norm>
0

>  <SCORE.SYSTEM>
0

>  <SCORE.SYSTEM.CONST>
0

>  <SCORE.SYSTEM.DIHEDRAL>
0

>  <SCORE.SYSTEM.SOLV>
0

>  <SCORE.SYSTEM.norm>
0

>  <SCORE.heavy>
27

>  <SCORE.norm>
-0.632576

>  <RMSD>
4.944

$$$$
ligand
 OpenBabel11021811483D
libRbt.so/2013.1/901 2013/11/27
 27 29  0  0  0  0  0  0  0  0999 V2000
   45.7512   57.3852   30.0087 N   0  0  0  0  0  0  0  0  0  0  0  0
   46.9858   58.0768   29.6154 C   0  0  2  0  0  0  0  0  0  0  0  0
   47.4557   57.5052   28.3116 C   0  0  0  0  0  0  0  0  0  0  0  0
   47.0660   56.4053   27.9530 O   0  0  0  0  0  0  0  0  0  0  0  0
   48.0725   57.8764   30.6823 C   0  0  0  0  0  0  0  0  0  0  0  0
   47.5489   58.3839   32.0227 C   0  0  0  0  0  0  0  0  0  0  0  0
   48.6731   58.0468   33.4155 S   0  0  2  0  0  0  0  0  0  0  0  0
   50.2727   58.7351   32.8884 C   0  0  0  0  0  0  0  0  0  0  0  0
   49.1409   56.2790   33.4609 C   0  0  0  0  0  0  0  0  0  0  0  0
   47.8238   55.5710   33.2585 C   0  0  1  0  0  0  0  0  0  0  0  0
   47.8062   55.2827   31.8994 O   0  0  0  0  0  0  0  0  0  0  0  0
   47.5455   54.1930   33.8608 C   0  0  1  0  0  0  0  0  0  0  0  0
   46.9668   54.2694   35.1321 O   0  0  0  0  0  0  0  0  0  0  0  0
   46.5597   53.6326   32.7273 C   0  0  1  0  0  0  0  0  0  0  0  0
   45.4156   54.4599   32.4703 O   0  0  0  0  0  0  0  0  0  0  0  0
   47.6940   53.8132   31.7450 C   0  0  1  0  0  0  0  0  0  0  0  0
   48.2150   58.1504   27.6060 O   0  0  0  0  0  0  0  0  0  0  0  0
   51.0649   55.4527   28.3957 N   0  0  0  0  0  0  0  0  0  0  0  0
   50.9764   55.6344   29.7142 C   0  0  0  0  0  0  0  0  0  0  0  0
   50.0173   55.0611   30.4401 N   0  0  0  0  0  0  0  0  0  0  0  0
   49.0246   54.3771   29.8558 C   0  0  0  0  0  0  0  0  0  0  0  0
   49.0467   54.2162   28.4337 C   0  0  0  0  0  0  0  0  0  0  0  0
   50.1361   54.7878   27.7205 C   0  0  0  0  0  0  0  0  0  0  0  0
   50.2412   54.6642   26.3635 N   0  0  0  0  0  0  0  0  0  0  0  0
   47.9523   53.5055   28.0983 N   0  0  0  0  0  0  0  0  0  0  0  0
   47.2643   53.2240   29.1828 C   0  0  0  0  0  0  0  0  0  0  0  0
   47.8767   53.7187   30.3081 N   0  0  0  0  0  0  0  0  0  0  0  0
  2  1  1  1  0  0  0
  2  3  1  0  0  0  0
  2  5  1  0  0  0  0
  3  4  1  0  0  0  0
  3 17  1  0  0  0  0
  5  6  1  0  0  0  0
  7  6  1  6  0  0  0
  7  8  1  0  0  0  0
  7  9  1  0  0  0  0
 10  9  1  1  0  0  0
 10 11  1  0  0  0  0
 10 12  1  0  0  0  0
 11 16  1  0  0  0  0
 12 13  1  1  0  0  0
 12 14  1  0  0  0  0
 14 15  1  6  0  0  0
 14 16  1  0  0  0  0
 16 27  1  6  0  0  0
 18 19  2  0  0  0  0
 18 23  1  0  0  0  0
 19 20  1  0  0  0  0
 20 21  2  0  0  0  0
 21 22  1  0  0  0  0
 21 27  1  0  0  0  0
 22 23  2  0  0  0  0
 22 25  1  0  0  0  0
 23 24  1  0  0  0  0
 25 26  2  0  0  0  0
 26 27  1  0  0  0  0
M  END
>  <CHROM.1>
-20.08186625,-57.27981703,173.94355500,53.32144117,-45.74496707,97.20542992
52.12839877,48.22901526,55.80527481,30.75669895,-2.37509519,-1.24316612,-2.45202100

>  <Name>
ligand

>  <RI>
0

>  <Rbt.Current_Directory>
/home/itssahil/PROJECTS/Mol_Feturizer/New_Systems/rnas/3IQN

>  <Rbt.Executable>
rbdock ($Id: //depot/dev/client3/rdock/2013.1/src/exe/rbdock.cxx#4 $)

>  <Rbt.Library>
libRbt.so (2013.1, Build901 2013/11/27)

>  <Rbt.Parameter_File>
/export/apps/rDock/src/rDock_2013.1_src/data/scripts/dock_solv.prm

>  <Rbt.Receptor>
prm/pocket_docking_3.prm

>  <SCORE>
-11.7448

>  <SCORE.INTER>
-8.33083

>  <SCORE.INTER.CONST>
1

>  <SCORE.INTER.POLAR>
0

>  <SCORE.INTER.ROT>
7

>  <SCORE.INTER.SOLV>
7.40491

>  <SCORE.INTER.VDW>
-16.2889

>  <SCORE.INTER.norm>
-0.308549

>  <SCORE.INTRA>
-3.44775

>  <SCORE.INTRA.DIHEDRAL>
-2.16875

>  <SCORE.INTRA.DIHEDRAL.0>
10.0365

>  <SCORE.INTRA.POLAR>
0

>  <SCORE.INTRA.POLAR.0>
0

>  <SCORE.INTRA.REPUL>
0

>  <SCORE.INTRA.REPUL.0>
0

>  <SCORE.INTRA.SOLV>
1.1977

>  <SCORE.INTRA.SOLV.lig_0>
-48.6728

>  <SCORE.INTRA.VDW>
-2.96223

>  <SCORE.INTRA.VDW.0>
-1.10662

>  <SCORE.INTRA.norm>
-0.127695

>  <SCORE.RESTR>
0.0338126

>  <SCORE.RESTR.CAVITY>
0.0338126

>  <SCORE.RESTR.norm>
0.00125232

>  <SCORE.SYSTEM>
0

>  <SCORE.SYSTEM.CONST>
0

>  <SCORE.SYSTEM.DIHEDRAL>
0

>  <SCORE.SYSTEM.SOLV>
0

>  <SCORE.SYSTEM.norm>
0

>  <SCORE.heavy>
27

>  <SCORE.norm>
-0.434991

>  <RMSD>
4.962

$$$$
ligand
 OpenBabel11021811483D
libRbt.so/2013.1/901 2013/11/27
 27 29  0  0  0  0  0  0  0  0999 V2000
   47.9629   53.9483   27.6031 N   0  0  0  0  0  0  0  0  0  0  0  0
   49.2909   54.5483   27.4190 C   0  0  2  0  0  0  0  0  0  0  0  0
   49.8457   54.8967   28.7674 C   0  0  0  0  0  0  0  0  0  0  0  0
   50.3004   54.0194   29.4842 O   0  0  0  0  0  0  0  0  0  0  0  0
   49.1874   55.8208   26.5648 C   0  0  0  0  0  0  0  0  0  0  0  0
   47.7432   56.3128   26.5835 C   0  0  0  0  0  0  0  0  0  0  0  0
   47.1260   56.6880   28.2555 S   0  0  2  0  0  0  0  0  0  0  0  0
   45.4069   57.2254   27.9980 C   0  0  0  0  0  0  0  0  0  0  0  0
   47.8156   58.2691   28.8642 C   0  0  0  0  0  0  0  0  0  0  0  0
   47.0964   58.4743   30.1748 C   0  0  1  0  0  0  0  0  0  0  0  0
   47.6215   57.4880   31.0007 O   0  0  0  0  0  0  0  0  0  0  0  0
   47.3113   59.7253   31.0279 C   0  0  1  0  0  0  0  0  0  0  0  0
   46.4100   60.7489   30.7169 O   0  0  0  0  0  0  0  0  0  0  0  0
   47.0820   59.0701   32.4731 C   0  0  1  0  0  0  0  0  0  0  0  0
   45.8233   58.3987   32.6301 O   0  0  0  0  0  0  0  0  0  0  0  0
   48.2447   58.1537   32.1688 C   0  0  1  0  0  0  0  0  0  0  0  0
   49.8545   56.0605   29.1364 O   0  0  0  0  0  0  0  0  0  0  0  0
   47.1784   53.2646   32.6469 N   0  0  0  0  0  0  0  0  0  0  0  0
   46.4963   54.2614   32.0807 C   0  0  0  0  0  0  0  0  0  0  0  0
   46.9860   55.4987   32.0126 N   0  0  0  0  0  0  0  0  0  0  0  0
   48.1338   55.8216   32.6234 C   0  0  0  0  0  0  0  0  0  0  0  0
   48.8636   54.7931   33.3004 C   0  0  0  0  0  0  0  0  0  0  0  0
   48.3277   53.4762   33.2754 C   0  0  0  0  0  0  0  0  0  0  0  0
   48.9714   52.4345   33.8821 N   0  0  0  0  0  0  0  0  0  0  0  0
   49.9619   55.3683   33.8280 N   0  0  0  0  0  0  0  0  0  0  0  0
   49.9651   56.6511   33.5395 C   0  0  0  0  0  0  0  0  0  0  0  0
   48.8724   56.9983   32.7836 N   0  0  0  0  0  0  0  0  0  0  0  0
  2  1  1  1  0  0  0
  2  3  1  0  0  0  0
  2  5  1  0  0  0  0
  3  4  1  0  0  0  0
  3 17  1  0  0  0  0
  5  6  1  0  0  0  0
  7  6  1  6  0  0  0
  7  8  1  0  0  0  0
  7  9  1  0  0  0  0
 10  9  1  6  0  0  0
 10 11  1  0  0  0  0
 10 12  1  0  0  0  0
 11 16  1  0  0  0  0
 12 13  1  6  0  0  0
 12 14  1  0  0  0  0
 14 15  1  6  0  0  0
 14 16  1  0  0  0  0
 16 27  1  1  0  0  0
 18 19  2  0  0  0  0
 18 23  1  0  0  0  0
 19 20  1  0  0  0  0
 20 21  2  0  0  0  0
 21 22  1  0  0  0  0
 21 27  1  0  0  0  0
 22 23  2  0  0  0  0
 22 25  1  0  0  0  0
 23 24  1  0  0  0  0
 25 26  2  0  0  0  0
 26 27  1  0  0  0  0
M  END
>  <CHROM.1>
76.73924356,19.15164262,59.06158150,-179.37209037,174.57399906,69.72408880
-34.03408222,48.00416541,56.30560044,30.59885814,-1.96387480,-1.16359198
1.57172693

>  <Name>
ligand

>  <RI>
0

>  <Rbt.Current_Directory>
/home/itssahil/PROJECTS/Mol_Feturizer/New_Systems/rnas/3IQN

>  <Rbt.Executable>
rbdock ($Id: //depot/dev/client3/rdock/2013.1/src/exe/rbdock.cxx#4 $)

>  <Rbt.Library>
libRbt.so (2013.1, Build901 2013/11/27)

>  <Rbt.Parameter_File>
/export/apps/rDock/src/rDock_2013.1_src/data/scripts/dock_solv.prm

>  <Rbt.Receptor>
prm/pocket_docking_2.prm

>  <SCORE>
-0.225557

>  <SCORE.INTER>
-6.19091

>  <SCORE.INTER.CONST>
1

>  <SCORE.INTER.POLAR>
0

>  <SCORE.INTER.ROT>
7

>  <SCORE.INTER.SOLV>
16.6778

>  <SCORE.INTER.VDW>
-17.9532

>  <SCORE.INTER.norm>
-0.229293

>  <SCORE.INTRA>
5.15512

>  <SCORE.INTRA.DIHEDRAL>
-2.01646

>  <SCORE.INTRA.DIHEDRAL.0>
10.0365

>  <SCORE.INTRA.POLAR>
0

>  <SCORE.INTRA.POLAR.0>
0

>  <SCORE.INTRA.REPUL>
0

>  <SCORE.INTRA.REPUL.0>
0

>  <SCORE.INTRA.SOLV>
1.96542

>  <SCORE.INTRA.SOLV.lig_0>
-48.6728

>  <SCORE.INTRA.VDW>
5.18064

>  <SCORE.INTRA.VDW.0>
-1.10662

>  <SCORE.INTRA.norm>
0.19093

>  <SCORE.RESTR>
0.810238

>  <SCORE.RESTR.CAVITY>
0.810238

>  <SCORE.RESTR.norm>
0.0300088

>  <SCORE.SYSTEM>
0

>  <SCORE.SYSTEM.CONST>
0

>  <SCORE.SYSTEM.DIHEDRAL>
0

>  <SCORE.SYSTEM.SOLV>
0

>  <SCORE.SYSTEM.norm>
0

>  <SCORE.heavy>
27

>  <SCORE.norm>
-0.00835396

>  <RMSD>
4.963

$$$$
ligand
 OpenBabel11021811483D
libRbt.so/2013.1/901 2013/11/27
 27 29  0  0  0  0  0  0  0  0999 V2000
   47.7874   51.7898   26.2832 N   0  0  0  0  0  0  0  0  0  0  0  0
   47.7625   52.2516   27.6773 C   0  0  2  0  0  0  0  0  0  0  0  0
   46.3422   52.2382   28.1567 C   0  0  0  0  0  0  0  0  0  0  0  0
   45.4298   52.4078   27.3636 O   0  0  0  0  0  0  0  0  0  0  0  0
   48.3218   53.6787   27.7765 C   0  0  0  0  0  0  0  0  0  0  0  0
   48.5974   54.0010   29.2422 C   0  0  0  0  0  0  0  0  0  0  0  0
   49.3853   55.6240   29.4926 S   0  0  2  0  0  0  0  0  0  0  0  0
   51.0305   55.4550   28.7341 C   0  0  0  0  0  0  0  0  0  0  0  0
   49.9095   55.8314   31.2327 C   0  0  0  0  0  0  0  0  0  0  0  0
   49.2830   57.1471   31.6244 C   0  0  1  0  0  0  0  0  0  0  0  0
   47.9940   56.8003   32.0103 O   0  0  0  0  0  0  0  0  0  0  0  0
   49.7585   57.9378   32.8442 C   0  0  1  0  0  0  0  0  0  0  0  0
   50.7675   58.8544   32.5302 O   0  0  0  0  0  0  0  0  0  0  0  0
   48.3626   58.6160   33.2470 C   0  0  1  0  0  0  0  0  0  0  0  0
   47.7430   59.3732   32.1972 O   0  0  0  0  0  0  0  0  0  0  0  0
   47.8100   57.2199   33.4196 C   0  0  1  0  0  0  0  0  0  0  0  0
   46.1035   52.0418   29.3379 O   0  0  0  0  0  0  0  0  0  0  0  0
   46.1295   52.8081   35.1462 N   0  0  0  0  0  0  0  0  0  0  0  0
   47.3678   53.2482   34.9177 C   0  0  0  0  0  0  0  0  0  0  0  0
   47.6067   54.4910   34.5010 N   0  0  0  0  0  0  0  0  0  0  0  0
   46.6021   55.3143   34.1728 C   0  0  0  0  0  0  0  0  0  0  0  0
   45.2566   54.8556   34.3401 C   0  0  0  0  0  0  0  0  0  0  0  0
   45.0644   53.5457   34.8592 C   0  0  0  0  0  0  0  0  0  0  0  0
   43.8121   53.0390   35.0657 N   0  0  0  0  0  0  0  0  0  0  0  0
   44.4450   55.8540   33.9405 N   0  0  0  0  0  0  0  0  0  0  0  0
   45.1713   56.8746   33.5410 C   0  0  0  0  0  0  0  0  0  0  0  0
   46.5139   56.6168   33.6713 N   0  0  0  0  0  0  0  0  0  0  0  0
  2  1  1  6  0  0  0
  2  3  1  0  0  0  0
  2  5  1  0  0  0  0
  3  4  1  0  0  0  0
  3 17  1  0  0  0  0
  5  6  1  0  0  0  0
  7  6  1  1  0  0  0
  7  8  1  0  0  0  0
  7  9  1  0  0  0  0
 10  9  1  1  0  0  0
 10 11  1  0  0  0  0
 10 12  1  0  0  0  0
 11 16  1  0  0  0  0
 12 13  1  6  0  0  0
 12 14  1  0  0  0  0
 14 15  1  6  0  0  0
 14 16  1  0  0  0  0
 16 27  1  6  0  0  0
 18 19  2  0  0  0  0
 18 23  1  0  0  0  0
 19 20  1  0  0  0  0
 20 21  2  0  0  0  0
 21 22  1  0  0  0  0
 21 27  1  0  0  0  0
 22 23  2  0  0  0  0
 22 25  1  0  0  0  0
 23 24  1  0  0  0  0
 25 26  2  0  0  0  0
 26 27  1  0  0  0  0
M  END
>  <CHROM.1>
-29.06755944,-166.47144578,175.60910008,-66.30997849,-127.35554192,84.88382797
90.46493851,47.55574571,55.15680947,31.56422624,1.37913227,-0.78824495,-2.18296757

>  <Name>
ligand

>  <RI>
0

>  <Rbt.Current_Directory>
/home/itssahil/PROJECTS/Mol_Feturizer/New_Systems/rnas/3IQN

>  <Rbt.Executable>
rbdock ($Id: //depot/dev/client3/rdock/2013.1/src/exe/rbdock.cxx#4 $)

>  <Rbt.Library>
libRbt.so (2013.1, Build901 2013/11/27)

>  <Rbt.Parameter_File>
/export/apps/rDock/src/rDock_2013.1_src/data/scripts/dock_solv.prm

>  <Rbt.Receptor>
prm/pocket_docking_7.prm

>  <SCORE>
-16.3677

>  <SCORE.INTER>
-14.4759

>  <SCORE.INTER.CONST>
1

>  <SCORE.INTER.POLAR>
0

>  <SCORE.INTER.ROT>
7

>  <SCORE.INTER.SOLV>
11.712

>  <SCORE.INTER.VDW>
-21.8212

>  <SCORE.INTER.norm>
-0.536144

>  <SCORE.INTRA>
-1.89176

>  <SCORE.INTRA.DIHEDRAL>
0.220909

>  <SCORE.INTRA.DIHEDRAL.0>
10.0365

>  <SCORE.INTRA.POLAR>
0

>  <SCORE.INTRA.POLAR.0>
0

>  <SCORE.INTRA.REPUL>
0

>  <SCORE.INTRA.REPUL.0>
0

>  <SCORE.INTRA.SOLV>
-1.19239

>  <SCORE.INTRA.SOLV.lig_0>
-48.6728

>  <SCORE.INTRA.VDW>
-1.40602

>  <SCORE.INTRA.VDW.0>
-1.10662

>  <SCORE.INTRA.norm>
-0.0700653

>  <SCORE.RESTR>
0

>  <SCORE.RESTR.CAVITY>
0

>  <SCORE.RESTR.norm>
0

>  <SCORE.SYSTEM>
0

>  <SCORE.SYSTEM.CONST>
0

>  <SCORE.SYSTEM.DIHEDRAL>
0

>  <SCORE.SYSTEM.SOLV>
0

>  <SCORE.SYSTEM.norm>
0

>  <SCORE.heavy>
27

>  <SCORE.norm>
-0.606209

>  <RMSD>
4.976

$$$$
ligand
 OpenBabel11021811483D
libRbt.so/2013.1/901 2013/11/27
 27 29  0  0  0  0  0  0  0  0999 V2000
   49.5174   53.1404   31.1176 N   0  0  0  0  0  0  0  0  0  0  0  0
   49.2080   53.3820   29.7022 C   0  0  2  0  0  0  0  0  0  0  0  0
   48.7820   52.0856   29.0813 C   0  0  0  0  0  0  0  0  0  0  0  0
   47.6594   51.9733   28.6152 O   0  0  0  0  0  0  0  0  0  0  0  0
   50.4473   53.9167   28.9691 C   0  0  0  0  0  0  0  0  0  0  0  0
   50.0973   54.1337   27.4998 C   0  0  0  0  0  0  0  0  0  0  0  0
   48.5841   55.1166   27.2519 S   0  0  2  0  0  0  0  0  0  0  0  0
   48.5989   55.5396   25.4824 C   0  0  0  0  0  0  0  0  0  0  0  0
   48.7835   56.8017   27.9347 C   0  0  0  0  0  0  0  0  0  0  0  0
   47.5784   56.9530   28.8303 C   0  0  1  0  0  0  0  0  0  0  0  0
   48.0828   56.7363   30.1067 O   0  0  0  0  0  0  0  0  0  0  0  0
   46.8696   58.2960   29.0122 C   0  0  1  0  0  0  0  0  0  0  0  0
   45.8345   58.4863   28.0906 O   0  0  0  0  0  0  0  0  0  0  0  0
   46.3705   58.0989   30.5230 C   0  0  1  0  0  0  0  0  0  0  0  0
   45.5764   56.9234   30.7398 O   0  0  0  0  0  0  0  0  0  0  0  0
   47.8232   57.9518   30.9135 C   0  0  1  0  0  0  0  0  0  0  0  0
   49.5668   51.1517   29.0305 O   0  0  0  0  0  0  0  0  0  0  0  0
   48.1270   53.9648   33.9598 N   0  0  0  0  0  0  0  0  0  0  0  0
   47.3641   54.1975   32.8906 C   0  0  0  0  0  0  0  0  0  0  0  0
   47.4750   55.3180   32.1782 N   0  0  0  0  0  0  0  0  0  0  0  0
   48.2729   56.3160   32.5807 C   0  0  0  0  0  0  0  0  0  0  0  0
   49.0591   56.1317   33.7625 C   0  0  0  0  0  0  0  0  0  0  0  0
   48.9536   54.8854   34.4391 C   0  0  0  0  0  0  0  0  0  0  0  0
   49.6834   54.6228   35.5643 N   0  0  0  0  0  0  0  0  0  0  0  0
   49.7609   57.2661   33.9525 N   0  0  0  0  0  0  0  0  0  0  0  0
   49.4708   58.1245   32.9997 C   0  0  0  0  0  0  0  0  0  0  0  0
   48.5689   57.5983   32.1077 N   0  0  0  0  0  0  0  0  0  0  0  0
  2  1  1  1  0  0  0
  2  3  1  0  0  0  0
  2  5  1  0  0  0  0
  3  4  1  0  0  0  0
  3 17  1  0  0  0  0
  5  6  1  0  0  0  0
  7  6  1  6  0  0  0
  7  8  1  0  0  0  0
  7  9  1  0  0  0  0
 10  9  1  6  0  0  0
 10 11  1  0  0  0  0
 10 12  1  0  0  0  0
 11 16  1  0  0  0  0
 12 13  1  6  0  0  0
 12 14  1  0  0  0  0
 14 15  1  6  0  0  0
 14 16  1  0  0  0  0
 16 27  1  1  0  0  0
 18 19  2  0  0  0  0
 18 23  1  0  0  0  0
 19 20  1  0  0  0  0
 20 21  2  0  0  0  0
 21 22  1  0  0  0  0
 21 27  1  0  0  0  0
 22 23  2  0  0  0  0
 22 25  1  0  0  0  0
 23 24  1  0  0  0  0
 25 26  2  0  0  0  0
 26 27  1  0  0  0  0
M  END
>  <CHROM.1>
118.19545310,179.06076729,50.95677983,167.75670357,-127.65935521,101.24666666
-49.22866401,48.36056682,55.48113401,30.38734017,-1.51982500,1.18883628,-1.82594830

>  <Name>
ligand

>  <RI>
0

>  <Rbt.Current_Directory>
/home/itssahil/PROJECTS/Mol_Feturizer/New_Systems/rnas/3IQN

>  <Rbt.Executable>
rbdock ($Id: //depot/dev/client3/rdock/2013.1/src/exe/rbdock.cxx#4 $)

>  <Rbt.Library>
libRbt.so (2013.1, Build901 2013/11/27)

>  <Rbt.Parameter_File>
/export/apps/rDock/src/rDock_2013.1_src/data/scripts/dock_solv.prm

>  <Rbt.Receptor>
prm/pocket_docking_2.prm

>  <SCORE>
-4.87859

>  <SCORE.INTER>
-5.24515

>  <SCORE.INTER.CONST>
1

>  <SCORE.INTER.POLAR>
0

>  <SCORE.INTER.ROT>
7

>  <SCORE.INTER.SOLV>
17.2758

>  <SCORE.INTER.VDW>
-17.522

>  <SCORE.INTER.norm>
-0.194265

>  <SCORE.INTRA>
0.0629733

>  <SCORE.INTRA.DIHEDRAL>
1.87643

>  <SCORE.INTRA.DIHEDRAL.0>
10.0365

>  <SCORE.INTRA.POLAR>
0

>  <SCORE.INTRA.POLAR.0>
0

>  <SCORE.INTRA.REPUL>
0

>  <SCORE.INTRA.REPUL.0>
0

>  <SCORE.INTRA.SOLV>
1.38571

>  <SCORE.INTRA.SOLV.lig_0>
-48.6728

>  <SCORE.INTRA.VDW>
-1.5681

>  <SCORE.INTRA.VDW.0>
-1.10662

>  <SCORE.INTRA.norm>
0.00233234

>  <SCORE.RESTR>
0.303587

>  <SCORE.RESTR.CAVITY>
0.303587

>  <SCORE.RESTR.norm>
0.011244

>  <SCORE.SYSTEM>
0

>  <SCORE.SYSTEM.CONST>
0

>  <SCORE.SYSTEM.DIHEDRAL>
0

>  <SCORE.SYSTEM.SOLV>
0

>  <SCORE.SYSTEM.norm>
0

>  <SCORE.heavy>
27

>  <SCORE.norm>
-0.180689

>  <RMSD>
4.977

$$$$
ligand
 OpenBabel11021811483D
libRbt.so/2013.1/901 2013/11/27
 27 29  0  0  0  0  0  0  0  0999 V2000
   47.4600   57.9070   26.5601 N   0  0  0  0  0  0  0  0  0  0  0  0
   47.8174   56.4827   26.5273 C   0  0  2  0  0  0  0  0  0  0  0  0
   46.6068   55.6806   26.8998 C   0  0  0  0  0  0  0  0  0  0  0  0
   46.5475   54.4966   26.6088 O   0  0  0  0  0  0  0  0  0  0  0  0
   48.9487   56.1936   27.5252 C   0  0  0  0  0  0  0  0  0  0  0  0
   48.5698   56.7747   28.8843 C   0  0  0  0  0  0  0  0  0  0  0  0
   49.7529   56.3610   30.2058 S   0  0  2  0  0  0  0  0  0  0  0  0
   49.2984   54.6742   30.7142 C   0  0  0  0  0  0  0  0  0  0  0  0
   49.3288   57.2345   31.7559 C   0  0  0  0  0  0  0  0  0  0  0  0
   47.8253   57.3431   31.6873 C   0  0  1  0  0  0  0  0  0  0  0  0
   47.3787   56.2253   32.3814 O   0  0  0  0  0  0  0  0  0  0  0  0
   47.0621   58.4618   32.3979 C   0  0  1  0  0  0  0  0  0  0  0  0
   46.8805   59.5873   31.5872 O   0  0  0  0  0  0  0  0  0  0  0  0
   45.7097   57.6619   32.7168 C   0  0  1  0  0  0  0  0  0  0  0  0
   45.0731   57.0851   31.5672 O   0  0  0  0  0  0  0  0  0  0  0  0
   46.5497   56.6932   33.5170 C   0  0  1  0  0  0  0  0  0  0  0  0
   45.6912   56.2128   27.5073 O   0  0  0  0  0  0  0  0  0  0  0  0
   42.6142   53.8356   34.7876 N   0  0  0  0  0  0  0  0  0  0  0  0
   42.6790   55.0254   34.1878 C   0  0  0  0  0  0  0  0  0  0  0  0
   43.8435   55.5996   33.8891 N   0  0  0  0  0  0  0  0  0  0  0  0
   45.0023   55.0618   34.2927 C   0  0  0  0  0  0  0  0  0  0  0  0
   44.9718   53.8174   34.9991 C   0  0  0  0  0  0  0  0  0  0  0  0
   43.7032   53.2153   35.2234 C   0  0  0  0  0  0  0  0  0  0  0  0
   43.5885   52.0190   35.8741 N   0  0  0  0  0  0  0  0  0  0  0  0
   46.2471   53.4975   35.2936 N   0  0  0  0  0  0  0  0  0  0  0  0
   47.0493   54.4338   34.8369 C   0  0  0  0  0  0  0  0  0  0  0  0
   46.3493   55.4245   34.1931 N   0  0  0  0  0  0  0  0  0  0  0  0
  2  1  1  1  0  0  0
  2  3  1  0  0  0  0
  2  5  1  0  0  0  0
  3  4  1  0  0  0  0
  3 17  1  0  0  0  0
  5  6  1  0  0  0  0
  7  6  1  6  0  0  0
  7  8  1  0  0  0  0
  7  9  1  0  0  0  0
 10  9  1  1  0  0  0
 10 11  1  0  0  0  0
 10 12  1  0  0  0  0
 11 16  1  0  0  0  0
 12 13  1  6  0  0  0
 12 14  1  0  0  0  0
 14 15  1  6  0  0  0
 14 16  1  0  0  0  0
 16 27  1  6  0  0  0
 18 19  2  0  0  0  0
 18 23  1  0  0  0  0
 19 20  1  0  0  0  0
 20 21  2  0  0  0  0
 21 22  1  0  0  0  0
 21 27  1  0  0  0  0
 22 23  2  0  0  0  0
 22 25  1  0  0  0  0
 23 24  1  0  0  0  0
 25 26  2  0  0  0  0
 26 27  1  0  0  0  0
M  END
>  <CHROM.1>
160.73943165,50.68086384,174.33582620,-80.78437084,31.35523494,93.59783771
-119.66247853,46.58725617,55.88052822,31.56047362,0.99636408,-0.61065013
-1.59042658

>  <Name>
ligand

>  <RI>
0

>  <Rbt.Current_Directory>
/home/itssahil/PROJECTS/Mol_Feturizer/New_Systems/rnas/3IQN

>  <Rbt.Executable>
rbdock ($Id: //depot/dev/client3/rdock/2013.1/src/exe/rbdock.cxx#4 $)

>  <Rbt.Library>
libRbt.so (2013.1, Build901 2013/11/27)

>  <Rbt.Parameter_File>
/export/apps/rDock/src/rDock_2013.1_src/data/scripts/dock_solv.prm

>  <Rbt.Receptor>
prm/pocket_docking_8.prm

>  <SCORE>
-13.0544

>  <SCORE.INTER>
-12.2515

>  <SCORE.INTER.CONST>
1

>  <SCORE.INTER.POLAR>
0

>  <SCORE.INTER.ROT>
7

>  <SCORE.INTER.SOLV>
15.7449

>  <SCORE.INTER.VDW>
-21.6826

>  <SCORE.INTER.norm>
-0.453759

>  <SCORE.INTRA>
-0.802898

>  <SCORE.INTRA.DIHEDRAL>
-1.49678

>  <SCORE.INTRA.DIHEDRAL.0>
10.0365

>  <SCORE.INTRA.POLAR>
0

>  <SCORE.INTRA.POLAR.0>
0

>  <SCORE.INTRA.REPUL>
0

>  <SCORE.INTRA.REPUL.0>
0

>  <SCORE.INTRA.SOLV>
-0.049687

>  <SCORE.INTRA.SOLV.lig_0>
-48.6728

>  <SCORE.INTRA.VDW>
-0.0296651

>  <SCORE.INTRA.VDW.0>
-1.10662

>  <SCORE.INTRA.norm>
-0.029737

>  <SCORE.RESTR>
0

>  <SCORE.RESTR.CAVITY>
0

>  <SCORE.RESTR.norm>
0

>  <SCORE.SYSTEM>
0

>  <SCORE.SYSTEM.CONST>
0

>  <SCORE.SYSTEM.DIHEDRAL>
0

>  <SCORE.SYSTEM.SOLV>
0

>  <SCORE.SYSTEM.norm>
0

>  <SCORE.heavy>
27

>  <SCORE.norm>
-0.483496

>  <RMSD>
4.990

$$$$
ligand
 OpenBabel11021811483D
libRbt.so/2013.1/901 2013/11/27
 27 29  0  0  0  0  0  0  0  0999 V2000
   46.0034   55.8093   28.5570 N   0  0  0  0  0  0  0  0  0  0  0  0
   46.1040   57.2101   28.1271 C   0  0  2  0  0  0  0  0  0  0  0  0
   47.3724   57.3772   27.3456 C   0  0  0  0  0  0  0  0  0  0  0  0
   47.3912   58.1002   26.3622 O   0  0  0  0  0  0  0  0  0  0  0  0
   46.1295   58.1422   29.3477 C   0  0  0  0  0  0  0  0  0  0  0  0
   47.2487   57.6986   30.2852 C   0  0  0  0  0  0  0  0  0  0  0  0
   47.1202   58.4108   31.9566 S   0  0  2  0  0  0  0  0  0  0  0  0
   47.5207   60.1717   31.7349 C   0  0  0  0  0  0  0  0  0  0  0  0
   48.5588   57.9327   32.9801 C   0  0  0  0  0  0  0  0  0  0  0  0
   48.3772   56.4446   33.1522 C   0  0  1  0  0  0  0  0  0  0  0  0
   48.6144   55.9312   31.8830 O   0  0  0  0  0  0  0  0  0  0  0  0
   49.3354   55.6056   33.9989 C   0  0  1  0  0  0  0  0  0  0  0  0
   48.9274   55.5068   35.3332 O   0  0  0  0  0  0  0  0  0  0  0  0
   49.2331   54.2302   33.1813 C   0  0  1  0  0  0  0  0  0  0  0  0
   47.8991   53.7220   33.0344 O   0  0  0  0  0  0  0  0  0  0  0  0
   49.7501   54.9841   31.9777 C   0  0  1  0  0  0  0  0  0  0  0  0
   48.3863   56.8004   27.7062 O   0  0  0  0  0  0  0  0  0  0  0  0
   47.7131   51.9352   28.5392 N   0  0  0  0  0  0  0  0  0  0  0  0
   47.4742   52.0715   29.8445 C   0  0  0  0  0  0  0  0  0  0  0  0
   48.0970   52.9906   30.5812 N   0  0  0  0  0  0  0  0  0  0  0  0
   49.0842   53.7355   30.0660 C   0  0  0  0  0  0  0  0  0  0  0  0
   49.4173   53.5718   28.6836 C   0  0  0  0  0  0  0  0  0  0  0  0
   48.6670   52.6277   27.9300 C   0  0  0  0  0  0  0  0  0  0  0  0
   48.9100   52.4242   26.6006 N   0  0  0  0  0  0  0  0  0  0  0  0
   50.4301   54.4195   28.4170 N   0  0  0  0  0  0  0  0  0  0  0  0
   50.7472   55.0791   29.5093 C   0  0  0  0  0  0  0  0  0  0  0  0
   49.9456   54.7180   30.5643 N   0  0  0  0  0  0  0  0  0  0  0  0
  2  1  1  1  0  0  0
  2  3  1  0  0  0  0
  2  5  1  0  0  0  0
  3  4  1  0  0  0  0
  3 17  1  0  0  0  0
  5  6  1  0  0  0  0
  7  6  1  6  0  0  0
  7  8  1  0  0  0  0
  7  9  1  0  0  0  0
 10  9  1  6  0  0  0
 10 11  1  0  0  0  0
 10 12  1  0  0  0  0
 11 16  1  0  0  0  0
 12 13  1  1  0  0  0
 12 14  1  0  0  0  0
 14 15  1  6  0  0  0
 14 16  1  0  0  0  0
 16 27  1  6  0  0  0
 18 19  2  0  0  0  0
 18 23  1  0  0  0  0
 19 20  1  0  0  0  0
 20 21  2  0  0  0  0
 21 22  1  0  0  0  0
 21 27  1  0  0  0  0
 22 23  2  0  0  0  0
 22 25  1  0  0  0  0
 23 24  1  0  0  0  0
 25 26  2  0  0  0  0
 26 27  1  0  0  0  0
M  END
>  <CHROM.1>
141.54596600,54.16327974,-164.52512827,-70.60764044,-67.16786793,69.27350799
-83.17416000,48.23618895,55.67106406,30.40092419,1.43491206,1.20864720,-2.03265904

>  <Name>
ligand

>  <RI>
0

>  <Rbt.Current_Directory>
/home/itssahil/PROJECTS/Mol_Feturizer/New_Systems/rnas/3IQN

>  <Rbt.Executable>
rbdock ($Id: //depot/dev/client3/rdock/2013.1/src/exe/rbdock.cxx#4 $)

>  <Rbt.Library>
libRbt.so (2013.1, Build901 2013/11/27)

>  <Rbt.Parameter_File>
/export/apps/rDock/src/rDock_2013.1_src/data/scripts/dock_solv.prm

>  <Rbt.Receptor>
prm/pocket_docking_4.prm

>  <SCORE>
-18.235

>  <SCORE.INTER>
-14.6233

>  <SCORE.INTER.CONST>
1

>  <SCORE.INTER.POLAR>
0

>  <SCORE.INTER.ROT>
7

>  <SCORE.INTER.SOLV>
8.1066

>  <SCORE.INTER.VDW>
-20.7177

>  <SCORE.INTER.norm>
-0.541603

>  <SCORE.INTRA>
-3.61197

>  <SCORE.INTRA.DIHEDRAL>
-5.60865

>  <SCORE.INTRA.DIHEDRAL.0>
10.0365

>  <SCORE.INTRA.POLAR>
0

>  <SCORE.INTRA.POLAR.0>
0

>  <SCORE.INTRA.REPUL>
0

>  <SCORE.INTRA.REPUL.0>
0

>  <SCORE.INTRA.SOLV>
0.161506

>  <SCORE.INTRA.SOLV.lig_0>
-48.6728

>  <SCORE.INTRA.VDW>
-0.888393

>  <SCORE.INTRA.VDW.0>
-1.10662

>  <SCORE.INTRA.norm>
-0.133777

>  <SCORE.RESTR>
0.000209733

>  <SCORE.RESTR.CAVITY>
0.000209733

>  <SCORE.RESTR.norm>
7.76789e-06

>  <SCORE.SYSTEM>
0

>  <SCORE.SYSTEM.CONST>
0

>  <SCORE.SYSTEM.DIHEDRAL>
0

>  <SCORE.SYSTEM.SOLV>
0

>  <SCORE.SYSTEM.norm>
0

>  <SCORE.heavy>
27

>  <SCORE.norm>
-0.675372

>  <RMSD>
4.992

$$$$
ligand
 OpenBabel11021811483D
libRbt.so/2013.1/901 2013/11/27
 27 29  0  0  0  0  0  0  0  0999 V2000
   45.8710   54.7613   28.7798 N   0  0  0  0  0  0  0  0  0  0  0  0
   44.9440   53.6702   29.1074 C   0  0  2  0  0  0  0  0  0  0  0  0
   44.5970   53.7627   30.5629 C   0  0  0  0  0  0  0  0  0  0  0  0
   43.6536   53.1272   31.0058 O   0  0  0  0  0  0  0  0  0  0  0  0
   45.5993   52.3103   28.8238 C   0  0  0  0  0  0  0  0  0  0  0  0
   45.8641   52.1918   27.3258 C   0  0  0  0  0  0  0  0  0  0  0  0
   47.3936   53.0239   26.7913 S   0  0  2  0  0  0  0  0  0  0  0  0
   47.5058   52.6731   25.0095 C   0  0  0  0  0  0  0  0  0  0  0  0
   48.8681   52.0929   27.3437 C   0  0  0  0  0  0  0  0  0  0  0  0
   49.9719   53.1184   27.2594 C   0  0  1  0  0  0  0  0  0  0  0  0
   49.6743   54.0126   28.2804 O   0  0  0  0  0  0  0  0  0  0  0  0
   51.4259   52.7697   27.5807 C   0  0  1  0  0  0  0  0  0  0  0  0
   52.1391   52.3489   26.4534 O   0  0  0  0  0  0  0  0  0  0  0  0
   51.8909   54.1931   28.1537 C   0  0  1  0  0  0  0  0  0  0  0  0
   51.6815   55.2938   27.2569 O   0  0  0  0  0  0  0  0  0  0  0  0
   50.8247   54.0401   29.2140 C   0  0  1  0  0  0  0  0  0  0  0  0
   45.2707   54.4624   31.3028 O   0  0  0  0  0  0  0  0  0  0  0  0
   48.5822   58.5301   29.4981 N   0  0  0  0  0  0  0  0  0  0  0  0
   49.1156   57.8782   28.4637 C   0  0  0  0  0  0  0  0  0  0  0  0
   49.6238   56.6531   28.5911 N   0  0  0  0  0  0  0  0  0  0  0  0
   49.7340   56.0729   29.7936 C   0  0  0  0  0  0  0  0  0  0  0  0
   49.2338   56.7692   30.9397 C   0  0  0  0  0  0  0  0  0  0  0  0
   48.6349   58.0419   30.7308 C   0  0  0  0  0  0  0  0  0  0  0  0
   48.1169   58.7635   31.7694 N   0  0  0  0  0  0  0  0  0  0  0  0
   49.4658   55.9864   32.0115 N   0  0  0  0  0  0  0  0  0  0  0  0
   50.0652   54.8818   31.6246 C   0  0  0  0  0  0  0  0  0  0  0  0
   50.2488   54.8606   30.2638 N   0  0  0  0  0  0  0  0  0  0  0  0
  2  1  1  1  0  0  0
  2  3  1  0  0  0  0
  2  5  1  0  0  0  0
  3  4  1  0  0  0  0
  3 17  1  0  0  0  0
  5  6  1  0  0  0  0
  7  6  1  1  0  0  0
  7  8  1  0  0  0  0
  7  9  1  0  0  0  0
 10  9  1  1  0  0  0
 10 11  1  0  0  0  0
 10 12  1  0  0  0  0
 11 16  1  0  0  0  0
 12 13  1  6  0  0  0
 12 14  1  0  0  0  0
 14 15  1  6  0  0  0
 14 16  1  0  0  0  0
 16 27  1  1  0  0  0
 18 19  2  0  0  0  0
 18 23  1  0  0  0  0
 19 20  1  0  0  0  0
 20 21  2  0  0  0  0
 21 22  1  0  0  0  0
 21 27  1  0  0  0  0
 22 23  2  0  0  0  0
 22 25  1  0  0  0  0
 23 24  1  0  0  0  0
 25 26  2  0  0  0  0
 26 27  1  0  0  0  0
M  END
>  <CHROM.1>
165.95671982,-64.39834954,81.97997783,177.63220997,-160.95583655,69.40293386
-53.22222545,48.44481677,54.54052544,28.88506112,2.98994407,0.29336071,0.72476488

>  <Name>
ligand

>  <RI>
0

>  <Rbt.Current_Directory>
/home/itssahil/PROJECTS/Mol_Feturizer/New_Systems/rnas/3IQN

>  <Rbt.Executable>
rbdock ($Id: //depot/dev/client3/rdock/2013.1/src/exe/rbdock.cxx#4 $)

>  <Rbt.Library>
libRbt.so (2013.1, Build901 2013/11/27)

>  <Rbt.Parameter_File>
/export/apps/rDock/src/rDock_2013.1_src/data/scripts/dock_solv.prm

>  <Rbt.Receptor>
prm/pocket_docking_8.prm

>  <SCORE>
-10.7743

>  <SCORE.INTER>
-8.90684

>  <SCORE.INTER.CONST>
1

>  <SCORE.INTER.POLAR>
0

>  <SCORE.INTER.ROT>
7

>  <SCORE.INTER.SOLV>
8.88174

>  <SCORE.INTER.VDW>
-17.1651

>  <SCORE.INTER.norm>
-0.329883

>  <SCORE.INTRA>
-1.86747

>  <SCORE.INTRA.DIHEDRAL>
-3.31199

>  <SCORE.INTRA.DIHEDRAL.0>
10.0365

>  <SCORE.INTRA.POLAR>
0

>  <SCORE.INTRA.POLAR.0>
0

>  <SCORE.INTRA.REPUL>
0.000528843

>  <SCORE.INTRA.REPUL.0>
0

>  <SCORE.INTRA.SOLV>
1.64371

>  <SCORE.INTRA.SOLV.lig_0>
-48.6728

>  <SCORE.INTRA.VDW>
-1.03597

>  <SCORE.INTRA.VDW.0>
-1.10662

>  <SCORE.INTRA.norm>
-0.0691655

>  <SCORE.RESTR>
0

>  <SCORE.RESTR.CAVITY>
0

>  <SCORE.RESTR.norm>
0

>  <SCORE.SYSTEM>
0

>  <SCORE.SYSTEM.CONST>
0

>  <SCORE.SYSTEM.DIHEDRAL>
0

>  <SCORE.SYSTEM.SOLV>
0

>  <SCORE.SYSTEM.norm>
0

>  <SCORE.heavy>
27

>  <SCORE.norm>
-0.399049

>  <RMSD>
4.994

$$$$
ligand
 OpenBabel11021811483D
libRbt.so/2013.1/901 2013/11/27
 27 29  0  0  0  0  0  0  0  0999 V2000
   45.1370   53.5105   30.5497 N   0  0  0  0  0  0  0  0  0  0  0  0
   46.3967   53.4059   29.8016 C   0  0  2  0  0  0  0  0  0  0  0  0
   46.1654   52.5382   28.6012 C   0  0  0  0  0  0  0  0  0  0  0  0
   45.0546   52.0801   28.3855 O   0  0  0  0  0  0  0  0  0  0  0  0
   47.4891   52.7801   30.6815 C   0  0  0  0  0  0  0  0  0  0  0  0
   48.8546   53.1218   30.0924 C   0  0  0  0  0  0  0  0  0  0  0  0
   49.2123   54.9077   30.0781 S   0  0  2  0  0  0  0  0  0  0  0  0
   50.7531   55.0573   29.1222 C   0  0  0  0  0  0  0  0  0  0  0  0
   49.8474   55.4572   31.7030 C   0  0  0  0  0  0  0  0  0  0  0  0
   49.1928   56.8041   31.8887 C   0  0  1  0  0  0  0  0  0  0  0  0
   47.8633   56.4952   32.1489 O   0  0  0  0  0  0  0  0  0  0  0  0
   49.5279   57.7093   33.0750 C   0  0  1  0  0  0  0  0  0  0  0  0
   50.5770   58.5921   32.7976 O   0  0  0  0  0  0  0  0  0  0  0  0
   48.1013   58.4221   33.2407 C   0  0  1  0  0  0  0  0  0  0  0  0
   47.6196   59.0739   32.0564 O   0  0  0  0  0  0  0  0  0  0  0  0
   47.5171   57.0488   33.4791 C   0  0  1  0  0  0  0  0  0  0  0  0
   47.0873   52.3062   27.8350 O   0  0  0  0  0  0  0  0  0  0  0  0
   45.5718   52.9263   35.5982 N   0  0  0  0  0  0  0  0  0  0  0  0
   46.8335   53.3448   35.4860 C   0  0  0  0  0  0  0  0  0  0  0  0
   47.1393   54.5133   34.9234 N   0  0  0  0  0  0  0  0  0  0  0  0
   46.1988   55.2622   34.3322 C   0  0  0  0  0  0  0  0  0  0  0  0
   44.8400   54.8143   34.3720 C   0  0  0  0  0  0  0  0  0  0  0  0
   44.5650   53.5958   35.0516 C   0  0  0  0  0  0  0  0  0  0  0  0
   43.2923   53.1079   35.1504 N   0  0  0  0  0  0  0  0  0  0  0  0
   44.1021   55.7283   33.7121 N   0  0  0  0  0  0  0  0  0  0  0  0
   44.8861   56.6869   33.2704 C   0  0  0  0  0  0  0  0  0  0  0  0
   46.1937   56.4719   33.6305 N   0  0  0  0  0  0  0  0  0  0  0  0
  2  1  1  1  0  0  0
  2  3  1  0  0  0  0
  2  5  1  0  0  0  0
  3  4  1  0  0  0  0
  3 17  1  0  0  0  0
  5  6  1  0  0  0  0
  7  6  1  1  0  0  0
  7  8  1  0  0  0  0
  7  9  1  0  0  0  0
 10  9  1  1  0  0  0
 10 11  1  0  0  0  0
 10 12  1  0  0  0  0
 11 16  1  0  0  0  0
 12 13  1  6  0  0  0
 12 14  1  0  0  0  0
 14 15  1  6  0  0  0
 14 16  1  0  0  0  0
 16 27  1  6  0  0  0
 18 19  2  0  0  0  0
 18 23  1  0  0  0  0
 19 20  1  0  0  0  0
 20 21  2  0  0  0  0
 21 22  1  0  0  0  0
 21 27  1  0  0  0  0
 22 23  2  0  0  0  0
 22 25  1  0  0  0  0
 23 24  1  0  0  0  0
 25 26  2  0  0  0  0
 26 27  1  0  0  0  0
M  END
>  <CHROM.1>
1.30911402,-160.37054478,63.04226072,-171.94626349,-141.09390493,72.32932585
94.05803314,47.19436856,55.03912955,32.07185519,1.01711529,-0.69463109,-2.21879957

>  <Name>
ligand

>  <RI>
0

>  <Rbt.Current_Directory>
/home/itssahil/PROJECTS/Mol_Feturizer/New_Systems/rnas/3IQN

>  <Rbt.Executable>
rbdock ($Id: //depot/dev/client3/rdock/2013.1/src/exe/rbdock.cxx#4 $)

>  <Rbt.Library>
libRbt.so (2013.1, Build901 2013/11/27)

>  <Rbt.Parameter_File>
/export/apps/rDock/src/rDock_2013.1_src/data/scripts/dock_solv.prm

>  <Rbt.Receptor>
prm/pocket_docking_8.prm

>  <SCORE>
-16.8014

>  <SCORE.INTER>
-14.1631

>  <SCORE.INTER.CONST>
1

>  <SCORE.INTER.POLAR>
0

>  <SCORE.INTER.ROT>
7

>  <SCORE.INTER.SOLV>
8.46528

>  <SCORE.INTER.VDW>
-20.5305

>  <SCORE.INTER.norm>
-0.524558

>  <SCORE.INTRA>
-2.63834

>  <SCORE.INTRA.DIHEDRAL>
-0.532758

>  <SCORE.INTRA.DIHEDRAL.0>
10.0365

>  <SCORE.INTRA.POLAR>
0

>  <SCORE.INTRA.POLAR.0>
0

>  <SCORE.INTRA.REPUL>
0

>  <SCORE.INTRA.REPUL.0>
0

>  <SCORE.INTRA.SOLV>
-0.790264

>  <SCORE.INTRA.SOLV.lig_0>
-48.6728

>  <SCORE.INTRA.VDW>
-1.97683

>  <SCORE.INTRA.VDW.0>
-1.10662

>  <SCORE.INTRA.norm>
-0.0977165

>  <SCORE.RESTR>
0

>  <SCORE.RESTR.CAVITY>
0

>  <SCORE.RESTR.norm>
0

>  <SCORE.SYSTEM>
0

>  <SCORE.SYSTEM.CONST>
0

>  <SCORE.SYSTEM.DIHEDRAL>
0

>  <SCORE.SYSTEM.SOLV>
0

>  <SCORE.SYSTEM.norm>
0

>  <SCORE.heavy>
27

>  <SCORE.norm>
-0.622274

>  <RMSD>
5.004

$$$$
ligand
 OpenBabel11021811483D
libRbt.so/2013.1/901 2013/11/27
 27 29  0  0  0  0  0  0  0  0999 V2000
   44.8875   54.2661   30.6554 N   0  0  0  0  0  0  0  0  0  0  0  0
   46.1019   53.9277   29.9017 C   0  0  2  0  0  0  0  0  0  0  0  0
   46.8462   52.8649   30.6526 C   0  0  0  0  0  0  0  0  0  0  0  0
   47.3161   51.9111   30.0530 O   0  0  0  0  0  0  0  0  0  0  0  0
   46.9968   55.1666   29.7481 C   0  0  0  0  0  0  0  0  0  0  0  0
   48.1603   54.8243   28.8221 C   0  0  0  0  0  0  0  0  0  0  0  0
   49.4961   56.0621   28.8473 S   0  0  2  0  0  0  0  0  0  0  0  0
   50.8352   55.3090   27.8725 C   0  0  0  0  0  0  0  0  0  0  0  0
   50.3285   56.0882   30.4759 C   0  0  0  0  0  0  0  0  0  0  0  0
   49.3347   56.8046   31.3568 C   0  0  1  0  0  0  0  0  0  0  0  0
   49.0442   55.8793   32.3519 O   0  0  0  0  0  0  0  0  0  0  0  0
   49.7256   58.0268   32.1889 C   0  0  1  0  0  0  0  0  0  0  0  0
   49.5298   59.2295   31.5017 O   0  0  0  0  0  0  0  0  0  0  0  0
   48.7221   57.8074   33.4199 C   0  0  1  0  0  0  0  0  0  0  0  0
   47.3394   57.7025   33.0503 O   0  0  0  0  0  0  0  0  0  0  0  0
   49.4076   56.4813   33.6563 C   0  0  1  0  0  0  0  0  0  0  0  0
   46.9925   52.9666   31.8605 O   0  0  0  0  0  0  0  0  0  0  0  0
   45.4873   53.7463   35.2119 N   0  0  0  0  0  0  0  0  0  0  0  0
   45.5496   54.8351   34.4437 C   0  0  0  0  0  0  0  0  0  0  0  0
   46.7123   55.3876   34.1001 N   0  0  0  0  0  0  0  0  0  0  0  0
   47.8665   54.9449   34.6166 C   0  0  0  0  0  0  0  0  0  0  0  0
   47.8359   53.8188   35.4995 C   0  0  0  0  0  0  0  0  0  0  0  0
   46.5723   53.2251   35.7703 C   0  0  0  0  0  0  0  0  0  0  0  0
   46.4586   52.1362   36.5882 N   0  0  0  0  0  0  0  0  0  0  0  0
   49.1060   53.5784   35.8793 N   0  0  0  0  0  0  0  0  0  0  0  0
   49.9051   54.4563   35.3141 C   0  0  0  0  0  0  0  0  0  0  0  0
   49.2087   55.3224   34.5074 N   0  0  0  0  0  0  0  0  0  0  0  0
  2  1  1  1  0  0  0
  2  3  1  0  0  0  0
  2  5  1  0  0  0  0
  3  4  1  0  0  0  0
  3 17  1  0  0  0  0
  5  6  1  0  0  0  0
  7  6  1  1  0  0  0
  7  8  1  0  0  0  0
  7  9  1  0  0  0  0
 10  9  1  6  0  0  0
 10 11  1  0  0  0  0
 10 12  1  0  0  0  0
 11 16  1  0  0  0  0
 12 13  1  6  0  0  0
 12 14  1  0  0  0  0
 14 15  1  6  0  0  0
 14 16  1  0  0  0  0
 16 27  1  1  0  0  0
 18 19  2  0  0  0  0
 18 23  1  0  0  0  0
 19 20  1  0  0  0  0
 20 21  2  0  0  0  0
 21 22  1  0  0  0  0
 21 27  1  0  0  0  0
 22 23  2  0  0  0  0
 22 25  1  0  0  0  0
 23 24  1  0  0  0  0
 25 26  2  0  0  0  0
 26 27  1  0  0  0  0
M  END
>  <CHROM.1>
136.10142508,-173.23475022,-166.85831753,171.96454658,-75.16679896,120.41064112
-68.12036213,48.07867474,55.13676416,32.27726831,1.00004123,-0.93114890,-1.67734234

>  <Name>
ligand

>  <RI>
0

>  <Rbt.Current_Directory>
/home/itssahil/PROJECTS/Mol_Feturizer/New_Systems/rnas/3IQN

>  <Rbt.Executable>
rbdock ($Id: //depot/dev/client3/rdock/2013.1/src/exe/rbdock.cxx#4 $)

>  <Rbt.Library>
libRbt.so (2013.1, Build901 2013/11/27)

>  <Rbt.Parameter_File>
/export/apps/rDock/src/rDock_2013.1_src/data/scripts/dock_solv.prm

>  <Rbt.Receptor>
prm/pocket_docking_4.prm

>  <SCORE>
-15.9326

>  <SCORE.INTER>
-12.3216

>  <SCORE.INTER.CONST>
1

>  <SCORE.INTER.POLAR>
0

>  <SCORE.INTER.ROT>
7

>  <SCORE.INTER.SOLV>
12.9527

>  <SCORE.INTER.VDW>
-20.7986

>  <SCORE.INTER.norm>
-0.456356

>  <SCORE.INTRA>
-3.62654

>  <SCORE.INTRA.DIHEDRAL>
-0.846313

>  <SCORE.INTRA.DIHEDRAL.0>
10.0365

>  <SCORE.INTRA.POLAR>
0

>  <SCORE.INTRA.POLAR.0>
0

>  <SCORE.INTRA.REPUL>
0

>  <SCORE.INTRA.REPUL.0>
0

>  <SCORE.INTRA.SOLV>
-0.652714

>  <SCORE.INTRA.SOLV.lig_0>
-48.6728

>  <SCORE.INTRA.VDW>
-2.87703

>  <SCORE.INTRA.VDW.0>
-1.10662

>  <SCORE.INTRA.norm>
-0.134316

>  <SCORE.RESTR>
0.0155413

>  <SCORE.RESTR.CAVITY>
0.0155413

>  <SCORE.RESTR.norm>
0.000575605

>  <SCORE.SYSTEM>
0

>  <SCORE.SYSTEM.CONST>
0

>  <SCORE.SYSTEM.DIHEDRAL>
0

>  <SCORE.SYSTEM.SOLV>
0

>  <SCORE.SYSTEM.norm>
0

>  <SCORE.heavy>
27

>  <SCORE.norm>
-0.590097

>  <RMSD>
5.007

$$$$
ligand
 OpenBabel11021811483D
libRbt.so/2013.1/901 2013/11/27
 27 29  0  0  0  0  0  0  0  0999 V2000
   48.8653   56.8010   28.1520 N   0  0  0  0  0  0  0  0  0  0  0  0
   47.5473   56.9529   28.7822 C   0  0  2  0  0  0  0  0  0  0  0  0
   46.6885   57.7972   27.8895 C   0  0  0  0  0  0  0  0  0  0  0  0
   45.4895   57.8839   28.1019 O   0  0  0  0  0  0  0  0  0  0  0  0
   47.6863   57.6350   30.1515 C   0  0  0  0  0  0  0  0  0  0  0  0
   48.4946   56.7288   31.0755 C   0  0  0  0  0  0  0  0  0  0  0  0
   48.6171   57.3556   32.7812 S   0  0  2  0  0  0  0  0  0  0  0  0
   49.6889   58.8202   32.6539 C   0  0  0  0  0  0  0  0  0  0  0  0
   49.7216   56.2983   33.7853 C   0  0  0  0  0  0  0  0  0  0  0  0
   48.7989   55.2115   34.2797 C   0  0  1  0  0  0  0  0  0  0  0  0
   48.2474   54.6883   33.1165 O   0  0  0  0  0  0  0  0  0  0  0  0
   49.3290   53.9461   34.9556 C   0  0  1  0  0  0  0  0  0  0  0  0
   49.4271   54.0799   36.3446 O   0  0  0  0  0  0  0  0  0  0  0  0
   48.1890   52.9253   34.4769 C   0  0  1  0  0  0  0  0  0  0  0  0
   46.8528   53.3205   34.8201 O   0  0  0  0  0  0  0  0  0  0  0  0
   48.5899   53.2479   33.0558 C   0  0  1  0  0  0  0  0  0  0  0  0
   47.1959   58.4077   26.9618 O   0  0  0  0  0  0  0  0  0  0  0  0
   50.5116   53.1562   28.4117 N   0  0  0  0  0  0  0  0  0  0  0  0
   51.0587   53.4862   29.5827 C   0  0  0  0  0  0  0  0  0  0  0  0
   50.3819   53.3917   30.7265 N   0  0  0  0  0  0  0  0  0  0  0  0
   49.0791   53.0795   30.7342 C   0  0  0  0  0  0  0  0  0  0  0  0
   48.4372   52.7835   29.4896 C   0  0  0  0  0  0  0  0  0  0  0  0
   49.2298   52.8286   28.3097 C   0  0  0  0  0  0  0  0  0  0  0  0
   48.6978   52.5420   27.0840 N   0  0  0  0  0  0  0  0  0  0  0  0
   47.1470   52.5095   29.7644 N   0  0  0  0  0  0  0  0  0  0  0  0
   46.9435   52.6165   31.0590 C   0  0  0  0  0  0  0  0  0  0  0  0
   48.0983   52.9510   31.7227 N   0  0  0  0  0  0  0  0  0  0  0  0
  2  1  1  6  0  0  0
  2  3  1  0  0  0  0
  2  5  1  0  0  0  0
  3  4  1  0  0  0  0
  3 17  1  0  0  0  0
  5  6  1  0  0  0  0
  7  6  1  6  0  0  0
  7  8  1  0  0  0  0
  7  9  1  0  0  0  0
 10  9  1  6  0  0  0
 10 11  1  0  0  0  0
 10 12  1  0  0  0  0
 11 16  1  0  0  0  0
 12 13  1  1  0  0  0
 12 14  1  0  0  0  0
 14 15  1  6  0  0  0
 14 16  1  0  0  0  0
 16 27  1  6  0  0  0
 18 19  2  0  0  0  0
 18 23  1  0  0  0  0
 19 20  1  0  0  0  0
 20 21  2  0  0  0  0
 21 22  1  0  0  0  0
 21 27  1  0  0  0  0
 22 23  2  0  0  0  0
 22 25  1  0  0  0  0
 23 24  1  0  0  0  0
 25 26  2  0  0  0  0
 26 27  1  0  0  0  0
M  END
>  <CHROM.1>
168.43156401,-63.96119340,-175.15599082,-69.67302654,-86.04149443,55.47838063
92.50626640,48.46201220,55.05372856,31.17350289,2.41274159,1.37011123,-2.06122758

>  <Name>
ligand

>  <RI>
0

>  <Rbt.Current_Directory>
/home/itssahil/PROJECTS/Mol_Feturizer/New_Systems/rnas/3IQN

>  <Rbt.Executable>
rbdock ($Id: //depot/dev/client3/rdock/2013.1/src/exe/rbdock.cxx#4 $)

>  <Rbt.Library>
libRbt.so (2013.1, Build901 2013/11/27)

>  <Rbt.Parameter_File>
/export/apps/rDock/src/rDock_2013.1_src/data/scripts/dock_solv.prm

>  <Rbt.Receptor>
prm/pocket_docking_3.prm

>  <SCORE>
-20.346

>  <SCORE.INTER>
-15.8249

>  <SCORE.INTER.CONST>
1

>  <SCORE.INTER.POLAR>
0

>  <SCORE.INTER.ROT>
7

>  <SCORE.INTER.SOLV>
10.316

>  <SCORE.INTER.VDW>
-22.2552

>  <SCORE.INTER.norm>
-0.586106

>  <SCORE.INTRA>
-4.52114

>  <SCORE.INTRA.DIHEDRAL>
-5.66412

>  <SCORE.INTRA.DIHEDRAL.0>
10.0365

>  <SCORE.INTRA.POLAR>
0

>  <SCORE.INTRA.POLAR.0>
0

>  <SCORE.INTRA.REPUL>
0

>  <SCORE.INTRA.REPUL.0>
0

>  <SCORE.INTRA.SOLV>
-0.328004

>  <SCORE.INTRA.SOLV.lig_0>
-48.6728

>  <SCORE.INTRA.VDW>
-1.52508

>  <SCORE.INTRA.VDW.0>
-1.10662

>  <SCORE.INTRA.norm>
-0.16745

>  <SCORE.RESTR>
0

>  <SCORE.RESTR.CAVITY>
0

>  <SCORE.RESTR.norm>
0

>  <SCORE.SYSTEM>
0

>  <SCORE.SYSTEM.CONST>
0

>  <SCORE.SYSTEM.DIHEDRAL>
0

>  <SCORE.SYSTEM.SOLV>
0

>  <SCORE.SYSTEM.norm>
0

>  <SCORE.heavy>
27

>  <SCORE.norm>
-0.753556

>  <RMSD>
5.012

$$$$
ligand
 OpenBabel11021811483D
libRbt.so/2013.1/901 2013/11/27
 27 29  0  0  0  0  0  0  0  0999 V2000
   47.0044   57.3744   28.4395 N   0  0  0  0  0  0  0  0  0  0  0  0
   47.4406   57.0510   29.8042 C   0  0  2  0  0  0  0  0  0  0  0  0
   46.5203   57.7332   30.7712 C   0  0  0  0  0  0  0  0  0  0  0  0
   45.8615   57.0701   31.5564 O   0  0  0  0  0  0  0  0  0  0  0  0
   48.8781   57.5406   30.0349 C   0  0  0  0  0  0  0  0  0  0  0  0
   49.4462   56.8431   31.2673 C   0  0  0  0  0  0  0  0  0  0  0  0
   48.6722   57.3798   32.8262 S   0  0  2  0  0  0  0  0  0  0  0  0
   49.5307   58.9259   33.2540 C   0  0  0  0  0  0  0  0  0  0  0  0
   49.2491   56.3536   34.2263 C   0  0  0  0  0  0  0  0  0  0  0  0
   48.3742   55.1275   34.1354 C   0  0  1  0  0  0  0  0  0  0  0  0
   48.5714   54.6731   32.8372 O   0  0  0  0  0  0  0  0  0  0  0  0
   48.6680   53.8628   34.9435 C   0  0  1  0  0  0  0  0  0  0  0  0
   48.0282   53.8594   36.1875 O   0  0  0  0  0  0  0  0  0  0  0  0
   48.0916   52.7809   33.9101 C   0  0  1  0  0  0  0  0  0  0  0  0
   46.7244   52.9910   33.5279 O   0  0  0  0  0  0  0  0  0  0  0  0
   49.1047   53.2926   32.9120 C   0  0  1  0  0  0  0  0  0  0  0  0
   46.4456   58.9518   30.7794 O   0  0  0  0  0  0  0  0  0  0  0  0
   46.4594   52.6521   28.6858 N   0  0  0  0  0  0  0  0  0  0  0  0
   46.0691   52.7993   29.9529 C   0  0  0  0  0  0  0  0  0  0  0  0
   46.9417   53.0124   30.9370 N   0  0  0  0  0  0  0  0  0  0  0  0
   48.2615   52.9626   30.7125 C   0  0  0  0  0  0  0  0  0  0  0  0
   48.7221   52.7396   29.3758 C   0  0  0  0  0  0  0  0  0  0  0  0
   47.7430   52.5932   28.3549 C   0  0  0  0  0  0  0  0  0  0  0  0
   48.0994   52.3952   27.0505 N   0  0  0  0  0  0  0  0  0  0  0  0
   50.0687   52.7284   29.4174 N   0  0  0  0  0  0  0  0  0  0  0  0
   50.4696   52.9184   30.6551 C   0  0  0  0  0  0  0  0  0  0  0  0
   49.4057   53.0863   31.5071 N   0  0  0  0  0  0  0  0  0  0  0  0
  2  1  1  6  0  0  0
  2  3  1  0  0  0  0
  2  5  1  0  0  0  0
  3  4  1  0  0  0  0
  3 17  1  0  0  0  0
  5  6  1  0  0  0  0
  7  6  1  6  0  0  0
  7  8  1  0  0  0  0
  7  9  1  0  0  0  0
 10  9  1  1  0  0  0
 10 11  1  0  0  0  0
 10 12  1  0  0  0  0
 11 16  1  0  0  0  0
 12 13  1  1  0  0  0
 12 14  1  0  0  0  0
 14 15  1  6  0  0  0
 14 16  1  0  0  0  0
 16 27  1  6  0  0  0
 18 19  2  0  0  0  0
 18 23  1  0  0  0  0
 19 20  1  0  0  0  0
 20 21  2  0  0  0  0
 21 22  1  0  0  0  0
 21 27  1  0  0  0  0
 22 23  2  0  0  0  0
 22 25  1  0  0  0  0
 23 24  1  0  0  0  0
 25 26  2  0  0  0  0
 26 27  1  0  0  0  0
M  END
>  <CHROM.1>
119.03056038,-163.17533521,-69.46665603,-82.04212871,-82.08975208,55.08264589
-70.52190915,48.11213898,54.99295470,31.54240435,1.82553556,1.37409183,-2.66875849

>  <Name>
ligand

>  <RI>
0

>  <Rbt.Current_Directory>
/home/itssahil/PROJECTS/Mol_Feturizer/New_Systems/rnas/3IQN

>  <Rbt.Executable>
rbdock ($Id: //depot/dev/client3/rdock/2013.1/src/exe/rbdock.cxx#4 $)

>  <Rbt.Library>
libRbt.so (2013.1, Build901 2013/11/27)

>  <Rbt.Parameter_File>
/export/apps/rDock/src/rDock_2013.1_src/data/scripts/dock_solv.prm

>  <Rbt.Receptor>
prm/pocket_docking_3.prm

>  <SCORE>
-17.3679

>  <SCORE.INTER>
-13.3543

>  <SCORE.INTER.CONST>
1

>  <SCORE.INTER.POLAR>
0

>  <SCORE.INTER.ROT>
7

>  <SCORE.INTER.SOLV>
8.98703

>  <SCORE.INTER.VDW>
-20.1652

>  <SCORE.INTER.norm>
-0.494605

>  <SCORE.INTRA>
-4.01358

>  <SCORE.INTRA.DIHEDRAL>
-4.0368

>  <SCORE.INTRA.DIHEDRAL.0>
10.0365

>  <SCORE.INTRA.POLAR>
0

>  <SCORE.INTRA.POLAR.0>
0

>  <SCORE.INTRA.REPUL>
0

>  <SCORE.INTRA.REPUL.0>
0

>  <SCORE.INTRA.SOLV>
-0.551927

>  <SCORE.INTRA.SOLV.lig_0>
-48.6728

>  <SCORE.INTRA.VDW>
-1.71922

>  <SCORE.INTRA.VDW.0>
-1.10662

>  <SCORE.INTRA.norm>
-0.148651

>  <SCORE.RESTR>
0

>  <SCORE.RESTR.CAVITY>
0

>  <SCORE.RESTR.norm>
0

>  <SCORE.SYSTEM>
0

>  <SCORE.SYSTEM.CONST>
0

>  <SCORE.SYSTEM.DIHEDRAL>
0

>  <SCORE.SYSTEM.SOLV>
0

>  <SCORE.SYSTEM.norm>
0

>  <SCORE.heavy>
27

>  <SCORE.norm>
-0.643256

>  <RMSD>
5.016

$$$$
ligand
 OpenBabel11021811483D
libRbt.so/2013.1/901 2013/11/27
 27 29  0  0  0  0  0  0  0  0999 V2000
   48.5820   53.3079   31.2712 N   0  0  0  0  0  0  0  0  0  0  0  0
   48.6004   53.8074   29.8901 C   0  0  2  0  0  0  0  0  0  0  0  0
   48.8131   52.6451   28.9675 C   0  0  0  0  0  0  0  0  0  0  0  0
   48.2898   52.6391   27.8646 O   0  0  0  0  0  0  0  0  0  0  0  0
   49.7389   54.8218   29.7049 C   0  0  0  0  0  0  0  0  0  0  0  0
   49.5240   55.5723   28.3938 C   0  0  0  0  0  0  0  0  0  0  0  0
   47.9755   56.5302   28.3516 S   0  0  2  0  0  0  0  0  0  0  0  0
   47.7636   56.9790   26.6011 C   0  0  0  0  0  0  0  0  0  0  0  0
   48.2298   58.2088   29.0324 C   0  0  0  0  0  0  0  0  0  0  0  0
   47.1566   58.3164   30.0877 C   0  0  1  0  0  0  0  0  0  0  0  0
   47.6534   57.5651   31.1457 O   0  0  0  0  0  0  0  0  0  0  0  0
   46.8372   59.6401   30.7841 C   0  0  1  0  0  0  0  0  0  0  0  0
   45.8412   60.3676   30.1241 O   0  0  0  0  0  0  0  0  0  0  0  0
   46.3850   59.0570   32.2075 C   0  0  1  0  0  0  0  0  0  0  0  0
   45.3221   58.0946   32.1470 O   0  0  0  0  0  0  0  0  0  0  0  0
   47.7663   58.4549   32.3252 C   0  0  1  0  0  0  0  0  0  0  0  0
   49.5229   51.7156   29.3181 O   0  0  0  0  0  0  0  0  0  0  0  0
   46.6405   54.2173   34.7837 N   0  0  0  0  0  0  0  0  0  0  0  0
   45.9017   54.9971   33.9928 C   0  0  0  0  0  0  0  0  0  0  0  0
   46.4122   56.0674   33.3852 N   0  0  0  0  0  0  0  0  0  0  0  0
   47.6610   56.4779   33.6435 C   0  0  0  0  0  0  0  0  0  0  0  0
   48.4656   55.7051   34.5402 C   0  0  0  0  0  0  0  0  0  0  0  0
   47.8903   54.5314   35.1003 C   0  0  0  0  0  0  0  0  0  0  0  0
   48.5973   53.7289   35.9510 N   0  0  0  0  0  0  0  0  0  0  0  0
   49.6592   56.3230   34.6343 N   0  0  0  0  0  0  0  0  0  0  0  0
   49.6535   57.4020   33.8829 C   0  0  0  0  0  0  0  0  0  0  0  0
   48.4552   57.5518   33.2290 N   0  0  0  0  0  0  0  0  0  0  0  0
  2  1  1  1  0  0  0
  2  3  1  0  0  0  0
  2  5  1  0  0  0  0
  3  4  1  0  0  0  0
  3 17  1  0  0  0  0
  5  6  1  0  0  0  0
  7  6  1  6  0  0  0
  7  8  1  0  0  0  0
  7  9  1  0  0  0  0
 10  9  1  6  0  0  0
 10 11  1  0  0  0  0
 10 12  1  0  0  0  0
 11 16  1  0  0  0  0
 12 13  1  6  0  0  0
 12 14  1  0  0  0  0
 14 15  1  6  0  0  0
 14 16  1  0  0  0  0
 16 27  1  1  0  0  0
 18 19  2  0  0  0  0
 18 23  1  0  0  0  0
 19 20  1  0  0  0  0
 20 21  2  0  0  0  0
 21 22  1  0  0  0  0
 21 27  1  0  0  0  0
 22 23  2  0  0  0  0
 22 25  1  0  0  0  0
 23 24  1  0  0  0  0
 25 26  2  0  0  0  0
 26 27  1  0  0  0  0
M  END
>  <CHROM.1>
146.36594373,-166.02515209,61.86972325,-166.78301094,-126.80145283,76.70536036
-68.64911002,47.89197162,56.12505631,31.28542881,-1.14990595,-1.23386302
1.79849358

>  <Name>
ligand

>  <RI>
0

>  <Rbt.Current_Directory>
/home/itssahil/PROJECTS/Mol_Feturizer/New_Systems/rnas/3IQN

>  <Rbt.Executable>
rbdock ($Id: //depot/dev/client3/rdock/2013.1/src/exe/rbdock.cxx#4 $)

>  <Rbt.Library>
libRbt.so (2013.1, Build901 2013/11/27)

>  <Rbt.Parameter_File>
/export/apps/rDock/src/rDock_2013.1_src/data/scripts/dock_solv.prm

>  <Rbt.Receptor>
prm/pocket_docking_3.prm

>  <SCORE>
-14.9076

>  <SCORE.INTER>
-12.6699

>  <SCORE.INTER.CONST>
1

>  <SCORE.INTER.POLAR>
0

>  <SCORE.INTER.ROT>
7

>  <SCORE.INTER.SOLV>
14.7522

>  <SCORE.INTER.VDW>
-21.6307

>  <SCORE.INTER.norm>
-0.469257

>  <SCORE.INTRA>
-2.38272

>  <SCORE.INTRA.DIHEDRAL>
0.480474

>  <SCORE.INTRA.DIHEDRAL.0>
10.0365

>  <SCORE.INTRA.POLAR>
0

>  <SCORE.INTRA.POLAR.0>
0

>  <SCORE.INTRA.REPUL>
0

>  <SCORE.INTRA.REPUL.0>
0

>  <SCORE.INTRA.SOLV>
-0.557931

>  <SCORE.INTRA.SOLV.lig_0>
-48.6728

>  <SCORE.INTRA.VDW>
-2.34399

>  <SCORE.INTRA.VDW.0>
-1.10662

>  <SCORE.INTRA.norm>
-0.0882488

>  <SCORE.RESTR>
0.145025

>  <SCORE.RESTR.CAVITY>
0.145025

>  <SCORE.RESTR.norm>
0.00537129

>  <SCORE.SYSTEM>
0

>  <SCORE.SYSTEM.CONST>
0

>  <SCORE.SYSTEM.DIHEDRAL>
0

>  <SCORE.SYSTEM.SOLV>
0

>  <SCORE.SYSTEM.norm>
0

>  <SCORE.heavy>
27

>  <SCORE.norm>
-0.552134

>  <RMSD>
5.029

$$$$
ligand
 OpenBabel11021811483D
libRbt.so/2013.1/901 2013/11/27
 27 29  0  0  0  0  0  0  0  0999 V2000
   50.7974   51.6884   27.3273 N   0  0  0  0  0  0  0  0  0  0  0  0
   50.7206   53.1339   27.0784 C   0  0  2  0  0  0  0  0  0  0  0  0
   52.0868   53.7216   27.2670 C   0  0  0  0  0  0  0  0  0  0  0  0
   52.5415   54.4867   26.4315 O   0  0  0  0  0  0  0  0  0  0  0  0
   49.7408   53.7929   28.0608 C   0  0  0  0  0  0  0  0  0  0  0  0
   49.5012   55.2360   27.6269 C   0  0  0  0  0  0  0  0  0  0  0  0
   48.5408   56.2063   28.8325 S   0  0  2  0  0  0  0  0  0  0  0  0
   48.3177   57.8285   28.0394 C   0  0  0  0  0  0  0  0  0  0  0  0
   49.5948   56.7320   30.2321 C   0  0  0  0  0  0  0  0  0  0  0  0
   48.6449   57.5228   31.0978 C   0  0  1  0  0  0  0  0  0  0  0  0
   48.1020   56.5708   31.9521 O   0  0  0  0  0  0  0  0  0  0  0  0
   49.1414   58.5713   32.0943 C   0  0  1  0  0  0  0  0  0  0  0  0
   49.2205   59.8504   31.5334 O   0  0  0  0  0  0  0  0  0  0  0  0
   47.9906   58.4130   33.1994 C   0  0  1  0  0  0  0  0  0  0  0  0
   46.6566   58.5881   32.7000 O   0  0  0  0  0  0  0  0  0  0  0  0
   48.4192   56.9708   33.3432 C   0  0  1  0  0  0  0  0  0  0  0  0
   52.7330   53.4438   28.2650 O   0  0  0  0  0  0  0  0  0  0  0  0
   43.9466   54.9408   34.4126 N   0  0  0  0  0  0  0  0  0  0  0  0
   44.2704   56.0742   33.7881 C   0  0  0  0  0  0  0  0  0  0  0  0
   45.5383   56.4114   33.5557 N   0  0  0  0  0  0  0  0  0  0  0  0
   46.5482   55.6845   34.0521 C   0  0  0  0  0  0  0  0  0  0  0  0
   46.2411   54.4952   34.7869 C   0  0  0  0  0  0  0  0  0  0  0  0
   44.8707   54.1471   34.9386 C   0  0  0  0  0  0  0  0  0  0  0  0
   44.4936   53.0185   35.6106 N   0  0  0  0  0  0  0  0  0  0  0  0
   47.4129   53.9567   35.1769 N   0  0  0  0  0  0  0  0  0  0  0  0
   48.4033   54.7103   34.7526 C   0  0  0  0  0  0  0  0  0  0  0  0
   47.9428   55.7879   34.0365 N   0  0  0  0  0  0  0  0  0  0  0  0
  2  1  1  1  0  0  0
  2  3  1  0  0  0  0
  2  5  1  0  0  0  0
  3  4  1  0  0  0  0
  3 17  1  0  0  0  0
  5  6  1  0  0  0  0
  7  6  1  6  0  0  0
  7  8  1  0  0  0  0
  7  9  1  0  0  0  0
 10  9  1  1  0  0  0
 10 11  1  0  0  0  0
 10 12  1  0  0  0  0
 11 16  1  0  0  0  0
 12 13  1  6  0  0  0
 12 14  1  0  0  0  0
 14 15  1  6  0  0  0
 14 16  1  0  0  0  0
 16 27  1  1  0  0  0
 18 19  2  0  0  0  0
 18 23  1  0  0  0  0
 19 20  1  0  0  0  0
 20 21  2  0  0  0  0
 21 22  1  0  0  0  0
 21 27  1  0  0  0  0
 22 23  2  0  0  0  0
 22 25  1  0  0  0  0
 23 24  1  0  0  0  0
 25 26  2  0  0  0  0
 26 27  1  0  0  0  0
M  END
>  <CHROM.1>
132.49122729,-170.35874216,-171.94663232,-176.78075404,179.28111331,89.63856666
-71.70760105,48.31969097,55.69484416,31.26985027,0.14609281,-0.93355834,-3.13752280

>  <Name>
ligand

>  <RI>
0

>  <Rbt.Current_Directory>
/home/itssahil/PROJECTS/Mol_Feturizer/New_Systems/rnas/3IQN

>  <Rbt.Executable>
rbdock ($Id: //depot/dev/client3/rdock/2013.1/src/exe/rbdock.cxx#4 $)

>  <Rbt.Library>
libRbt.so (2013.1, Build901 2013/11/27)

>  <Rbt.Parameter_File>
/export/apps/rDock/src/rDock_2013.1_src/data/scripts/dock_solv.prm

>  <Rbt.Receptor>
prm/pocket_docking_5.prm

>  <SCORE>
-16.3116

>  <SCORE.INTER>
-13.25

>  <SCORE.INTER.CONST>
1

>  <SCORE.INTER.POLAR>
0

>  <SCORE.INTER.ROT>
7

>  <SCORE.INTER.SOLV>
13.0344

>  <SCORE.INTER.VDW>
-21.4448

>  <SCORE.INTER.norm>
-0.49074

>  <SCORE.INTRA>
-3.06164

>  <SCORE.INTRA.DIHEDRAL>
-3.44571

>  <SCORE.INTRA.DIHEDRAL.0>
10.0365

>  <SCORE.INTRA.POLAR>
0

>  <SCORE.INTRA.POLAR.0>
0

>  <SCORE.INTRA.REPUL>
0

>  <SCORE.INTRA.REPUL.0>
0

>  <SCORE.INTRA.SOLV>
-0.868188

>  <SCORE.INTRA.SOLV.lig_0>
-48.6728

>  <SCORE.INTRA.VDW>
-0.904694

>  <SCORE.INTRA.VDW.0>
-1.10662

>  <SCORE.INTRA.norm>
-0.113394

>  <SCORE.RESTR>
0

>  <SCORE.RESTR.CAVITY>
0

>  <SCORE.RESTR.norm>
0

>  <SCORE.SYSTEM>
0

>  <SCORE.SYSTEM.CONST>
0

>  <SCORE.SYSTEM.DIHEDRAL>
0

>  <SCORE.SYSTEM.SOLV>
0

>  <SCORE.SYSTEM.norm>
0

>  <SCORE.heavy>
27

>  <SCORE.norm>
-0.604134

>  <RMSD>
5.038

$$$$
ligand
 OpenBabel11021811483D
libRbt.so/2013.1/901 2013/11/27
 27 29  0  0  0  0  0  0  0  0999 V2000
   50.7271   53.4465   29.1976 N   0  0  0  0  0  0  0  0  0  0  0  0
   49.5734   53.5863   28.2994 C   0  0  2  0  0  0  0  0  0  0  0  0
   49.2634   52.2424   27.7117 C   0  0  0  0  0  0  0  0  0  0  0  0
   50.1685   51.4598   27.4699 O   0  0  0  0  0  0  0  0  0  0  0  0
   49.8939   54.5763   27.1696 C   0  0  0  0  0  0  0  0  0  0  0  0
   50.0444   55.9734   27.7643 C   0  0  0  0  0  0  0  0  0  0  0  0
   48.5053   56.6226   28.4905 S   0  0  2  0  0  0  0  0  0  0  0  0
   47.5298   57.1885   27.0627 C   0  0  0  0  0  0  0  0  0  0  0  0
   48.7935   58.2462   29.2821 C   0  0  0  0  0  0  0  0  0  0  0  0
   47.6436   58.3629   30.2523 C   0  0  1  0  0  0  0  0  0  0  0  0
   47.9315   57.4140   31.2256 O   0  0  0  0  0  0  0  0  0  0  0  0
   47.4302   59.6134   31.1065 C   0  0  1  0  0  0  0  0  0  0  0  0
   46.6071   60.5565   30.4821 O   0  0  0  0  0  0  0  0  0  0  0  0
   46.7672   58.9153   32.3887 C   0  0  1  0  0  0  0  0  0  0  0  0
   45.6002   58.1303   32.1032 O   0  0  0  0  0  0  0  0  0  0  0  0
   48.0406   58.1131   32.5276 C   0  0  1  0  0  0  0  0  0  0  0  0
   48.1036   51.9305   27.4919 O   0  0  0  0  0  0  0  0  0  0  0  0
   45.9474   54.3050   35.0546 N   0  0  0  0  0  0  0  0  0  0  0  0
   45.4012   55.3019   34.3566 C   0  0  0  0  0  0  0  0  0  0  0  0
   46.1457   56.1957   33.7069 N   0  0  0  0  0  0  0  0  0  0  0  0
   47.4797   56.2041   33.8309 C   0  0  0  0  0  0  0  0  0  0  0  0
   48.1010   55.1898   34.6269 C   0  0  0  0  0  0  0  0  0  0  0  0
   47.2591   54.2187   35.2356 C   0  0  0  0  0  0  0  0  0  0  0  0
   47.7743   53.2070   35.9963 N   0  0  0  0  0  0  0  0  0  0  0  0
   49.4283   55.4192   34.5958 N   0  0  0  0  0  0  0  0  0  0  0  0
   49.6713   56.4813   33.8597 C   0  0  0  0  0  0  0  0  0  0  0  0
   48.5138   57.0088   33.3422 N   0  0  0  0  0  0  0  0  0  0  0  0
  2  1  1  1  0  0  0
  2  3  1  0  0  0  0
  2  5  1  0  0  0  0
  3  4  1  0  0  0  0
  3 17  1  0  0  0  0
  5  6  1  0  0  0  0
  7  6  1  6  0  0  0
  7  8  1  0  0  0  0
  7  9  1  0  0  0  0
 10  9  1  6  0  0  0
 10 11  1  0  0  0  0
 10 12  1  0  0  0  0
 11 16  1  0  0  0  0
 12 13  1  6  0  0  0
 12 14  1  0  0  0  0
 14 15  1  6  0  0  0
 14 16  1  0  0  0  0
 16 27  1  1  0  0  0
 18 19  2  0  0  0  0
 18 23  1  0  0  0  0
 19 20  1  0  0  0  0
 20 21  2  0  0  0  0
 21 22  1  0  0  0  0
 21 27  1  0  0  0  0
 22 23  2  0  0  0  0
 22 25  1  0  0  0  0
 23 24  1  0  0  0  0
 25 26  2  0  0  0  0
 26 27  1  0  0  0  0
M  END
>  <CHROM.1>
-34.12976287,-67.38235881,-64.83787004,-78.69903467,-158.53743277,69.91503524
-84.88787284,48.10399218,55.96514485,31.04657887,-0.45274576,-1.21828390
2.31140728

>  <Name>
ligand

>  <RI>
0

>  <Rbt.Current_Directory>
/home/itssahil/PROJECTS/Mol_Feturizer/New_Systems/rnas/3IQN

>  <Rbt.Executable>
rbdock ($Id: //depot/dev/client3/rdock/2013.1/src/exe/rbdock.cxx#4 $)

>  <Rbt.Library>
libRbt.so (2013.1, Build901 2013/11/27)

>  <Rbt.Parameter_File>
/export/apps/rDock/src/rDock_2013.1_src/data/scripts/dock_solv.prm

>  <Rbt.Receptor>
prm/pocket_docking_5.prm

>  <SCORE>
-17.8813

>  <SCORE.INTER>
-14.9189

>  <SCORE.INTER.CONST>
1

>  <SCORE.INTER.POLAR>
0

>  <SCORE.INTER.ROT>
7

>  <SCORE.INTER.SOLV>
13.3324

>  <SCORE.INTER.VDW>
-22.6567

>  <SCORE.INTER.norm>
-0.55255

>  <SCORE.INTRA>
-2.9624

>  <SCORE.INTRA.DIHEDRAL>
-3.9275

>  <SCORE.INTRA.DIHEDRAL.0>
10.0365

>  <SCORE.INTRA.POLAR>
0

>  <SCORE.INTRA.POLAR.0>
0

>  <SCORE.INTRA.REPUL>
0

>  <SCORE.INTRA.REPUL.0>
0

>  <SCORE.INTRA.SOLV>
0.303077

>  <SCORE.INTRA.SOLV.lig_0>
-48.6728

>  <SCORE.INTRA.VDW>
-1.15018

>  <SCORE.INTRA.VDW.0>
-1.10662

>  <SCORE.INTRA.norm>
-0.109718

>  <SCORE.RESTR>
0

>  <SCORE.RESTR.CAVITY>
0

>  <SCORE.RESTR.norm>
0

>  <SCORE.SYSTEM>
0

>  <SCORE.SYSTEM.CONST>
0

>  <SCORE.SYSTEM.DIHEDRAL>
0

>  <SCORE.SYSTEM.SOLV>
0

>  <SCORE.SYSTEM.norm>
0

>  <SCORE.heavy>
27

>  <SCORE.norm>
-0.662269

>  <RMSD>
5.043

$$$$
ligand
 OpenBabel11021811483D
libRbt.so/2013.1/901 2013/11/27
 27 29  0  0  0  0  0  0  0  0999 V2000
   45.0303   53.4405   30.9168 N   0  0  0  0  0  0  0  0  0  0  0  0
   46.2067   53.4224   30.0375 C   0  0  2  0  0  0  0  0  0  0  0  0
   45.8711   52.6275   28.8116 C   0  0  0  0  0  0  0  0  0  0  0  0
   46.6317   52.6300   27.8568 O   0  0  0  0  0  0  0  0  0  0  0  0
   47.3997   52.7745   30.7559 C   0  0  0  0  0  0  0  0  0  0  0  0
   48.6789   53.1173   29.9979 C   0  0  0  0  0  0  0  0  0  0  0  0
   49.0332   54.9030   29.9428 S   0  0  2  0  0  0  0  0  0  0  0  0
   50.5042   55.0443   28.8814 C   0  0  0  0  0  0  0  0  0  0  0  0
   49.7785   55.4674   31.5150 C   0  0  0  0  0  0  0  0  0  0  0  0
   49.1198   56.8054   31.7452 C   0  0  1  0  0  0  0  0  0  0  0  0
   47.8374   56.4769   32.1675 O   0  0  0  0  0  0  0  0  0  0  0  0
   49.5712   57.7473   32.8624 C   0  0  1  0  0  0  0  0  0  0  0  0
   50.5600   58.6433   32.4428 O   0  0  0  0  0  0  0  0  0  0  0  0
   48.1580   58.4357   33.1786 C   0  0  1  0  0  0  0  0  0  0  0  0
   47.5259   59.0471   32.0445 O   0  0  0  0  0  0  0  0  0  0  0  0
   47.6372   57.0576   33.5160 C   0  0  1  0  0  0  0  0  0  0  0  0
   44.8443   51.9676   28.7800 O   0  0  0  0  0  0  0  0  0  0  0  0
   46.0362   52.6502   35.3273 N   0  0  0  0  0  0  0  0  0  0  0  0
   47.2622   53.0864   35.0338 C   0  0  0  0  0  0  0  0  0  0  0  0
   47.4827   54.3287   34.6055 N   0  0  0  0  0  0  0  0  0  0  0  0
   46.4648   55.1555   34.3314 C   0  0  0  0  0  0  0  0  0  0  0  0
   45.1286   54.7010   34.5695 C   0  0  0  0  0  0  0  0  0  0  0  0
   44.9599   53.3914   35.0974 C   0  0  0  0  0  0  0  0  0  0  0  0
   43.7186   52.8886   35.3698 N   0  0  0  0  0  0  0  0  0  0  0  0
   44.3002   55.7022   34.2139 N   0  0  0  0  0  0  0  0  0  0  0  0
   45.0076   56.7207   33.7769 C   0  0  0  0  0  0  0  0  0  0  0  0
   46.3543   56.4585   33.8358 N   0  0  0  0  0  0  0  0  0  0  0  0
  2  1  1  1  0  0  0
  2  3  1  0  0  0  0
  2  5  1  0  0  0  0
  3  4  1  0  0  0  0
  3 17  1  0  0  0  0
  5  6  1  0  0  0  0
  7  6  1  1  0  0  0
  7  8  1  0  0  0  0
  7  9  1  0  0  0  0
 10  9  1  1  0  0  0
 10 11  1  0  0  0  0
 10 12  1  0  0  0  0
 11 16  1  0  0  0  0
 12 13  1  6  0  0  0
 12 14  1  0  0  0  0
 14 15  1  6  0  0  0
 14 16  1  0  0  0  0
 16 27  1  6  0  0  0
 18 19  2  0  0  0  0
 18 23  1  0  0  0  0
 19 20  1  0  0  0  0
 20 21  2  0  0  0  0
 21 22  1  0  0  0  0
 21 27  1  0  0  0  0
 22 23  2  0  0  0  0
 22 25  1  0  0  0  0
 23 24  1  0  0  0  0
 25 26  2  0  0  0  0
 26 27  1  0  0  0  0
M  END
>  <CHROM.1>
169.88038843,-164.16700265,62.12217146,-175.39787976,-140.17564725,75.15997945
82.69474869,47.21416763,55.00421799,32.08283125,0.91625519,-0.76787915,-2.18940999

>  <Name>
ligand

>  <RI>
0

>  <Rbt.Current_Directory>
/home/itssahil/PROJECTS/Mol_Feturizer/New_Systems/rnas/3IQN

>  <Rbt.Executable>
rbdock ($Id: //depot/dev/client3/rdock/2013.1/src/exe/rbdock.cxx#4 $)

>  <Rbt.Library>
libRbt.so (2013.1, Build901 2013/11/27)

>  <Rbt.Parameter_File>
/export/apps/rDock/src/rDock_2013.1_src/data/scripts/dock_solv.prm

>  <Rbt.Receptor>
prm/pocket_docking_7.prm

>  <SCORE>
-18.0855

>  <SCORE.INTER>
-14.7264

>  <SCORE.INTER.CONST>
1

>  <SCORE.INTER.POLAR>
0

>  <SCORE.INTER.ROT>
7

>  <SCORE.INTER.SOLV>
9.43402

>  <SCORE.INTER.VDW>
-21.229

>  <SCORE.INTER.norm>
-0.545424

>  <SCORE.INTRA>
-3.35909

>  <SCORE.INTRA.DIHEDRAL>
-0.967727

>  <SCORE.INTRA.DIHEDRAL.0>
10.0365

>  <SCORE.INTRA.POLAR>
0

>  <SCORE.INTRA.POLAR.0>
0

>  <SCORE.INTRA.REPUL>
0

>  <SCORE.INTRA.REPUL.0>
0

>  <SCORE.INTRA.SOLV>
-0.726637

>  <SCORE.INTRA.SOLV.lig_0>
-48.6728

>  <SCORE.INTRA.VDW>
-2.51191

>  <SCORE.INTRA.VDW.0>
-1.10662

>  <SCORE.INTRA.norm>
-0.124411

>  <SCORE.RESTR>
0

>  <SCORE.RESTR.CAVITY>
0

>  <SCORE.RESTR.norm>
0

>  <SCORE.SYSTEM>
0

>  <SCORE.SYSTEM.CONST>
0

>  <SCORE.SYSTEM.DIHEDRAL>
0

>  <SCORE.SYSTEM.SOLV>
0

>  <SCORE.SYSTEM.norm>
0

>  <SCORE.heavy>
27

>  <SCORE.norm>
-0.669835

>  <RMSD>
5.044

$$$$
ligand
 OpenBabel11021811483D
libRbt.so/2013.1/901 2013/11/27
 27 29  0  0  0  0  0  0  0  0999 V2000
   52.6064   55.2092   27.7556 N   0  0  0  0  0  0  0  0  0  0  0  0
   51.2872   54.9791   28.3590 C   0  0  2  0  0  0  0  0  0  0  0  0
   51.2010   53.5424   28.7786 C   0  0  0  0  0  0  0  0  0  0  0  0
   51.4430   52.6571   27.9738 O   0  0  0  0  0  0  0  0  0  0  0  0
   50.1758   55.2821   27.3430 C   0  0  0  0  0  0  0  0  0  0  0  0
   48.8219   55.0474   28.0065 C   0  0  0  0  0  0  0  0  0  0  0  0
   48.3692   56.3391   29.2082 S   0  0  2  0  0  0  0  0  0  0  0  0
   48.7318   57.9044   28.3546 C   0  0  0  0  0  0  0  0  0  0  0  0
   49.6206   56.4591   30.5369 C   0  0  0  0  0  0  0  0  0  0  0  0
   49.1583   57.6530   31.3357 C   0  0  1  0  0  0  0  0  0  0  0  0
   47.9037   57.2774   31.8001 O   0  0  0  0  0  0  0  0  0  0  0  0
   49.8462   58.0715   32.6359 C   0  0  1  0  0  0  0  0  0  0  0  0
   50.8798   58.9903   32.4252 O   0  0  0  0  0  0  0  0  0  0  0  0
   48.5723   58.6841   33.3926 C   0  0  1  0  0  0  0  0  0  0  0  0
   47.8904   59.7191   32.6694 O   0  0  0  0  0  0  0  0  0  0  0  0
   47.9329   57.3192   33.2810 C   0  0  1  0  0  0  0  0  0  0  0  0
   50.9038   53.2646   29.9298 O   0  0  0  0  0  0  0  0  0  0  0  0
   46.2227   52.9120   34.9902 N   0  0  0  0  0  0  0  0  0  0  0  0
   47.4625   53.3365   34.7408 C   0  0  0  0  0  0  0  0  0  0  0  0
   47.7113   54.5806   34.3340 N   0  0  0  0  0  0  0  0  0  0  0  0
   46.7125   55.4226   34.0369 C   0  0  0  0  0  0  0  0  0  0  0  0
   45.3641   54.9819   34.2271 C   0  0  0  0  0  0  0  0  0  0  0  0
   45.1631   53.6687   34.7345 C   0  0  0  0  0  0  0  0  0  0  0  0
   43.9079   53.1781   34.9614 N   0  0  0  0  0  0  0  0  0  0  0  0
   44.5594   55.9970   33.8567 N   0  0  0  0  0  0  0  0  0  0  0  0
   45.2925   57.0115   33.4540 C   0  0  0  0  0  0  0  0  0  0  0  0
   46.6334   56.7323   33.5529 N   0  0  0  0  0  0  0  0  0  0  0  0
  2  1  1  6  0  0  0
  2  3  1  0  0  0  0
  2  5  1  0  0  0  0
  3  4  1  0  0  0  0
  3 17  1  0  0  0  0
  5  6  1  0  0  0  0
  7  6  1  6  0  0  0
  7  8  1  0  0  0  0
  7  9  1  0  0  0  0
 10  9  1  1  0  0  0
 10 11  1  0  0  0  0
 10 12  1  0  0  0  0
 11 16  1  0  0  0  0
 12 13  1  6  0  0  0
 12 14  1  0  0  0  0
 14 15  1  6  0  0  0
 14 16  1  0  0  0  0
 16 27  1  1  0  0  0
 18 19  2  0  0  0  0
 18 23  1  0  0  0  0
 19 20  1  0  0  0  0
 20 21  2  0  0  0  0
 21 22  1  0  0  0  0
 21 27  1  0  0  0  0
 22 23  2  0  0  0  0
 22 25  1  0  0  0  0
 23 24  1  0  0  0  0
 25 26  2  0  0  0  0
 26 27  1  0  0  0  0
M  END
>  <CHROM.1>
-53.11223153,-179.39740798,73.54900544,46.31964754,174.32801460,61.78536014
106.53621616,48.38334060,55.84710952,31.53313381,0.14985214,-0.87434080,-2.95586573

>  <Name>
ligand

>  <RI>
0

>  <Rbt.Current_Directory>
/home/itssahil/PROJECTS/Mol_Feturizer/New_Systems/rnas/3IQN

>  <Rbt.Executable>
rbdock ($Id: //depot/dev/client3/rdock/2013.1/src/exe/rbdock.cxx#4 $)

>  <Rbt.Library>
libRbt.so (2013.1, Build901 2013/11/27)

>  <Rbt.Parameter_File>
/export/apps/rDock/src/rDock_2013.1_src/data/scripts/dock_solv.prm

>  <Rbt.Receptor>
prm/pocket_docking_7.prm

>  <SCORE>
-18.4568

>  <SCORE.INTER>
-15.3269

>  <SCORE.INTER.CONST>
1

>  <SCORE.INTER.POLAR>
0

>  <SCORE.INTER.ROT>
7

>  <SCORE.INTER.SOLV>
15.4596

>  <SCORE.INTER.VDW>
-23.6378

>  <SCORE.INTER.norm>
-0.567662

>  <SCORE.INTRA>
-3.12997

>  <SCORE.INTRA.DIHEDRAL>
-6.24277

>  <SCORE.INTRA.DIHEDRAL.0>
10.0365

>  <SCORE.INTRA.POLAR>
0

>  <SCORE.INTRA.POLAR.0>
0

>  <SCORE.INTRA.REPUL>
0

>  <SCORE.INTRA.REPUL.0>
0

>  <SCORE.INTRA.SOLV>
-0.67645

>  <SCORE.INTRA.SOLV.lig_0>
-48.6728

>  <SCORE.INTRA.VDW>
0.329639

>  <SCORE.INTRA.VDW.0>
-1.10662

>  <SCORE.INTRA.norm>
-0.115925

>  <SCORE.RESTR>
0

>  <SCORE.RESTR.CAVITY>
0

>  <SCORE.RESTR.norm>
0

>  <SCORE.SYSTEM>
0

>  <SCORE.SYSTEM.CONST>
0

>  <SCORE.SYSTEM.DIHEDRAL>
0

>  <SCORE.SYSTEM.SOLV>
0

>  <SCORE.SYSTEM.norm>
0

>  <SCORE.heavy>
27

>  <SCORE.norm>
-0.683587

>  <RMSD>
5.049

$$$$
ligand
 OpenBabel11021811483D
libRbt.so/2013.1/901 2013/11/27
 27 29  0  0  0  0  0  0  0  0999 V2000
   45.0850   56.7644   30.2007 N   0  0  0  0  0  0  0  0  0  0  0  0
   45.6097   57.4820   31.3699 C   0  0  2  0  0  0  0  0  0  0  0  0
   46.1547   58.8014   30.9122 C   0  0  0  0  0  0  0  0  0  0  0  0
   46.8304   58.8624   29.8974 O   0  0  0  0  0  0  0  0  0  0  0  0
   46.7304   56.6695   32.0357 C   0  0  0  0  0  0  0  0  0  0  0  0
   46.8986   57.1464   33.4753 C   0  0  0  0  0  0  0  0  0  0  0  0
   48.6128   57.5970   33.8948 S   0  0  2  0  0  0  0  0  0  0  0  0
   49.1399   58.6960   32.5440 C   0  0  0  0  0  0  0  0  0  0  0  0
   49.7506   56.2024   33.5688 C   0  0  0  0  0  0  0  0  0  0  0  0
   48.8943   54.9906   33.8433 C   0  0  1  0  0  0  0  0  0  0  0  0
   48.4782   54.5842   32.5814 O   0  0  0  0  0  0  0  0  0  0  0  0
   49.4838   53.6925   34.3970 C   0  0  1  0  0  0  0  0  0  0  0  0
   49.4676   53.6486   35.7951 O   0  0  0  0  0  0  0  0  0  0  0  0
   48.4772   52.6576   33.6995 C   0  0  1  0  0  0  0  0  0  0  0  0
   47.0896   52.8976   33.9761 O   0  0  0  0  0  0  0  0  0  0  0  0
   48.9509   53.1959   32.3691 C   0  0  1  0  0  0  0  0  0  0  0  0
   45.9067   59.8130   31.5493 O   0  0  0  0  0  0  0  0  0  0  0  0
   49.7040   55.7588   28.1108 N   0  0  0  0  0  0  0  0  0  0  0  0
   50.0620   56.0205   29.3689 C   0  0  0  0  0  0  0  0  0  0  0  0
   49.8061   55.1719   30.3637 N   0  0  0  0  0  0  0  0  0  0  0  0
   49.0653   54.0741   30.1616 C   0  0  0  0  0  0  0  0  0  0  0  0
   48.6043   53.7921   28.8362 C   0  0  0  0  0  0  0  0  0  0  0  0
   48.9720   54.6960   27.8019 C   0  0  0  0  0  0  0  0  0  0  0  0
   48.5878   54.4896   26.5067 N   0  0  0  0  0  0  0  0  0  0  0  0
   47.8880   52.6527   28.8999 N   0  0  0  0  0  0  0  0  0  0  0  0
   47.8660   52.2189   30.1409 C   0  0  0  0  0  0  0  0  0  0  0  0
   48.5866   53.0404   30.9726 N   0  0  0  0  0  0  0  0  0  0  0  0
  2  1  1  6  0  0  0
  2  3  1  0  0  0  0
  2  5  1  0  0  0  0
  3  4  1  0  0  0  0
  3 17  1  0  0  0  0
  5  6  1  0  0  0  0
  7  6  1  6  0  0  0
  7  8  1  0  0  0  0
  7  9  1  0  0  0  0
 10  9  1  6  0  0  0
 10 11  1  0  0  0  0
 10 12  1  0  0  0  0
 11 16  1  0  0  0  0
 12 13  1  1  0  0  0
 12 14  1  0  0  0  0
 14 15  1  1  0  0  0
 14 16  1  0  0  0  0
 16 27  1  6  0  0  0
 18 19  2  0  0  0  0
 18 23  1  0  0  0  0
 19 20  1  0  0  0  0
 20 21  2  0  0  0  0
 21 22  1  0  0  0  0
 21 27  1  0  0  0  0
 22 23  2  0  0  0  0
 22 25  1  0  0  0  0
 23 24  1  0  0  0  0
 25 26  2  0  0  0  0
 26 27  1  0  0  0  0
M  END
>  <CHROM.1>
-43.34440108,-159.43092990,-127.35979049,49.22843601,-32.04075753,98.77207393
51.73051753,48.17115448,55.54512897,31.56962084,2.15776670,-1.21717378,1.40933042

>  <Name>
ligand

>  <RI>
0

>  <Rbt.Current_Directory>
/home/itssahil/PROJECTS/Mol_Feturizer/New_Systems/rnas/3IQN

>  <Rbt.Executable>
rbdock ($Id: //depot/dev/client3/rdock/2013.1/src/exe/rbdock.cxx#4 $)

>  <Rbt.Library>
libRbt.so (2013.1, Build901 2013/11/27)

>  <Rbt.Parameter_File>
/export/apps/rDock/src/rDock_2013.1_src/data/scripts/dock_solv.prm

>  <Rbt.Receptor>
prm/pocket_docking_2.prm

>  <SCORE>
-8.14329

>  <SCORE.INTER>
-10.4426

>  <SCORE.INTER.CONST>
1

>  <SCORE.INTER.POLAR>
0

>  <SCORE.INTER.ROT>
7

>  <SCORE.INTER.SOLV>
8.49492

>  <SCORE.INTER.VDW>
-18.06

>  <SCORE.INTER.norm>
-0.386762

>  <SCORE.INTRA>
1.90936

>  <SCORE.INTRA.DIHEDRAL>
6.34183

>  <SCORE.INTRA.DIHEDRAL.0>
10.0365

>  <SCORE.INTRA.POLAR>
0

>  <SCORE.INTRA.POLAR.0>
0

>  <SCORE.INTRA.REPUL>
0

>  <SCORE.INTRA.REPUL.0>
0

>  <SCORE.INTRA.SOLV>
-0.804653

>  <SCORE.INTRA.SOLV.lig_0>
-48.6728

>  <SCORE.INTRA.VDW>
-0.859233

>  <SCORE.INTRA.VDW.0>
-1.10662

>  <SCORE.INTRA.norm>
0.0707169

>  <SCORE.RESTR>
0.38991

>  <SCORE.RESTR.CAVITY>
0.38991

>  <SCORE.RESTR.norm>
0.0144411

>  <SCORE.SYSTEM>
0

>  <SCORE.SYSTEM.CONST>
0

>  <SCORE.SYSTEM.DIHEDRAL>
0

>  <SCORE.SYSTEM.SOLV>
0

>  <SCORE.SYSTEM.norm>
0

>  <SCORE.heavy>
27

>  <SCORE.norm>
-0.301603

>  <RMSD>
5.050

$$$$
ligand
 OpenBabel11021811483D
libRbt.so/2013.1/901 2013/11/27
 27 29  0  0  0  0  0  0  0  0999 V2000
   48.0071   54.2040   23.7677 N   0  0  0  0  0  0  0  0  0  0  0  0
   48.7486   55.1266   24.6374 C   0  0  2  0  0  0  0  0  0  0  0  0
   50.0898   54.5258   24.9333 C   0  0  0  0  0  0  0  0  0  0  0  0
   50.1732   53.5525   25.6654 O   0  0  0  0  0  0  0  0  0  0  0  0
   47.9866   55.3484   25.9525 C   0  0  0  0  0  0  0  0  0  0  0  0
   48.7458   56.3667   26.7981 C   0  0  0  0  0  0  0  0  0  0  0  0
   47.9058   56.7838   28.3594 S   0  0  2  0  0  0  0  0  0  0  0  0
   46.3993   57.6657   27.8462 C   0  0  0  0  0  0  0  0  0  0  0  0
   48.7537   58.1662   29.2055 C   0  0  0  0  0  0  0  0  0  0  0  0
   47.8219   58.4922   30.3468 C   0  0  1  0  0  0  0  0  0  0  0  0
   47.9989   57.4368   31.2330 O   0  0  0  0  0  0  0  0  0  0  0  0
   48.0548   59.6948   31.2625 C   0  0  1  0  0  0  0  0  0  0  0  0
   47.4143   60.8510   30.8043 O   0  0  0  0  0  0  0  0  0  0  0  0
   47.4291   59.0923   32.6101 C   0  0  1  0  0  0  0  0  0  0  0  0
   46.0737   58.6372   32.4864 O   0  0  0  0  0  0  0  0  0  0  0  0
   48.4662   57.9964   32.5231 C   0  0  1  0  0  0  0  0  0  0  0  0
   51.0927   55.0043   24.4273 O   0  0  0  0  0  0  0  0  0  0  0  0
   45.8089   54.4399   34.8809 N   0  0  0  0  0  0  0  0  0  0  0  0
   45.4301   55.5783   34.2977 C   0  0  0  0  0  0  0  0  0  0  0  0
   46.2993   56.3707   33.6717 N   0  0  0  0  0  0  0  0  0  0  0  0
   47.6146   56.1193   33.7101 C   0  0  0  0  0  0  0  0  0  0  0  0
   48.0685   54.9413   34.3846 C   0  0  0  0  0  0  0  0  0  0  0  0
   47.0871   54.0950   34.9701 C   0  0  0  0  0  0  0  0  0  0  0  0
   47.4358   52.9426   35.6166 N   0  0  0  0  0  0  0  0  0  0  0  0
   49.4121   54.9210   34.2858 N   0  0  0  0  0  0  0  0  0  0  0  0
   49.8176   55.9791   33.6190 C   0  0  0  0  0  0  0  0  0  0  0  0
   48.7585   56.7564   33.2187 N   0  0  0  0  0  0  0  0  0  0  0  0
  2  1  1  6  0  0  0
  2  3  1  0  0  0  0
  2  5  1  0  0  0  0
  3  4  1  0  0  0  0
  3 17  1  0  0  0  0
  5  6  1  0  0  0  0
  7  6  1  6  0  0  0
  7  8  1  0  0  0  0
  7  9  1  0  0  0  0
 10  9  1  6  0  0  0
 10 11  1  0  0  0  0
 10 12  1  0  0  0  0
 11 16  1  0  0  0  0
 12 13  1  6  0  0  0
 12 14  1  0  0  0  0
 14 15  1  6  0  0  0
 14 16  1  0  0  0  0
 16 27  1  1  0  0  0
 18 19  2  0  0  0  0
 18 23  1  0  0  0  0
 19 20  1  0  0  0  0
 20 21  2  0  0  0  0
 21 22  1  0  0  0  0
 21 27  1  0  0  0  0
 22 23  2  0  0  0  0
 22 25  1  0  0  0  0
 23 24  1  0  0  0  0
 25 26  2  0  0  0  0
 26 27  1  0  0  0  0
M  END
>  <CHROM.1>
-70.86878766,-177.00621105,177.24042752,-67.14771049,172.25374294,73.13232057
-78.16356414,48.03576935,56.39282546,30.36235702,-0.70800067,-1.30284825
2.32701822

>  <Name>
ligand

>  <RI>
0

>  <Rbt.Current_Directory>
/home/itssahil/PROJECTS/Mol_Feturizer/New_Systems/rnas/3IQN

>  <Rbt.Executable>
rbdock ($Id: //depot/dev/client3/rdock/2013.1/src/exe/rbdock.cxx#4 $)

>  <Rbt.Library>
libRbt.so (2013.1, Build901 2013/11/27)

>  <Rbt.Parameter_File>
/export/apps/rDock/src/rDock_2013.1_src/data/scripts/dock_solv.prm

>  <Rbt.Receptor>
prm/pocket_docking_5.prm

>  <SCORE>
-17.6268

>  <SCORE.INTER>
-14.4075

>  <SCORE.INTER.CONST>
1

>  <SCORE.INTER.POLAR>
0

>  <SCORE.INTER.ROT>
7

>  <SCORE.INTER.SOLV>
13.7172

>  <SCORE.INTER.VDW>
-22.4441

>  <SCORE.INTER.norm>
-0.533612

>  <SCORE.INTRA>
-3.21924

>  <SCORE.INTRA.DIHEDRAL>
-6.27104

>  <SCORE.INTRA.DIHEDRAL.0>
10.0365

>  <SCORE.INTRA.POLAR>
0

>  <SCORE.INTRA.POLAR.0>
0

>  <SCORE.INTRA.REPUL>
0

>  <SCORE.INTRA.REPUL.0>
0

>  <SCORE.INTRA.SOLV>
-0.873409

>  <SCORE.INTRA.SOLV.lig_0>
-48.6728

>  <SCORE.INTRA.VDW>
0.352983

>  <SCORE.INTRA.VDW.0>
-1.10662

>  <SCORE.INTRA.norm>
-0.119231

>  <SCORE.RESTR>
0

>  <SCORE.RESTR.CAVITY>
0

>  <SCORE.RESTR.norm>
0

>  <SCORE.SYSTEM>
0

>  <SCORE.SYSTEM.CONST>
0

>  <SCORE.SYSTEM.DIHEDRAL>
0

>  <SCORE.SYSTEM.SOLV>
0

>  <SCORE.SYSTEM.norm>
0

>  <SCORE.heavy>
27

>  <SCORE.norm>
-0.652844

>  <RMSD>
5.054

$$$$
ligand
 OpenBabel11021811483D
libRbt.so/2013.1/901 2013/11/27
 27 29  0  0  0  0  0  0  0  0999 V2000
   47.2816   52.6102   26.5706 N   0  0  0  0  0  0  0  0  0  0  0  0
   47.8282   53.4607   27.6360 C   0  0  2  0  0  0  0  0  0  0  0  0
   48.4428   52.5779   28.6802 C   0  0  0  0  0  0  0  0  0  0  0  0
   49.5789   52.7955   29.0701 O   0  0  0  0  0  0  0  0  0  0  0  0
   46.7119   54.3029   28.2716 C   0  0  0  0  0  0  0  0  0  0  0  0
   47.3440   55.3923   29.1331 C   0  0  0  0  0  0  0  0  0  0  0  0
   48.0693   56.7537   28.1646 S   0  0  2  0  0  0  0  0  0  0  0  0
   49.7141   56.1445   27.6810 C   0  0  0  0  0  0  0  0  0  0  0  0
   48.5979   58.1210   29.2586 C   0  0  0  0  0  0  0  0  0  0  0  0
   47.4430   58.2559   30.2204 C   0  0  1  0  0  0  0  0  0  0  0  0
   47.7419   57.3481   31.2290 O   0  0  0  0  0  0  0  0  0  0  0  0
   47.2076   59.5336   31.0273 C   0  0  1  0  0  0  0  0  0  0  0  0
   46.3725   60.4403   30.3660 O   0  0  0  0  0  0  0  0  0  0  0  0
   46.5509   58.8732   32.3324 C   0  0  1  0  0  0  0  0  0  0  0  0
   45.3970   58.0605   32.0727 O   0  0  0  0  0  0  0  0  0  0  0  0
   47.8358   58.0963   32.5046 C   0  0  1  0  0  0  0  0  0  0  0  0
   47.7971   51.6531   29.1478 O   0  0  0  0  0  0  0  0  0  0  0  0
   45.8150   54.2195   34.9858 N   0  0  0  0  0  0  0  0  0  0  0  0
   45.2547   55.1763   34.2440 C   0  0  0  0  0  0  0  0  0  0  0  0
   45.9845   56.0987   33.6181 N   0  0  0  0  0  0  0  0  0  0  0  0
   47.3079   56.1792   33.8098 C   0  0  0  0  0  0  0  0  0  0  0  0
   47.9391   55.2104   34.6535 C   0  0  0  0  0  0  0  0  0  0  0  0
   47.1183   54.2051   35.2348 C   0  0  0  0  0  0  0  0  0  0  0  0
   47.6452   53.2329   36.0379 N   0  0  0  0  0  0  0  0  0  0  0  0
   49.2525   55.5090   34.6862 N   0  0  0  0  0  0  0  0  0  0  0  0
   49.4778   56.5718   33.9456 C   0  0  0  0  0  0  0  0  0  0  0  0
   48.3228   57.0302   33.3608 N   0  0  0  0  0  0  0  0  0  0  0  0
  2  1  1  6  0  0  0
  2  3  1  0  0  0  0
  2  5  1  0  0  0  0
  3  4  1  0  0  0  0
  3 17  1  0  0  0  0
  5  6  1  0  0  0  0
  7  6  1  1  0  0  0
  7  8  1  0  0  0  0
  7  9  1  0  0  0  0
 10  9  1  6  0  0  0
 10 11  1  0  0  0  0
 10 12  1  0  0  0  0
 11 16  1  0  0  0  0
 12 13  1  6  0  0  0
 12 14  1  0  0  0  0
 14 15  1  6  0  0  0
 14 16  1  0  0  0  0
 16 27  1  1  0  0  0
 18 19  2  0  0  0  0
 18 23  1  0  0  0  0
 19 20  1  0  0  0  0
 20 21  2  0  0  0  0
 21 22  1  0  0  0  0
 21 27  1  0  0  0  0
 22 23  2  0  0  0  0
 22 25  1  0  0  0  0
 23 24  1  0  0  0  0
 25 26  2  0  0  0  0
 26 27  1  0  0  0  0
M  END
>  <CHROM.1>
129.53209143,-167.03634098,74.71945193,-82.58193104,-43.74213405,87.18642853
-81.19327806,47.58285163,55.89821808,31.16529012,-0.45368253,-1.40424867
2.41622406

>  <Name>
ligand

>  <RI>
0

>  <Rbt.Current_Directory>
/home/itssahil/PROJECTS/Mol_Feturizer/New_Systems/rnas/3IQN

>  <Rbt.Executable>
rbdock ($Id: //depot/dev/client3/rdock/2013.1/src/exe/rbdock.cxx#4 $)

>  <Rbt.Library>
libRbt.so (2013.1, Build901 2013/11/27)

>  <Rbt.Parameter_File>
/export/apps/rDock/src/rDock_2013.1_src/data/scripts/dock_solv.prm

>  <Rbt.Receptor>
prm/pocket_docking_4.prm

>  <SCORE>
-14.3378

>  <SCORE.INTER>
-12.2425

>  <SCORE.INTER.CONST>
1

>  <SCORE.INTER.POLAR>
0

>  <SCORE.INTER.ROT>
7

>  <SCORE.INTER.SOLV>
11.6237

>  <SCORE.INTER.VDW>
-20.3029

>  <SCORE.INTER.norm>
-0.453427

>  <SCORE.INTRA>
-2.09524

>  <SCORE.INTRA.DIHEDRAL>
-1.31653

>  <SCORE.INTRA.DIHEDRAL.0>
10.0365

>  <SCORE.INTRA.POLAR>
0

>  <SCORE.INTRA.POLAR.0>
0

>  <SCORE.INTRA.REPUL>
0

>  <SCORE.INTRA.REPUL.0>
0

>  <SCORE.INTRA.SOLV>
-0.37874

>  <SCORE.INTRA.SOLV.lig_0>
-48.6728

>  <SCORE.INTRA.VDW>
-1.2476

>  <SCORE.INTRA.VDW.0>
-1.10662

>  <SCORE.INTRA.norm>
-0.0776015

>  <SCORE.RESTR>
0

>  <SCORE.RESTR.CAVITY>
0

>  <SCORE.RESTR.norm>
0

>  <SCORE.SYSTEM>
0

>  <SCORE.SYSTEM.CONST>
0

>  <SCORE.SYSTEM.DIHEDRAL>
0

>  <SCORE.SYSTEM.SOLV>
0

>  <SCORE.SYSTEM.norm>
0

>  <SCORE.heavy>
27

>  <SCORE.norm>
-0.531029

>  <RMSD>
5.059

$$$$
ligand
 OpenBabel11021811483D
libRbt.so/2013.1/901 2013/11/27
 27 29  0  0  0  0  0  0  0  0999 V2000
   52.9450   55.1071   27.7250 N   0  0  0  0  0  0  0  0  0  0  0  0
   51.6244   54.6730   28.1992 C   0  0  2  0  0  0  0  0  0  0  0  0
   51.2322   53.4371   27.4467 C   0  0  0  0  0  0  0  0  0  0  0  0
   51.4347   53.3656   26.2450 O   0  0  0  0  0  0  0  0  0  0  0  0
   50.5812   55.7733   27.9537 C   0  0  0  0  0  0  0  0  0  0  0  0
   49.2483   55.3332   28.5518 C   0  0  0  0  0  0  0  0  0  0  0  0
   47.9515   56.6083   28.4509 S   0  0  2  0  0  0  0  0  0  0  0  0
   47.9025   57.0720   26.6922 C   0  0  0  0  0  0  0  0  0  0  0  0
   48.5470   58.1975   29.1334 C   0  0  0  0  0  0  0  0  0  0  0  0
   47.5700   58.4787   30.2485 C   0  0  1  0  0  0  0  0  0  0  0  0
   47.8559   57.5031   31.1956 O   0  0  0  0  0  0  0  0  0  0  0  0
   47.6521   59.7505   31.0940 C   0  0  1  0  0  0  0  0  0  0  0  0
   46.8890   60.7970   30.5657 O   0  0  0  0  0  0  0  0  0  0  0  0
   47.0831   59.1580   32.4709 C   0  0  1  0  0  0  0  0  0  0  0  0
   45.7906   58.5433   32.3662 O   0  0  0  0  0  0  0  0  0  0  0  0
   48.2401   58.1856   32.4536 C   0  0  1  0  0  0  0  0  0  0  0  0
   50.7255   52.5001   28.0433 O   0  0  0  0  0  0  0  0  0  0  0  0
   45.9789   54.4369   34.9239 N   0  0  0  0  0  0  0  0  0  0  0  0
   45.4782   55.4868   34.2709 C   0  0  0  0  0  0  0  0  0  0  0  0
   46.2601   56.3528   33.6276 N   0  0  0  0  0  0  0  0  0  0  0  0
   47.5947   56.2752   33.7150 C   0  0  0  0  0  0  0  0  0  0  0  0
   48.1718   55.2001   34.4633 C   0  0  0  0  0  0  0  0  0  0  0  0
   47.2868   54.2643   35.0660 C   0  0  0  0  0  0  0  0  0  0  0  0
   47.7573   53.1996   35.7821 N   0  0  0  0  0  0  0  0  0  0  0  0
   49.5096   55.3482   34.4023 N   0  0  0  0  0  0  0  0  0  0  0  0
   49.7994   56.4157   33.6915 C   0  0  0  0  0  0  0  0  0  0  0  0
   48.6642   57.0294   33.2218 N   0  0  0  0  0  0  0  0  0  0  0  0
  2  1  1  6  0  0  0
  2  3  1  0  0  0  0
  2  5  1  0  0  0  0
  3  4  1  0  0  0  0
  3 17  1  0  0  0  0
  5  6  1  0  0  0  0
  7  6  1  6  0  0  0
  7  8  1  0  0  0  0
  7  9  1  0  0  0  0
 10  9  1  6  0  0  0
 10 11  1  0  0  0  0
 10 12  1  0  0  0  0
 11 16  1  0  0  0  0
 12 13  1  6  0  0  0
 12 14  1  0  0  0  0
 14 15  1  6  0  0  0
 14 16  1  0  0  0  0
 16 27  1  1  0  0  0
 18 19  2  0  0  0  0
 18 23  1  0  0  0  0
 19 20  1  0  0  0  0
 20 21  2  0  0  0  0
 21 22  1  0  0  0  0
 21 27  1  0  0  0  0
 22 23  2  0  0  0  0
 22 25  1  0  0  0  0
 23 24  1  0  0  0  0
 25 26  2  0  0  0  0
 26 27  1  0  0  0  0
M  END
>  <CHROM.1>
-42.31629288,-175.75620719,175.27067676,53.43653614,-121.07356796,68.72524893
-76.66341154,48.49222428,56.27703134,30.95283794,-0.58562363,-0.97266159
2.22603164

>  <Name>
ligand

>  <RI>
0

>  <Rbt.Current_Directory>
/home/itssahil/PROJECTS/Mol_Feturizer/New_Systems/rnas/3IQN

>  <Rbt.Executable>
rbdock ($Id: //depot/dev/client3/rdock/2013.1/src/exe/rbdock.cxx#4 $)

>  <Rbt.Library>
libRbt.so (2013.1, Build901 2013/11/27)

>  <Rbt.Parameter_File>
/export/apps/rDock/src/rDock_2013.1_src/data/scripts/dock_solv.prm

>  <Rbt.Receptor>
prm/pocket_docking_7.prm

>  <SCORE>
-15.4021

>  <SCORE.INTER>
-13.3958

>  <SCORE.INTER.CONST>
1

>  <SCORE.INTER.POLAR>
0

>  <SCORE.INTER.ROT>
7

>  <SCORE.INTER.SOLV>
17.888

>  <SCORE.INTER.VDW>
-23.1599

>  <SCORE.INTER.norm>
-0.496142

>  <SCORE.INTRA>
-2.00631

>  <SCORE.INTRA.DIHEDRAL>
-1.92859

>  <SCORE.INTRA.DIHEDRAL.0>
10.0365

>  <SCORE.INTRA.POLAR>
0

>  <SCORE.INTRA.POLAR.0>
0

>  <SCORE.INTRA.REPUL>
0

>  <SCORE.INTRA.REPUL.0>
0

>  <SCORE.INTRA.SOLV>
-0.886764

>  <SCORE.INTRA.SOLV.lig_0>
-48.6728

>  <SCORE.INTRA.VDW>
-0.598628

>  <SCORE.INTRA.VDW.0>
-1.10662

>  <SCORE.INTRA.norm>
-0.0743076

>  <SCORE.RESTR>
0

>  <SCORE.RESTR.CAVITY>
0

>  <SCORE.RESTR.norm>
0

>  <SCORE.SYSTEM>
0

>  <SCORE.SYSTEM.CONST>
0

>  <SCORE.SYSTEM.DIHEDRAL>
0

>  <SCORE.SYSTEM.SOLV>
0

>  <SCORE.SYSTEM.norm>
0

>  <SCORE.heavy>
27

>  <SCORE.norm>
-0.57045

>  <RMSD>
5.063

$$$$
ligand
 OpenBabel11021811483D
libRbt.so/2013.1/901 2013/11/27
 27 29  0  0  0  0  0  0  0  0999 V2000
   50.5545   53.3059   26.4899 N   0  0  0  0  0  0  0  0  0  0  0  0
   51.0723   54.6673   26.6792 C   0  0  2  0  0  0  0  0  0  0  0  0
   52.0607   54.6470   27.8062 C   0  0  0  0  0  0  0  0  0  0  0  0
   52.9014   55.5276   27.8952 O   0  0  0  0  0  0  0  0  0  0  0  0
   49.9264   55.6310   27.0220 C   0  0  0  0  0  0  0  0  0  0  0  0
   49.1085   55.0395   28.1663 C   0  0  0  0  0  0  0  0  0  0  0  0
   47.6850   56.0685   28.6482 S   0  0  2  0  0  0  0  0  0  0  0  0
   46.8850   56.5075   27.0742 C   0  0  0  0  0  0  0  0  0  0  0  0
   48.2309   57.7406   29.1500 C   0  0  0  0  0  0  0  0  0  0  0  0
   47.2806   58.0895   30.2691 C   0  0  1  0  0  0  0  0  0  0  0  0
   47.6254   57.2075   31.2859 O   0  0  0  0  0  0  0  0  0  0  0  0
   47.3498   59.4312   30.9999 C   0  0  1  0  0  0  0  0  0  0  0  0
   46.5389   60.4066   30.4100 O   0  0  0  0  0  0  0  0  0  0  0  0
   46.8419   58.9439   32.4405 C   0  0  1  0  0  0  0  0  0  0  0  0
   45.5662   58.2867   32.4318 O   0  0  0  0  0  0  0  0  0  0  0  0
   48.0271   58.0064   32.4675 C   0  0  1  0  0  0  0  0  0  0  0  0
   52.0101   53.7566   28.6402 O   0  0  0  0  0  0  0  0  0  0  0  0
   45.9651   54.2854   35.1455 N   0  0  0  0  0  0  0  0  0  0  0  0
   45.4105   55.2555   34.4169 C   0  0  0  0  0  0  0  0  0  0  0  0
   46.1472   56.1274   33.7297 N   0  0  0  0  0  0  0  0  0  0  0  0
   47.4821   56.1436   33.8425 C   0  0  0  0  0  0  0  0  0  0  0  0
   48.1127   55.1598   34.6690 C   0  0  0  0  0  0  0  0  0  0  0  0
   47.2784   54.2089   35.3187 C   0  0  0  0  0  0  0  0  0  0  0  0
   47.8026   53.2263   36.1107 N   0  0  0  0  0  0  0  0  0  0  0  0
   49.4390   55.3914   34.6189 N   0  0  0  0  0  0  0  0  0  0  0  0
   49.6731   56.4271   33.8435 C   0  0  0  0  0  0  0  0  0  0  0  0
   48.5099   56.9329   33.3170 N   0  0  0  0  0  0  0  0  0  0  0  0
  2  1  1  1  0  0  0
  2  3  1  0  0  0  0
  2  5  1  0  0  0  0
  3  4  1  0  0  0  0
  3 17  1  0  0  0  0
  5  6  1  0  0  0  0
  7  6  1  6  0  0  0
  7  8  1  0  0  0  0
  7  9  1  0  0  0  0
 10  9  1  6  0  0  0
 10 11  1  0  0  0  0
 10 12  1  0  0  0  0
 11 16  1  0  0  0  0
 12 13  1  6  0  0  0
 12 14  1  0  0  0  0
 14 15  1  6  0  0  0
 14 16  1  0  0  0  0
 16 27  1  1  0  0  0
 18 19  2  0  0  0  0
 18 23  1  0  0  0  0
 19 20  1  0  0  0  0
 20 21  2  0  0  0  0
 21 22  1  0  0  0  0
 21 27  1  0  0  0  0
 22 23  2  0  0  0  0
 22 25  1  0  0  0  0
 23 24  1  0  0  0  0
 25 26  2  0  0  0  0
 26 27  1  0  0  0  0
M  END
>  <CHROM.1>
158.12077706,50.51834933,-178.59087904,46.89590764,-144.20832296,67.63259065
-72.96698265,48.33493578,56.18777767,31.00396430,-0.83445672,-0.83691036
2.03300320

>  <Name>
ligand

>  <RI>
0

>  <Rbt.Current_Directory>
/home/itssahil/PROJECTS/Mol_Feturizer/New_Systems/rnas/3IQN

>  <Rbt.Executable>
rbdock ($Id: //depot/dev/client3/rdock/2013.1/src/exe/rbdock.cxx#4 $)

>  <Rbt.Library>
libRbt.so (2013.1, Build901 2013/11/27)

>  <Rbt.Parameter_File>
/export/apps/rDock/src/rDock_2013.1_src/data/scripts/dock_solv.prm

>  <Rbt.Receptor>
prm/pocket_docking_6.prm

>  <SCORE>
-15.2667

>  <SCORE.INTER>
-14.0714

>  <SCORE.INTER.CONST>
1

>  <SCORE.INTER.POLAR>
0

>  <SCORE.INTER.ROT>
7

>  <SCORE.INTER.SOLV>
10.7986

>  <SCORE.INTER.VDW>
-21.2471

>  <SCORE.INTER.norm>
-0.521164

>  <SCORE.INTRA>
-1.19525

>  <SCORE.INTRA.DIHEDRAL>
-2.73154

>  <SCORE.INTRA.DIHEDRAL.0>
10.0365

>  <SCORE.INTRA.POLAR>
0

>  <SCORE.INTRA.POLAR.0>
0

>  <SCORE.INTRA.REPUL>
0

>  <SCORE.INTRA.REPUL.0>
0

>  <SCORE.INTRA.SOLV>
-0.0495886

>  <SCORE.INTRA.SOLV.lig_0>
-48.6728

>  <SCORE.INTRA.VDW>
0.195315

>  <SCORE.INTRA.VDW.0>
-1.10662

>  <SCORE.INTRA.norm>
-0.0442686

>  <SCORE.RESTR>
0

>  <SCORE.RESTR.CAVITY>
0

>  <SCORE.RESTR.norm>
0

>  <SCORE.SYSTEM>
0

>  <SCORE.SYSTEM.CONST>
0

>  <SCORE.SYSTEM.DIHEDRAL>
0

>  <SCORE.SYSTEM.SOLV>
0

>  <SCORE.SYSTEM.norm>
0

>  <SCORE.heavy>
27

>  <SCORE.norm>
-0.565432

>  <RMSD>
5.067

$$$$
ligand
 OpenBabel11021811483D
libRbt.so/2013.1/901 2013/11/27
 27 29  0  0  0  0  0  0  0  0999 V2000
   52.0283   54.5586   26.1877 N   0  0  0  0  0  0  0  0  0  0  0  0
   50.7878   54.5564   26.9743 C   0  0  2  0  0  0  0  0  0  0  0  0
   49.6266   54.4744   26.0297 C   0  0  0  0  0  0  0  0  0  0  0  0
   48.6545   53.7943   26.3170 O   0  0  0  0  0  0  0  0  0  0  0  0
   50.6807   55.8440   27.8050 C   0  0  0  0  0  0  0  0  0  0  0  0
   49.5773   55.6712   28.8447 C   0  0  0  0  0  0  0  0  0  0  0  0
   50.1277   54.8060   30.3500 S   0  0  2  0  0  0  0  0  0  0  0  0
   50.4369   53.0971   29.8074 C   0  0  0  0  0  0  0  0  0  0  0  0
   48.7164   54.4838   31.4682 C   0  0  0  0  0  0  0  0  0  0  0  0
   48.1855   55.8666   31.7566 C   0  0  1  0  0  0  0  0  0  0  0  0
   46.9089   55.6360   32.2542 O   0  0  0  0  0  0  0  0  0  0  0  0
   48.7807   56.7484   32.8552 C   0  0  1  0  0  0  0  0  0  0  0  0
   49.8124   57.5684   32.3860 O   0  0  0  0  0  0  0  0  0  0  0  0
   47.4512   57.5437   33.2683 C   0  0  1  0  0  0  0  0  0  0  0  0
   46.8031   58.2248   32.1841 O   0  0  0  0  0  0  0  0  0  0  0  0
   46.8404   56.2067   33.6200 C   0  0  1  0  0  0  0  0  0  0  0  0
   49.6522   55.1019   24.9826 O   0  0  0  0  0  0  0  0  0  0  0  0
   45.0535   52.0956   35.8945 N   0  0  0  0  0  0  0  0  0  0  0  0
   46.2949   52.4376   35.5461 C   0  0  0  0  0  0  0  0  0  0  0  0
   46.5692   53.6164   34.9890 N   0  0  0  0  0  0  0  0  0  0  0  0
   45.5888   54.4598   34.6394 C   0  0  0  0  0  0  0  0  0  0  0  0
   44.2356   54.0993   34.9355 C   0  0  0  0  0  0  0  0  0  0  0  0
   44.0111   52.8614   35.5984 C   0  0  0  0  0  0  0  0  0  0  0  0
   42.7509   52.4518   35.9327 N   0  0  0  0  0  0  0  0  0  0  0  0
   43.4518   55.0983   34.4850 N   0  0  0  0  0  0  0  0  0  0  0  0
   44.2015   56.0297   33.9380 C   0  0  0  0  0  0  0  0  0  0  0  0
   45.5347   55.7084   34.0119 N   0  0  0  0  0  0  0  0  0  0  0  0
  2  1  1  6  0  0  0
  2  3  1  0  0  0  0
  2  5  1  0  0  0  0
  3  4  1  0  0  0  0
  3 17  1  0  0  0  0
  5  6  1  0  0  0  0
  7  6  1  6  0  0  0
  7  8  1  0  0  0  0
  7  9  1  0  0  0  0
 10  9  1  1  0  0  0
 10 11  1  0  0  0  0
 10 12  1  0  0  0  0
 11 16  1  0  0  0  0
 12 13  1  6  0  0  0
 12 14  1  0  0  0  0
 14 15  1  6  0  0  0
 14 16  1  0  0  0  0
 16 27  1  6  0  0  0
 18 19  2  0  0  0  0
 18 23  1  0  0  0  0
 19 20  1  0  0  0  0
 20 21  2  0  0  0  0
 21 22  1  0  0  0  0
 21 27  1  0  0  0  0
 22 23  2  0  0  0  0
 22 25  1  0  0  0  0
 23 24  1  0  0  0  0
 25 26  2  0  0  0  0
 26 27  1  0  0  0  0
M  END
>  <CHROM.1>
141.28650858,-166.66095910,83.29012257,-68.88959762,-59.32221200,162.68170293
90.36428939,47.70607305,54.95679913,31.56737032,0.36587659,-0.90590586,-2.59375998

>  <Name>
ligand

>  <RI>
0

>  <Rbt.Current_Directory>
/home/itssahil/PROJECTS/Mol_Feturizer/New_Systems/rnas/3IQN

>  <Rbt.Executable>
rbdock ($Id: //depot/dev/client3/rdock/2013.1/src/exe/rbdock.cxx#4 $)

>  <Rbt.Library>
libRbt.so (2013.1, Build901 2013/11/27)

>  <Rbt.Parameter_File>
/export/apps/rDock/src/rDock_2013.1_src/data/scripts/dock_solv.prm

>  <Rbt.Receptor>
prm/pocket_docking_8.prm

>  <SCORE>
-16.0968

>  <SCORE.INTER>
-12.3247

>  <SCORE.INTER.CONST>
1

>  <SCORE.INTER.POLAR>
0

>  <SCORE.INTER.ROT>
7

>  <SCORE.INTER.SOLV>
8.35187

>  <SCORE.INTER.VDW>
-19.2671

>  <SCORE.INTER.norm>
-0.456469

>  <SCORE.INTRA>
-3.77218

>  <SCORE.INTRA.DIHEDRAL>
-3.56058

>  <SCORE.INTRA.DIHEDRAL.0>
10.0365

>  <SCORE.INTRA.POLAR>
0

>  <SCORE.INTRA.POLAR.0>
0

>  <SCORE.INTRA.REPUL>
0

>  <SCORE.INTRA.REPUL.0>
0

>  <SCORE.INTRA.SOLV>
-0.477308

>  <SCORE.INTRA.SOLV.lig_0>
-48.6728

>  <SCORE.INTRA.VDW>
-1.75324

>  <SCORE.INTRA.VDW.0>
-1.10662

>  <SCORE.INTRA.norm>
-0.13971

>  <SCORE.RESTR>
0

>  <SCORE.RESTR.CAVITY>
0

>  <SCORE.RESTR.norm>
0

>  <SCORE.SYSTEM>
0

>  <SCORE.SYSTEM.CONST>
0

>  <SCORE.SYSTEM.DIHEDRAL>
0

>  <SCORE.SYSTEM.SOLV>
0

>  <SCORE.SYSTEM.norm>
0

>  <SCORE.heavy>
27

>  <SCORE.norm>
-0.596179

>  <RMSD>
5.067

$$$$
ligand
 OpenBabel11021811483D
libRbt.so/2013.1/901 2013/11/27
 27 29  0  0  0  0  0  0  0  0999 V2000
   48.9308   52.3348   26.0924 N   0  0  0  0  0  0  0  0  0  0  0  0
   47.6092   52.3791   26.7317 C   0  0  2  0  0  0  0  0  0  0  0  0
   46.5699   52.0726   25.6957 C   0  0  0  0  0  0  0  0  0  0  0  0
   45.4849   51.6275   26.0343 O   0  0  0  0  0  0  0  0  0  0  0  0
   47.3480   53.7736   27.3204 C   0  0  0  0  0  0  0  0  0  0  0  0
   48.2850   53.9939   28.5044 C   0  0  0  0  0  0  0  0  0  0  0  0
   48.0767   55.6180   29.3022 S   0  0  2  0  0  0  0  0  0  0  0  0
   48.8967   56.7885   28.1762 C   0  0  0  0  0  0  0  0  0  0  0  0
   49.2009   55.7881   30.7351 C   0  0  0  0  0  0  0  0  0  0  0  0
   48.7544   57.0828   31.3686 C   0  0  1  0  0  0  0  0  0  0  0  0
   47.5207   56.7721   31.9274 O   0  0  0  0  0  0  0  0  0  0  0  0
   49.4829   57.6891   32.5690 C   0  0  1  0  0  0  0  0  0  0  0  0
   50.4990   58.5729   32.1903 O   0  0  0  0  0  0  0  0  0  0  0  0
   48.2299   58.3984   33.2743 C   0  0  1  0  0  0  0  0  0  0  0  0
   47.5125   59.3141   32.4338 O   0  0  0  0  0  0  0  0  0  0  0  0
   47.6011   57.0285   33.3846 C   0  0  1  0  0  0  0  0  0  0  0  0
   46.8086   52.2848   24.5172 O   0  0  0  0  0  0  0  0  0  0  0  0
   45.9232   52.6400   35.1719 N   0  0  0  0  0  0  0  0  0  0  0  0
   47.1433   53.0271   34.7966 C   0  0  0  0  0  0  0  0  0  0  0  0
   47.3928   54.2722   34.3931 N   0  0  0  0  0  0  0  0  0  0  0  0
   46.4001   55.1565   34.2276 C   0  0  0  0  0  0  0  0  0  0  0  0
   45.0650   54.7584   34.5558 C   0  0  0  0  0  0  0  0  0  0  0  0
   44.8713   53.4400   35.0523 C   0  0  0  0  0  0  0  0  0  0  0  0
   43.6309   52.9879   35.4056 N   0  0  0  0  0  0  0  0  0  0  0  0
   44.2635   55.8107   34.2999 N   0  0  0  0  0  0  0  0  0  0  0  0
   44.9858   56.8093   33.8417 C   0  0  0  0  0  0  0  0  0  0  0  0
   46.3180   56.4806   33.7852 N   0  0  0  0  0  0  0  0  0  0  0  0
  2  1  1  6  0  0  0
  2  3  1  0  0  0  0
  2  5  1  0  0  0  0
  3  4  1  0  0  0  0
  3 17  1  0  0  0  0
  5  6  1  0  0  0  0
  7  6  1  6  0  0  0
  7  8  1  0  0  0  0
  7  9  1  0  0  0  0
 10  9  1  1  0  0  0
 10 11  1  0  0  0  0
 10 12  1  0  0  0  0
 11 16  1  0  0  0  0
 12 13  1  6  0  0  0
 12 14  1  0  0  0  0
 14 15  1  6  0  0  0
 14 16  1  0  0  0  0
 16 27  1  6  0  0  0
 18 19  2  0  0  0  0
 18 23  1  0  0  0  0
 19 20  1  0  0  0  0
 20 21  2  0  0  0  0
 21 22  1  0  0  0  0
 21 27  1  0  0  0  0
 22 23  2  0  0  0  0
 22 25  1  0  0  0  0
 23 24  1  0  0  0  0
 25 26  2  0  0  0  0
 26 27  1  0  0  0  0
M  END
>  <CHROM.1>
156.09229028,-68.65190515,-179.89305704,-76.27884420,-172.33874761,71.12973829
95.58134279,47.22465562,55.12471311,31.12058473,1.38052979,-0.91010760,-2.06777312

>  <Name>
ligand

>  <RI>
0

>  <Rbt.Current_Directory>
/home/itssahil/PROJECTS/Mol_Feturizer/New_Systems/rnas/3IQN

>  <Rbt.Executable>
rbdock ($Id: //depot/dev/client3/rdock/2013.1/src/exe/rbdock.cxx#4 $)

>  <Rbt.Library>
libRbt.so (2013.1, Build901 2013/11/27)

>  <Rbt.Parameter_File>
/export/apps/rDock/src/rDock_2013.1_src/data/scripts/dock_solv.prm

>  <Rbt.Receptor>
prm/pocket_docking_6.prm

>  <SCORE>
-17.7227

>  <SCORE.INTER>
-13.5771

>  <SCORE.INTER.CONST>
1

>  <SCORE.INTER.POLAR>
0

>  <SCORE.INTER.ROT>
7

>  <SCORE.INTER.SOLV>
9.09854

>  <SCORE.INTER.VDW>
-20.3509

>  <SCORE.INTER.norm>
-0.502856

>  <SCORE.INTRA>
-4.14558

>  <SCORE.INTRA.DIHEDRAL>
-5.62882

>  <SCORE.INTRA.DIHEDRAL.0>
10.0365

>  <SCORE.INTRA.POLAR>
0

>  <SCORE.INTRA.POLAR.0>
0

>  <SCORE.INTRA.REPUL>
0

>  <SCORE.INTRA.REPUL.0>
0

>  <SCORE.INTRA.SOLV>
-0.516028

>  <SCORE.INTRA.SOLV.lig_0>
-48.6728

>  <SCORE.INTRA.VDW>
-1.07316

>  <SCORE.INTRA.VDW.0>
-1.10662

>  <SCORE.INTRA.norm>
-0.15354

>  <SCORE.RESTR>
0

>  <SCORE.RESTR.CAVITY>
0

>  <SCORE.RESTR.norm>
0

>  <SCORE.SYSTEM>
0

>  <SCORE.SYSTEM.CONST>
0

>  <SCORE.SYSTEM.DIHEDRAL>
0

>  <SCORE.SYSTEM.SOLV>
0

>  <SCORE.SYSTEM.norm>
0

>  <SCORE.heavy>
27

>  <SCORE.norm>
-0.656396

>  <RMSD>
5.072

$$$$
ligand
 OpenBabel11021811483D
libRbt.so/2013.1/901 2013/11/27
 27 29  0  0  0  0  0  0  0  0999 V2000
   49.9886   53.2026   31.1008 N   0  0  0  0  0  0  0  0  0  0  0  0
   49.6732   53.6416   29.7352 C   0  0  2  0  0  0  0  0  0  0  0  0
   50.9508   54.0316   29.0546 C   0  0  0  0  0  0  0  0  0  0  0  0
   51.4211   55.1438   29.2331 O   0  0  0  0  0  0  0  0  0  0  0  0
   48.7232   54.8481   29.7688 C   0  0  0  0  0  0  0  0  0  0  0  0
   48.3909   55.2558   28.3364 C   0  0  0  0  0  0  0  0  0  0  0  0
   47.3368   56.7374   28.2297 S   0  0  2  0  0  0  0  0  0  0  0  0
   47.4440   57.2497   26.4872 C   0  0  0  0  0  0  0  0  0  0  0  0
   48.1651   58.1813   28.9878 C   0  0  0  0  0  0  0  0  0  0  0  0
   47.3064   58.4745   30.1935 C   0  0  1  0  0  0  0  0  0  0  0  0
   47.7255   57.5428   31.1353 O   0  0  0  0  0  0  0  0  0  0  0  0
   47.4381   59.7781   30.9824 C   0  0  1  0  0  0  0  0  0  0  0  0
   46.5880   60.7821   30.5067 O   0  0  0  0  0  0  0  0  0  0  0  0
   47.0419   59.2199   32.4322 C   0  0  1  0  0  0  0  0  0  0  0  0
   45.7665   58.5646   32.4905 O   0  0  0  0  0  0  0  0  0  0  0  0
   48.2215   58.2816   32.3202 C   0  0  1  0  0  0  0  0  0  0  0  0
   51.5240   53.2279   28.3361 O   0  0  0  0  0  0  0  0  0  0  0  0
   46.3603   54.3421   34.8272 N   0  0  0  0  0  0  0  0  0  0  0  0
   45.7533   55.3439   34.1889 C   0  0  0  0  0  0  0  0  0  0  0  0
   46.4401   56.2773   33.5314 N   0  0  0  0  0  0  0  0  0  0  0  0
   47.7779   56.3194   33.5892 C   0  0  0  0  0  0  0  0  0  0  0  0
   48.4653   55.2993   34.3210 C   0  0  0  0  0  0  0  0  0  0  0  0
   47.6813   54.2872   34.9400 C   0  0  0  0  0  0  0  0  0  0  0  0
   48.2609   53.2680   35.6420 N   0  0  0  0  0  0  0  0  0  0  0  0
   49.7828   55.5667   34.2311 N   0  0  0  0  0  0  0  0  0  0  0  0
   49.9601   56.6568   33.5176 C   0  0  0  0  0  0  0  0  0  0  0  0
   48.7643   57.1670   33.0751 N   0  0  0  0  0  0  0  0  0  0  0  0
  2  1  1  1  0  0  0
  2  3  1  0  0  0  0
  2  5  1  0  0  0  0
  3  4  1  0  0  0  0
  3 17  1  0  0  0  0
  5  6  1  0  0  0  0
  7  6  1  6  0  0  0
  7  8  1  0  0  0  0
  7  9  1  0  0  0  0
 10  9  1  6  0  0  0
 10 11  1  0  0  0  0
 10 12  1  0  0  0  0
 11 16  1  0  0  0  0
 12 13  1  6  0  0  0
 12 14  1  0  0  0  0
 14 15  1  6  0  0  0
 14 16  1  0  0  0  0
 16 27  1  1  0  0  0
 18 19  2  0  0  0  0
 18 23  1  0  0  0  0
 19 20  1  0  0  0  0
 20 21  2  0  0  0  0
 21 22  1  0  0  0  0
 21 27  1  0  0  0  0
 22 23  2  0  0  0  0
 22 25  1  0  0  0  0
 23 24  1  0  0  0  0
 25 26  2  0  0  0  0
 26 27  1  0  0  0  0
M  END
>  <CHROM.1>
-82.69694431,-178.65892885,-176.93975965,165.98177350,-113.28771434,79.87844420
-70.27397611,48.22038813,56.30133397,31.28088708,-1.17043368,-0.97967941
1.98403420

>  <Name>
ligand

>  <RI>
0

>  <Rbt.Current_Directory>
/home/itssahil/PROJECTS/Mol_Feturizer/New_Systems/rnas/3IQN

>  <Rbt.Executable>
rbdock ($Id: //depot/dev/client3/rdock/2013.1/src/exe/rbdock.cxx#4 $)

>  <Rbt.Library>
libRbt.so (2013.1, Build901 2013/11/27)

>  <Rbt.Parameter_File>
/export/apps/rDock/src/rDock_2013.1_src/data/scripts/dock_solv.prm

>  <Rbt.Receptor>
prm/pocket_docking_3.prm

>  <SCORE>
-14.13

>  <SCORE.INTER>
-11.9501

>  <SCORE.INTER.CONST>
1

>  <SCORE.INTER.POLAR>
0

>  <SCORE.INTER.ROT>
7

>  <SCORE.INTER.SOLV>
16.0002

>  <SCORE.INTER.VDW>
-21.5668

>  <SCORE.INTER.norm>
-0.442595

>  <SCORE.INTRA>
-2.64512

>  <SCORE.INTRA.DIHEDRAL>
-1.37564

>  <SCORE.INTRA.DIHEDRAL.0>
10.0365

>  <SCORE.INTRA.POLAR>
0

>  <SCORE.INTRA.POLAR.0>
0

>  <SCORE.INTRA.REPUL>
0

>  <SCORE.INTRA.REPUL.0>
0

>  <SCORE.INTRA.SOLV>
-0.785578

>  <SCORE.INTRA.SOLV.lig_0>
-48.6728

>  <SCORE.INTRA.VDW>
-1.56451

>  <SCORE.INTRA.VDW.0>
-1.10662

>  <SCORE.INTRA.norm>
-0.0979673

>  <SCORE.RESTR>
0.465181

>  <SCORE.RESTR.CAVITY>
0.465181

>  <SCORE.RESTR.norm>
0.0172289

>  <SCORE.SYSTEM>
0

>  <SCORE.SYSTEM.CONST>
0

>  <SCORE.SYSTEM.DIHEDRAL>
0

>  <SCORE.SYSTEM.SOLV>
0

>  <SCORE.SYSTEM.norm>
0

>  <SCORE.heavy>
27

>  <SCORE.norm>
-0.523334

>  <RMSD>
5.075

$$$$
ligand
 OpenBabel11021811483D
libRbt.so/2013.1/901 2013/11/27
 27 29  0  0  0  0  0  0  0  0999 V2000
   48.3433   56.7275   29.0993 N   0  0  0  0  0  0  0  0  0  0  0  0
   47.0392   57.3069   29.4469 C   0  0  2  0  0  0  0  0  0  0  0  0
   46.6142   58.2204   28.3368 C   0  0  0  0  0  0  0  0  0  0  0  0
   47.3297   58.3636   27.3581 O   0  0  0  0  0  0  0  0  0  0  0  0
   47.1421   58.1058   30.7548 C   0  0  0  0  0  0  0  0  0  0  0  0
   47.2477   57.1300   31.9232 C   0  0  0  0  0  0  0  0  0  0  0  0
   48.2650   57.7533   33.2994 S   0  0  2  0  0  0  0  0  0  0  0  0
   49.6419   58.6258   32.4911 C   0  0  0  0  0  0  0  0  0  0  0  0
   49.2195   56.3963   34.0697 C   0  0  0  0  0  0  0  0  0  0  0  0
   48.3202   55.1985   33.8868 C   0  0  1  0  0  0  0  0  0  0  0  0
   48.6137   54.7547   32.6032 O   0  0  0  0  0  0  0  0  0  0  0  0
   48.5076   53.9153   34.6977 C   0  0  1  0  0  0  0  0  0  0  0  0
   47.7647   53.9157   35.8830 O   0  0  0  0  0  0  0  0  0  0  0  0
   47.9898   52.8644   33.6030 C   0  0  1  0  0  0  0  0  0  0  0  0
   46.6667   53.1206   33.1099 O   0  0  0  0  0  0  0  0  0  0  0  0
   49.0984   53.3578   32.7019 C   0  0  1  0  0  0  0  0  0  0  0  0
   45.5453   58.8058   28.4099 O   0  0  0  0  0  0  0  0  0  0  0  0
   46.8925   51.9283   28.4171 N   0  0  0  0  0  0  0  0  0  0  0  0
   46.4133   52.0414   29.6569 C   0  0  0  0  0  0  0  0  0  0  0  0
   47.1619   52.4954   30.6613 N   0  0  0  0  0  0  0  0  0  0  0  0
   48.4684   52.7397   30.4932 C   0  0  0  0  0  0  0  0  0  0  0  0
   49.0368   52.5657   29.1911 C   0  0  0  0  0  0  0  0  0  0  0  0
   48.1714   52.1503   28.1420 C   0  0  0  0  0  0  0  0  0  0  0  0
   48.6312   51.9782   26.8666 N   0  0  0  0  0  0  0  0  0  0  0  0
   50.3467   52.8661   29.2872 N   0  0  0  0  0  0  0  0  0  0  0  0
   50.6286   53.2013   30.5270 C   0  0  0  0  0  0  0  0  0  0  0  0
   49.5114   53.1602   31.3245 N   0  0  0  0  0  0  0  0  0  0  0  0
  2  1  1  6  0  0  0
  2  3  1  0  0  0  0
  2  5  1  0  0  0  0
  3  4  1  0  0  0  0
  3 17  1  0  0  0  0
  5  6  1  0  0  0  0
  7  6  1  6  0  0  0
  7  8  1  0  0  0  0
  7  9  1  0  0  0  0
 10  9  1  1  0  0  0
 10 11  1  0  0  0  0
 10 12  1  0  0  0  0
 11 16  1  0  0  0  0
 12 13  1  1  0  0  0
 12 14  1  0  0  0  0
 14 15  1  6  0  0  0
 14 16  1  0  0  0  0
 16 27  1  6  0  0  0
 18 19  2  0  0  0  0
 18 23  1  0  0  0  0
 19 20  1  0  0  0  0
 20 21  2  0  0  0  0
 21 22  1  0  0  0  0
 21 27  1  0  0  0  0
 22 23  2  0  0  0  0
 22 25  1  0  0  0  0
 23 24  1  0  0  0  0
 25 26  2  0  0  0  0
 26 27  1  0  0  0  0
M  END
>  <CHROM.1>
0.23291805,-73.96567636,147.23714586,-38.53843037,-31.40925139,84.15754599
-86.07627919,48.08018914,55.01927551,31.12103921,2.05731704,-1.36479552,0.83282274

>  <Name>
ligand

>  <RI>
0

>  <Rbt.Current_Directory>
/home/itssahil/PROJECTS/Mol_Feturizer/New_Systems/rnas/3IQN

>  <Rbt.Executable>
rbdock ($Id: //depot/dev/client3/rdock/2013.1/src/exe/rbdock.cxx#4 $)

>  <Rbt.Library>
libRbt.so (2013.1, Build901 2013/11/27)

>  <Rbt.Parameter_File>
/export/apps/rDock/src/rDock_2013.1_src/data/scripts/dock_solv.prm

>  <Rbt.Receptor>
prm/pocket_docking_3.prm

>  <SCORE>
-12.8623

>  <SCORE.INTER>
-15.3102

>  <SCORE.INTER.CONST>
1

>  <SCORE.INTER.POLAR>
0

>  <SCORE.INTER.ROT>
7

>  <SCORE.INTER.SOLV>
10.2082

>  <SCORE.INTER.VDW>
-21.8762

>  <SCORE.INTER.norm>
-0.567046

>  <SCORE.INTRA>
2.44795

>  <SCORE.INTRA.DIHEDRAL>
3.66175

>  <SCORE.INTRA.DIHEDRAL.0>
10.0365

>  <SCORE.INTRA.POLAR>
0

>  <SCORE.INTRA.POLAR.0>
0

>  <SCORE.INTRA.REPUL>
0

>  <SCORE.INTRA.REPUL.0>
0

>  <SCORE.INTRA.SOLV>
0.780218

>  <SCORE.INTRA.SOLV.lig_0>
-48.6728

>  <SCORE.INTRA.VDW>
0.22696

>  <SCORE.INTRA.VDW.0>
-1.10662

>  <SCORE.INTRA.norm>
0.0906647

>  <SCORE.RESTR>
0

>  <SCORE.RESTR.CAVITY>
0

>  <SCORE.RESTR.norm>
0

>  <SCORE.SYSTEM>
0

>  <SCORE.SYSTEM.CONST>
0

>  <SCORE.SYSTEM.DIHEDRAL>
0

>  <SCORE.SYSTEM.SOLV>
0

>  <SCORE.SYSTEM.norm>
0

>  <SCORE.heavy>
27

>  <SCORE.norm>
-0.476381

>  <RMSD>
5.079

$$$$
ligand
 OpenBabel11021811483D
libRbt.so/2013.1/901 2013/11/27
 27 29  0  0  0  0  0  0  0  0999 V2000
   45.6895   58.2360   28.1763 N   0  0  0  0  0  0  0  0  0  0  0  0
   46.8391   58.0934   29.0792 C   0  0  2  0  0  0  0  0  0  0  0  0
   48.0388   57.7134   28.2644 C   0  0  0  0  0  0  0  0  0  0  0  0
   47.9291   56.8985   27.3622 O   0  0  0  0  0  0  0  0  0  0  0  0
   46.5645   57.0015   30.1241 C   0  0  0  0  0  0  0  0  0  0  0  0
   45.6316   57.5633   31.1928 C   0  0  0  0  0  0  0  0  0  0  0  0
   46.4367   58.7648   32.3000 S   0  0  2  0  0  0  0  0  0  0  0  0
   46.3913   60.3345   31.3811 C   0  0  0  0  0  0  0  0  0  0  0  0
   48.2488   58.5165   32.3222 C   0  0  0  0  0  0  0  0  0  0  0  0
   48.3968   57.1248   32.8865 C   0  0  1  0  0  0  0  0  0  0  0  0
   48.5517   56.3240   31.7616 O   0  0  0  0  0  0  0  0  0  0  0  0
   49.6138   56.7141   33.7168 C   0  0  1  0  0  0  0  0  0  0  0  0
   49.4257   56.9257   35.0867 O   0  0  0  0  0  0  0  0  0  0  0  0
   49.6768   55.1678   33.2976 C   0  0  1  0  0  0  0  0  0  0  0  0
   48.4654   54.4360   33.5353 O   0  0  0  0  0  0  0  0  0  0  0  0
   49.8568   55.6306   31.8701 C   0  0  1  0  0  0  0  0  0  0  0  0
   49.1186   58.2335   28.4974 O   0  0  0  0  0  0  0  0  0  0  0  0
   47.4100   51.9339   29.5003 N   0  0  0  0  0  0  0  0  0  0  0  0
   47.3084   52.3965   30.7473 C   0  0  0  0  0  0  0  0  0  0  0  0
   48.0242   53.4371   31.1717 N   0  0  0  0  0  0  0  0  0  0  0  0
   48.9709   53.9854   30.3984 C   0  0  0  0  0  0  0  0  0  0  0  0
   49.1577   53.4729   29.0751 C   0  0  0  0  0  0  0  0  0  0  0  0
   48.3129   52.4099   28.6524 C   0  0  0  0  0  0  0  0  0  0  0  0
   48.4145   51.8760   27.3985 N   0  0  0  0  0  0  0  0  0  0  0  0
   50.1575   54.1802   28.5136 N   0  0  0  0  0  0  0  0  0  0  0  0
   50.5995   55.0711   29.3737 C   0  0  0  0  0  0  0  0  0  0  0  0
   49.9012   55.0178   30.5550 N   0  0  0  0  0  0  0  0  0  0  0  0
  2  1  1  6  0  0  0
  2  3  1  0  0  0  0
  2  5  1  0  0  0  0
  3  4  1  0  0  0  0
  3 17  1  0  0  0  0
  5  6  1  0  0  0  0
  7  6  1  6  0  0  0
  7  8  1  0  0  0  0
  7  9  1  0  0  0  0
 10  9  1  6  0  0  0
 10 11  1  0  0  0  0
 10 12  1  0  0  0  0
 11 16  1  0  0  0  0
 12 13  1  1  0  0  0
 12 14  1  0  0  0  0
 14 15  1  6  0  0  0
 14 16  1  0  0  0  0
 16 27  1  6  0  0  0
 18 19  2  0  0  0  0
 18 23  1  0  0  0  0
 19 20  1  0  0  0  0
 20 21  2  0  0  0  0
 21 22  1  0  0  0  0
 21 27  1  0  0  0  0
 22 23  2  0  0  0  0
 22 25  1  0  0  0  0
 23 24  1  0  0  0  0
 25 26  2  0  0  0  0
 26 27  1  0  0  0  0
M  END
>  <CHROM.1>
-41.25177745,-77.22277840,-72.31731960,82.17772894,-62.63556787,97.56530054
-69.99016402,48.16346183,56.04007125,30.71514272,2.15758314,-1.14486792,1.02746692

>  <Name>
ligand

>  <RI>
0

>  <Rbt.Current_Directory>
/home/itssahil/PROJECTS/Mol_Feturizer/New_Systems/rnas/3IQN

>  <Rbt.Executable>
rbdock ($Id: //depot/dev/client3/rdock/2013.1/src/exe/rbdock.cxx#4 $)

>  <Rbt.Library>
libRbt.so (2013.1, Build901 2013/11/27)

>  <Rbt.Parameter_File>
/export/apps/rDock/src/rDock_2013.1_src/data/scripts/dock_solv.prm

>  <Rbt.Receptor>
prm/pocket_docking_2.prm

>  <SCORE>
-12.0549

>  <SCORE.INTER>
-12.0112

>  <SCORE.INTER.CONST>
1

>  <SCORE.INTER.POLAR>
0

>  <SCORE.INTER.ROT>
7

>  <SCORE.INTER.SOLV>
16.2932

>  <SCORE.INTER.VDW>
-21.7052

>  <SCORE.INTER.norm>
-0.44486

>  <SCORE.INTRA>
-1.42338

>  <SCORE.INTRA.DIHEDRAL>
0.456708

>  <SCORE.INTRA.DIHEDRAL.0>
10.0365

>  <SCORE.INTRA.POLAR>
0

>  <SCORE.INTRA.POLAR.0>
0

>  <SCORE.INTRA.REPUL>
0

>  <SCORE.INTRA.REPUL.0>
0

>  <SCORE.INTRA.SOLV>
0.93552

>  <SCORE.INTRA.SOLV.lig_0>
-48.6728

>  <SCORE.INTRA.VDW>
-2.11949

>  <SCORE.INTRA.VDW.0>
-1.10662

>  <SCORE.INTRA.norm>
-0.0527178

>  <SCORE.RESTR>
1.37967

>  <SCORE.RESTR.CAVITY>
1.37967

>  <SCORE.RESTR.norm>
0.0510988

>  <SCORE.SYSTEM>
0

>  <SCORE.SYSTEM.CONST>
0

>  <SCORE.SYSTEM.DIHEDRAL>
0

>  <SCORE.SYSTEM.SOLV>
0

>  <SCORE.SYSTEM.norm>
0

>  <SCORE.heavy>
27

>  <SCORE.norm>
-0.446479

>  <RMSD>
5.080

$$$$
ligand
 OpenBabel11021811483D
libRbt.so/2013.1/901 2013/11/27
 27 29  0  0  0  0  0  0  0  0999 V2000
   46.5474   55.8948   28.2179 N   0  0  0  0  0  0  0  0  0  0  0  0
   46.5780   57.3506   28.0250 C   0  0  2  0  0  0  0  0  0  0  0  0
   47.4956   57.6587   26.8801 C   0  0  0  0  0  0  0  0  0  0  0  0
   47.2278   58.5697   26.1130 O   0  0  0  0  0  0  0  0  0  0  0  0
   47.0930   58.0461   29.2940 C   0  0  0  0  0  0  0  0  0  0  0  0
   46.1008   57.8043   30.4276 C   0  0  0  0  0  0  0  0  0  0  0  0
   46.5243   58.6874   31.9633 S   0  0  2  0  0  0  0  0  0  0  0  0
   46.5919   60.4398   31.4787 C   0  0  0  0  0  0  0  0  0  0  0  0
   48.2895   58.4541   32.3824 C   0  0  0  0  0  0  0  0  0  0  0  0
   48.3752   56.9804   32.6952 C   0  0  1  0  0  0  0  0  0  0  0  0
   48.6501   56.3945   31.4657 O   0  0  0  0  0  0  0  0  0  0  0  0
   49.4955   56.4013   33.5604 C   0  0  1  0  0  0  0  0  0  0  0  0
   49.1611   56.3641   34.9182 O   0  0  0  0  0  0  0  0  0  0  0  0
   49.6027   54.9560   32.8746 C   0  0  1  0  0  0  0  0  0  0  0  0
   48.3724   54.2177   32.8449 O   0  0  0  0  0  0  0  0  0  0  0  0
   49.9356   55.6668   31.5831 C   0  0  1  0  0  0  0  0  0  0  0  0
   48.5162   57.0058   26.7294 O   0  0  0  0  0  0  0  0  0  0  0  0
   48.2360   52.0687   28.5117 N   0  0  0  0  0  0  0  0  0  0  0  0
   48.0221   52.2892   29.8098 C   0  0  0  0  0  0  0  0  0  0  0  0
   48.5336   53.3478   30.4367 N   0  0  0  0  0  0  0  0  0  0  0  0
   49.3901   54.1704   29.8165 C   0  0  0  0  0  0  0  0  0  0  0  0
   49.6984   53.9287   28.4399 C   0  0  0  0  0  0  0  0  0  0  0  0
   49.0639   52.8265   27.8038 C   0  0  0  0  0  0  0  0  0  0  0  0
   49.2903   52.5380   26.4873 N   0  0  0  0  0  0  0  0  0  0  0  0
   50.5738   54.8787   28.0572 N   0  0  0  0  0  0  0  0  0  0  0  0
   50.8304   55.6720   29.0739 C   0  0  0  0  0  0  0  0  0  0  0  0
   50.1211   55.3024   30.1903 N   0  0  0  0  0  0  0  0  0  0  0  0
  2  1  1  1  0  0  0
  2  3  1  0  0  0  0
  2  5  1  0  0  0  0
  3  4  1  0  0  0  0
  3 17  1  0  0  0  0
  5  6  1  0  0  0  0
  7  6  1  6  0  0  0
  7  8  1  0  0  0  0
  7  9  1  0  0  0  0
 10  9  1  6  0  0  0
 10 11  1  0  0  0  0
 10 12  1  0  0  0  0
 11 16  1  0  0  0  0
 12 13  1  1  0  0  0
 12 14  1  0  0  0  0
 14 15  1  6  0  0  0
 14 16  1  0  0  0  0
 16 27  1  6  0  0  0
 18 19  2  0  0  0  0
 18 23  1  0  0  0  0
 19 20  1  0  0  0  0
 20 21  2  0  0  0  0
 21 22  1  0  0  0  0
 21 27  1  0  0  0  0
 22 23  2  0  0  0  0
 22 25  1  0  0  0  0
 23 24  1  0  0  0  0
 25 26  2  0  0  0  0
 26 27  1  0  0  0  0
M  END
>  <CHROM.1>
143.36488266,-64.58358363,-175.43273437,57.67683185,-66.27345113,89.24469257
-81.17650909,48.33636925,56.04763905,30.12795147,1.07967766,1.11503762,-1.85628946

>  <Name>
ligand

>  <RI>
0

>  <Rbt.Current_Directory>
/home/itssahil/PROJECTS/Mol_Feturizer/New_Systems/rnas/3IQN

>  <Rbt.Executable>
rbdock ($Id: //depot/dev/client3/rdock/2013.1/src/exe/rbdock.cxx#4 $)

>  <Rbt.Library>
libRbt.so (2013.1, Build901 2013/11/27)

>  <Rbt.Parameter_File>
/export/apps/rDock/src/rDock_2013.1_src/data/scripts/dock_solv.prm

>  <Rbt.Receptor>
prm/pocket_docking_3.prm

>  <SCORE>
-20.0363

>  <SCORE.INTER>
-15.4964

>  <SCORE.INTER.CONST>
1

>  <SCORE.INTER.POLAR>
0

>  <SCORE.INTER.ROT>
7

>  <SCORE.INTER.SOLV>
8.18376

>  <SCORE.INTER.VDW>
-21.3255

>  <SCORE.INTER.norm>
-0.573941

>  <SCORE.INTRA>
-4.53994

>  <SCORE.INTRA.DIHEDRAL>
-4.25185

>  <SCORE.INTRA.DIHEDRAL.0>
10.0365

>  <SCORE.INTRA.POLAR>
0

>  <SCORE.INTRA.POLAR.0>
0

>  <SCORE.INTRA.REPUL>
0

>  <SCORE.INTRA.REPUL.0>
0

>  <SCORE.INTRA.SOLV>
0.600276

>  <SCORE.INTRA.SOLV.lig_0>
-48.6728

>  <SCORE.INTRA.VDW>
-2.71415

>  <SCORE.INTRA.VDW.0>
-1.10662

>  <SCORE.INTRA.norm>
-0.168146

>  <SCORE.RESTR>
0

>  <SCORE.RESTR.CAVITY>
0

>  <SCORE.RESTR.norm>
0

>  <SCORE.SYSTEM>
0

>  <SCORE.SYSTEM.CONST>
0

>  <SCORE.SYSTEM.DIHEDRAL>
0

>  <SCORE.SYSTEM.SOLV>
0

>  <SCORE.SYSTEM.norm>
0

>  <SCORE.heavy>
27

>  <SCORE.norm>
-0.742086

>  <RMSD>
5.081

$$$$
ligand
 OpenBabel11021811483D
libRbt.so/2013.1/901 2013/11/27
 27 29  0  0  0  0  0  0  0  0999 V2000
   45.7921   58.9448   29.8104 N   0  0  0  0  0  0  0  0  0  0  0  0
   47.1942   58.5410   29.9781 C   0  0  2  0  0  0  0  0  0  0  0  0
   47.7510   58.1877   28.6317 C   0  0  0  0  0  0  0  0  0  0  0  0
   48.9548   58.0433   28.4891 O   0  0  0  0  0  0  0  0  0  0  0  0
   47.2907   57.3214   30.9069 C   0  0  0  0  0  0  0  0  0  0  0  0
   46.8892   57.7415   32.3178 C   0  0  0  0  0  0  0  0  0  0  0  0
   48.2349   58.5439   33.2465 S   0  0  2  0  0  0  0  0  0  0  0  0
   49.1763   59.4596   31.9872 C   0  0  0  0  0  0  0  0  0  0  0  0
   49.5190   57.3276   33.7131 C   0  0  0  0  0  0  0  0  0  0  0  0
   48.8024   56.0061   33.5822 C   0  0  1  0  0  0  0  0  0  0  0  0
   48.9367   55.6864   32.2367 O   0  0  0  0  0  0  0  0  0  0  0  0
   49.3271   54.7324   34.2467 C   0  0  1  0  0  0  0  0  0  0  0  0
   48.8090   54.5449   35.5325 O   0  0  0  0  0  0  0  0  0  0  0  0
   48.8012   53.6680   33.1692 C   0  0  1  0  0  0  0  0  0  0  0  0
   47.3893   53.7219   32.9182 O   0  0  0  0  0  0  0  0  0  0  0  0
   49.6457   54.3885   32.1436 C   0  0  1  0  0  0  0  0  0  0  0  0
   46.9950   58.0304   27.6860 O   0  0  0  0  0  0  0  0  0  0  0  0
   47.7236   51.7678   28.3088 N   0  0  0  0  0  0  0  0  0  0  0  0
   47.4899   51.7050   29.6206 C   0  0  0  0  0  0  0  0  0  0  0  0
   48.0755   52.5382   30.4797 N   0  0  0  0  0  0  0  0  0  0  0  0
   49.0223   53.3950   30.0744 C   0  0  0  0  0  0  0  0  0  0  0  0
   49.3507   53.4461   28.6822 C   0  0  0  0  0  0  0  0  0  0  0  0
   48.6389   52.5845   27.8029 C   0  0  0  0  0  0  0  0  0  0  0  0
   48.8796   52.5844   26.4576 N   0  0  0  0  0  0  0  0  0  0  0  0
   50.3205   54.3701   28.5374 N   0  0  0  0  0  0  0  0  0  0  0  0
   50.6159   54.8816   29.7121 C   0  0  0  0  0  0  0  0  0  0  0  0
   49.8412   54.3362   30.7062 N   0  0  0  0  0  0  0  0  0  0  0  0
  2  1  1  6  0  0  0
  2  3  1  0  0  0  0
  2  5  1  0  0  0  0
  3  4  1  0  0  0  0
  3 17  1  0  0  0  0
  5  6  1  0  0  0  0
  7  6  1  6  0  0  0
  7  8  1  0  0  0  0
  7  9  1  0  0  0  0
 10  9  1  1  0  0  0
 10 11  1  0  0  0  0
 10 12  1  0  0  0  0
 11 16  1  0  0  0  0
 12 13  1  1  0  0  0
 12 14  1  0  0  0  0
 14 15  1  6  0  0  0
 14 16  1  0  0  0  0
 16 27  1  6  0  0  0
 18 19  2  0  0  0  0
 18 23  1  0  0  0  0
 19 20  1  0  0  0  0
 20 21  2  0  0  0  0
 21 22  1  0  0  0  0
 21 27  1  0  0  0  0
 22 23  2  0  0  0  0
 22 25  1  0  0  0  0
 23 24  1  0  0  0  0
 25 26  2  0  0  0  0
 26 27  1  0  0  0  0
M  END
>  <CHROM.1>
167.50121335,-67.89839006,-81.77231944,33.82172854,-18.80030361,85.11492710
-107.66816137,48.46823483,55.63797090,30.93824853,1.95750520,-1.35631596
1.05461598

>  <Name>
ligand

>  <RI>
0

>  <Rbt.Current_Directory>
/home/itssahil/PROJECTS/Mol_Feturizer/New_Systems/rnas/3IQN

>  <Rbt.Executable>
rbdock ($Id: //depot/dev/client3/rdock/2013.1/src/exe/rbdock.cxx#4 $)

>  <Rbt.Library>
libRbt.so (2013.1, Build901 2013/11/27)

>  <Rbt.Parameter_File>
/export/apps/rDock/src/rDock_2013.1_src/data/scripts/dock_solv.prm

>  <Rbt.Receptor>
prm/pocket_docking_2.prm

>  <SCORE>
-8.97674

>  <SCORE.INTER>
-13.1963

>  <SCORE.INTER.CONST>
1

>  <SCORE.INTER.POLAR>
0

>  <SCORE.INTER.ROT>
7

>  <SCORE.INTER.SOLV>
10.9863

>  <SCORE.INTER.VDW>
-20.7263

>  <SCORE.INTER.norm>
-0.488751

>  <SCORE.INTRA>
3.28819

>  <SCORE.INTRA.DIHEDRAL>
1.86816

>  <SCORE.INTRA.DIHEDRAL.0>
10.0365

>  <SCORE.INTRA.POLAR>
0

>  <SCORE.INTRA.POLAR.0>
0

>  <SCORE.INTRA.REPUL>
0

>  <SCORE.INTRA.REPUL.0>
0

>  <SCORE.INTRA.SOLV>
0.940808

>  <SCORE.INTRA.SOLV.lig_0>
-48.6728

>  <SCORE.INTRA.VDW>
1.88371

>  <SCORE.INTRA.VDW.0>
-1.10662

>  <SCORE.INTRA.norm>
0.121785

>  <SCORE.RESTR>
0.93134

>  <SCORE.RESTR.CAVITY>
0.93134

>  <SCORE.RESTR.norm>
0.0344941

>  <SCORE.SYSTEM>
0

>  <SCORE.SYSTEM.CONST>
0

>  <SCORE.SYSTEM.DIHEDRAL>
0

>  <SCORE.SYSTEM.SOLV>
0

>  <SCORE.SYSTEM.norm>
0

>  <SCORE.heavy>
27

>  <SCORE.norm>
-0.332472

>  <RMSD>
5.099

$$$$
ligand
 OpenBabel11021811483D
libRbt.so/2013.1/901 2013/11/27
 27 29  0  0  0  0  0  0  0  0999 V2000
   46.5139   57.8622   30.6552 N   0  0  0  0  0  0  0  0  0  0  0  0
   47.4504   57.7925   29.5258 C   0  0  2  0  0  0  0  0  0  0  0  0
   47.4284   56.3980   28.9760 C   0  0  0  0  0  0  0  0  0  0  0  0
   47.1699   55.4576   29.7103 O   0  0  0  0  0  0  0  0  0  0  0  0
   48.8735   58.1359   29.9910 C   0  0  0  0  0  0  0  0  0  0  0  0
   49.2913   57.1471   31.0754 C   0  0  0  0  0  0  0  0  0  0  0  0
   48.5862   57.5243   32.7119 S   0  0  2  0  0  0  0  0  0  0  0  0
   49.5276   58.9687   33.2930 C   0  0  0  0  0  0  0  0  0  0  0  0
   49.1524   56.3124   33.9595 C   0  0  0  0  0  0  0  0  0  0  0  0
   48.2610   55.1209   33.7086 C   0  0  1  0  0  0  0  0  0  0  0  0
   48.5951   54.7203   32.4208 O   0  0  0  0  0  0  0  0  0  0  0  0
   48.4246   53.8116   34.4818 C   0  0  1  0  0  0  0  0  0  0  0  0
   47.6449   53.7721   35.6426 O   0  0  0  0  0  0  0  0  0  0  0  0
   47.9429   52.7976   33.3370 C   0  0  1  0  0  0  0  0  0  0  0  0
   46.6355   53.0696   32.8115 O   0  0  0  0  0  0  0  0  0  0  0  0
   49.0784   53.3211   32.4881 C   0  0  1  0  0  0  0  0  0  0  0  0
   47.6543   56.2107   27.7908 O   0  0  0  0  0  0  0  0  0  0  0  0
   47.0048   52.0571   28.0868 N   0  0  0  0  0  0  0  0  0  0  0  0
   46.4865   52.1294   29.3138 C   0  0  0  0  0  0  0  0  0  0  0  0
   47.2045   52.5430   30.3571 N   0  0  0  0  0  0  0  0  0  0  0  0
   48.5170   52.7851   30.2397 C   0  0  0  0  0  0  0  0  0  0  0  0
   49.1263   52.6536   28.9513 C   0  0  0  0  0  0  0  0  0  0  0  0
   48.2931   52.2809   27.8608 C   0  0  0  0  0  0  0  0  0  0  0  0
   48.7929   52.1511   26.5955 N   0  0  0  0  0  0  0  0  0  0  0  0
   50.4338   52.9425   29.0999 N   0  0  0  0  0  0  0  0  0  0  0  0
   50.6773   53.2320   30.3592 C   0  0  0  0  0  0  0  0  0  0  0  0
   49.5347   53.1697   31.1185 N   0  0  0  0  0  0  0  0  0  0  0  0
  2  1  1  1  0  0  0
  2  3  1  0  0  0  0
  2  5  1  0  0  0  0
  3  4  1  0  0  0  0
  3 17  1  0  0  0  0
  5  6  1  0  0  0  0
  7  6  1  6  0  0  0
  7  8  1  0  0  0  0
  7  9  1  0  0  0  0
 10  9  1  1  0  0  0
 10 11  1  0  0  0  0
 10 12  1  0  0  0  0
 11 16  1  0  0  0  0
 12 13  1  1  0  0  0
 12 14  1  0  0  0  0
 14 15  1  6  0  0  0
 14 16  1  0  0  0  0
 16 27  1  6  0  0  0
 18 19  2  0  0  0  0
 18 23  1  0  0  0  0
 19 20  1  0  0  0  0
 20 21  2  0  0  0  0
 21 22  1  0  0  0  0
 21 27  1  0  0  0  0
 22 23  2  0  0  0  0
 22 25  1  0  0  0  0
 23 24  1  0  0  0  0
 25 26  2  0  0  0  0
 26 27  1  0  0  0  0
M  END
>  <CHROM.1>
-28.97608802,59.24573498,-78.74503780,-73.92971044,-79.56342828,63.55888559
-85.68727706,48.30155526,54.79621496,31.04610710,0.36316897,-1.52113231,-0.34873460

>  <Name>
ligand

>  <RI>
0

>  <Rbt.Current_Directory>
/home/itssahil/PROJECTS/Mol_Feturizer/New_Systems/rnas/3IQN

>  <Rbt.Executable>
rbdock ($Id: //depot/dev/client3/rdock/2013.1/src/exe/rbdock.cxx#4 $)

>  <Rbt.Library>
libRbt.so (2013.1, Build901 2013/11/27)

>  <Rbt.Parameter_File>
/export/apps/rDock/src/rDock_2013.1_src/data/scripts/dock_solv.prm

>  <Rbt.Receptor>
prm/pocket_docking_4.prm

>  <SCORE>
-16.7083

>  <SCORE.INTER>
-13.0703

>  <SCORE.INTER.CONST>
1

>  <SCORE.INTER.POLAR>
0

>  <SCORE.INTER.ROT>
7

>  <SCORE.INTER.SOLV>
8.5976

>  <SCORE.INTER.VDW>
-19.846

>  <SCORE.INTER.norm>
-0.484084

>  <SCORE.INTRA>
-3.63805

>  <SCORE.INTRA.DIHEDRAL>
-4.87467

>  <SCORE.INTRA.DIHEDRAL.0>
10.0365

>  <SCORE.INTRA.POLAR>
0

>  <SCORE.INTRA.POLAR.0>
0

>  <SCORE.INTRA.REPUL>
0

>  <SCORE.INTRA.REPUL.0>
0

>  <SCORE.INTRA.SOLV>
1.99138

>  <SCORE.INTRA.SOLV.lig_0>
-48.6728

>  <SCORE.INTRA.VDW>
-2.1964

>  <SCORE.INTRA.VDW.0>
-1.10662

>  <SCORE.INTRA.norm>
-0.134742

>  <SCORE.RESTR>
0

>  <SCORE.RESTR.CAVITY>
0

>  <SCORE.RESTR.norm>
0

>  <SCORE.SYSTEM>
0

>  <SCORE.SYSTEM.CONST>
0

>  <SCORE.SYSTEM.DIHEDRAL>
0

>  <SCORE.SYSTEM.SOLV>
0

>  <SCORE.SYSTEM.norm>
0

>  <SCORE.heavy>
27

>  <SCORE.norm>
-0.618826

>  <RMSD>
5.105

$$$$
ligand
 OpenBabel11021811483D
libRbt.so/2013.1/901 2013/11/27
 27 29  0  0  0  0  0  0  0  0999 V2000
   48.4510   53.1292   26.1009 N   0  0  0  0  0  0  0  0  0  0  0  0
   48.4784   54.5078   26.6067 C   0  0  2  0  0  0  0  0  0  0  0  0
   48.2389   55.4402   25.4575 C   0  0  0  0  0  0  0  0  0  0  0  0
   47.4820   56.3888   25.5902 O   0  0  0  0  0  0  0  0  0  0  0  0
   49.8435   54.8169   27.2394 C   0  0  0  0  0  0  0  0  0  0  0  0
   49.8287   56.2461   27.7736 C   0  0  0  0  0  0  0  0  0  0  0  0
   48.5250   56.5452   29.0099 S   0  0  2  0  0  0  0  0  0  0  0  0
   48.8161   58.2491   29.5776 C   0  0  0  0  0  0  0  0  0  0  0  0
   48.8979   55.6716   30.5732 C   0  0  0  0  0  0  0  0  0  0  0  0
   47.5826   55.7144   31.3114 C   0  0  1  0  0  0  0  0  0  0  0  0
   47.8522   55.0652   32.5100 O   0  0  0  0  0  0  0  0  0  0  0  0
   46.9779   57.0273   31.8110 C   0  0  1  0  0  0  0  0  0  0  0  0
   46.1271   57.6188   30.8713 O   0  0  0  0  0  0  0  0  0  0  0  0
   46.2253   56.4637   33.1096 C   0  0  1  0  0  0  0  0  0  0  0  0
   45.3036   55.3954   32.8476 O   0  0  0  0  0  0  0  0  0  0  0  0
   47.5763   56.0128   33.6153 C   0  0  1  0  0  0  0  0  0  0  0  0
   48.8151   55.2550   24.3971 O   0  0  0  0  0  0  0  0  0  0  0  0
   45.7576   52.4845   36.6995 N   0  0  0  0  0  0  0  0  0  0  0  0
   45.1773   53.1786   35.7192 C   0  0  0  0  0  0  0  0  0  0  0  0
   45.8597   54.0461   34.9728 N   0  0  0  0  0  0  0  0  0  0  0  0
   47.1327   54.3509   35.2581 C   0  0  0  0  0  0  0  0  0  0  0  0
   47.7723   53.6761   36.3463 C   0  0  0  0  0  0  0  0  0  0  0  0
   47.0153   52.7063   37.0595 C   0  0  0  0  0  0  0  0  0  0  0  0
   47.5574   52.0051   38.0998 N   0  0  0  0  0  0  0  0  0  0  0  0
   49.0279   54.1579   36.4282 N   0  0  0  0  0  0  0  0  0  0  0  0
   49.2095   55.0662   35.4950 C   0  0  0  0  0  0  0  0  0  0  0  0
   48.0841   55.2260   34.7244 N   0  0  0  0  0  0  0  0  0  0  0  0
  2  1  1  6  0  0  0
  2  3  1  0  0  0  0
  2  5  1  0  0  0  0
  3  4  1  0  0  0  0
  3 17  1  0  0  0  0
  5  6  1  0  0  0  0
  7  6  1  6  0  0  0
  7  8  1  0  0  0  0
  7  9  1  0  0  0  0
 10  9  1  1  0  0  0
 10 11  1  0  0  0  0
 10 12  1  0  0  0  0
 11 16  1  0  0  0  0
 12 13  1  6  0  0  0
 12 14  1  0  0  0  0
 14 15  1  6  0  0  0
 14 16  1  0  0  0  0
 16 27  1  1  0  0  0
 18 19  2  0  0  0  0
 18 23  1  0  0  0  0
 19 20  1  0  0  0  0
 20 21  2  0  0  0  0
 21 22  1  0  0  0  0
 21 27  1  0  0  0  0
 22 23  2  0  0  0  0
 22 25  1  0  0  0  0
 23 24  1  0  0  0  0
 25 26  2  0  0  0  0
 26 27  1  0  0  0  0
M  END
>  <CHROM.1>
136.59421892,-179.07764023,58.56407122,175.30356794,-165.18009892,-179.42234253
-86.78234175,47.72890995,55.17265365,31.55318837,-0.95308947,-1.29961658
2.37451215

>  <Name>
ligand

>  <RI>
0

>  <Rbt.Current_Directory>
/home/itssahil/PROJECTS/Mol_Feturizer/New_Systems/rnas/3IQN

>  <Rbt.Executable>
rbdock ($Id: //depot/dev/client3/rdock/2013.1/src/exe/rbdock.cxx#4 $)

>  <Rbt.Library>
libRbt.so (2013.1, Build901 2013/11/27)

>  <Rbt.Parameter_File>
/export/apps/rDock/src/rDock_2013.1_src/data/scripts/dock_solv.prm

>  <Rbt.Receptor>
prm/pocket_docking_5.prm

>  <SCORE>
-12.8787

>  <SCORE.INTER>
-9.132

>  <SCORE.INTER.CONST>
1

>  <SCORE.INTER.POLAR>
0

>  <SCORE.INTER.ROT>
7

>  <SCORE.INTER.SOLV>
11.8297

>  <SCORE.INTER.VDW>
-18.2979

>  <SCORE.INTER.norm>
-0.338222

>  <SCORE.INTRA>
-3.74673

>  <SCORE.INTRA.DIHEDRAL>
-5.73024

>  <SCORE.INTRA.DIHEDRAL.0>
10.0365

>  <SCORE.INTRA.POLAR>
0

>  <SCORE.INTRA.POLAR.0>
0

>  <SCORE.INTRA.REPUL>
0

>  <SCORE.INTRA.REPUL.0>
0

>  <SCORE.INTRA.SOLV>
-0.351029

>  <SCORE.INTRA.SOLV.lig_0>
-48.6728

>  <SCORE.INTRA.VDW>
-0.706094

>  <SCORE.INTRA.VDW.0>
-1.10662

>  <SCORE.INTRA.norm>
-0.138768

>  <SCORE.RESTR>
0

>  <SCORE.RESTR.CAVITY>
0

>  <SCORE.RESTR.norm>
0

>  <SCORE.SYSTEM>
0

>  <SCORE.SYSTEM.CONST>
0

>  <SCORE.SYSTEM.DIHEDRAL>
0

>  <SCORE.SYSTEM.SOLV>
0

>  <SCORE.SYSTEM.norm>
0

>  <SCORE.heavy>
27

>  <SCORE.norm>
-0.47699

>  <RMSD>
5.109

$$$$
ligand
 OpenBabel11021811483D
libRbt.so/2013.1/901 2013/11/27
 27 29  0  0  0  0  0  0  0  0999 V2000
   48.4660   54.9076   25.0577 N   0  0  0  0  0  0  0  0  0  0  0  0
   47.9669   54.7121   26.4251 C   0  0  2  0  0  0  0  0  0  0  0  0
   47.0242   53.5464   26.4245 C   0  0  0  0  0  0  0  0  0  0  0  0
   46.2684   53.3747   25.4814 O   0  0  0  0  0  0  0  0  0  0  0  0
   47.2257   55.9682   26.9071 C   0  0  0  0  0  0  0  0  0  0  0  0
   48.2322   57.1031   27.0725 C   0  0  0  0  0  0  0  0  0  0  0  0
   49.2862   56.9289   28.5477 S   0  0  2  0  0  0  0  0  0  0  0  0
   50.3617   55.5093   28.1756 C   0  0  0  0  0  0  0  0  0  0  0  0
   48.3460   56.1995   29.9368 C   0  0  0  0  0  0  0  0  0  0  0  0
   47.7124   57.4028   30.5907 C   0  0  1  0  0  0  0  0  0  0  0  0
   46.7611   56.8563   31.4433 O   0  0  0  0  0  0  0  0  0  0  0  0
   48.4904   58.3056   31.5492 C   0  0  1  0  0  0  0  0  0  0  0  0
   49.1209   59.3684   30.8935 O   0  0  0  0  0  0  0  0  0  0  0  0
   47.2753   58.7510   32.4956 C   0  0  1  0  0  0  0  0  0  0  0  0
   46.1717   59.3543   31.8045 O   0  0  0  0  0  0  0  0  0  0  0  0
   47.0821   57.2884   32.8239 C   0  0  1  0  0  0  0  0  0  0  0  0
   47.0279   52.7640   27.3618 O   0  0  0  0  0  0  0  0  0  0  0  0
   47.1215   52.9127   35.2978 N   0  0  0  0  0  0  0  0  0  0  0  0
   48.0812   53.5512   34.6265 C   0  0  0  0  0  0  0  0  0  0  0  0
   47.8777   54.7475   34.0762 N   0  0  0  0  0  0  0  0  0  0  0  0
   46.6595   55.3050   34.0669 C   0  0  0  0  0  0  0  0  0  0  0  0
   45.5861   54.6190   34.7194 C   0  0  0  0  0  0  0  0  0  0  0  0
   45.8812   53.3807   35.3533 C   0  0  0  0  0  0  0  0  0  0  0  0
   44.9169   52.6718   36.0131 N   0  0  0  0  0  0  0  0  0  0  0  0
   44.4812   55.3745   34.5652 N   0  0  0  0  0  0  0  0  0  0  0  0
   44.7816   56.4528   33.8755 C   0  0  0  0  0  0  0  0  0  0  0  0
   46.1147   56.4835   33.5472 N   0  0  0  0  0  0  0  0  0  0  0  0
  2  1  1  6  0  0  0
  2  3  1  0  0  0  0
  2  5  1  0  0  0  0
  3  4  1  0  0  0  0
  3 17  1  0  0  0  0
  5  6  1  0  0  0  0
  7  6  1  6  0  0  0
  7  8  1  0  0  0  0
  7  9  1  0  0  0  0
 10  9  1  1  0  0  0
 10 11  1  0  0  0  0
 10 12  1  0  0  0  0
 11 16  1  0  0  0  0
 12 13  1  6  0  0  0
 12 14  1  0  0  0  0
 14 15  1  6  0  0  0
 14 16  1  0  0  0  0
 16 27  1  1  0  0  0
 18 19  2  0  0  0  0
 18 23  1  0  0  0  0
 19 20  1  0  0  0  0
 20 21  2  0  0  0  0
 21 22  1  0  0  0  0
 21 27  1  0  0  0  0
 22 23  2  0  0  0  0
 22 25  1  0  0  0  0
 23 24  1  0  0  0  0
 25 26  2  0  0  0  0
 26 27  1  0  0  0  0
M  END
>  <CHROM.1>
-37.94292645,-67.83256031,-74.46674647,69.38131866,-86.91404149,166.76045169
97.76884470,47.31887261,55.78809796,30.85028733,0.81613650,-1.20436355,-2.24172808

>  <Name>
ligand

>  <RI>
0

>  <Rbt.Current_Directory>
/home/itssahil/PROJECTS/Mol_Feturizer/New_Systems/rnas/3IQN

>  <Rbt.Executable>
rbdock ($Id: //depot/dev/client3/rdock/2013.1/src/exe/rbdock.cxx#4 $)

>  <Rbt.Library>
libRbt.so (2013.1, Build901 2013/11/27)

>  <Rbt.Parameter_File>
/export/apps/rDock/src/rDock_2013.1_src/data/scripts/dock_solv.prm

>  <Rbt.Receptor>
prm/pocket_docking_8.prm

>  <SCORE>
-15.1255

>  <SCORE.INTER>
-12.4626

>  <SCORE.INTER.CONST>
1

>  <SCORE.INTER.POLAR>
0

>  <SCORE.INTER.ROT>
7

>  <SCORE.INTER.SOLV>
12.1862

>  <SCORE.INTER.VDW>
-20.6371

>  <SCORE.INTER.norm>
-0.461578

>  <SCORE.INTRA>
-2.66288

>  <SCORE.INTRA.DIHEDRAL>
-3.38547

>  <SCORE.INTRA.DIHEDRAL.0>
10.0365

>  <SCORE.INTRA.POLAR>
0

>  <SCORE.INTRA.POLAR.0>
0

>  <SCORE.INTRA.REPUL>
0

>  <SCORE.INTRA.REPUL.0>
0

>  <SCORE.INTRA.SOLV>
0.80198

>  <SCORE.INTRA.SOLV.lig_0>
-48.6728

>  <SCORE.INTRA.VDW>
-1.37114

>  <SCORE.INTRA.VDW.0>
-1.10662

>  <SCORE.INTRA.norm>
-0.0986252

>  <SCORE.RESTR>
0

>  <SCORE.RESTR.CAVITY>
0

>  <SCORE.RESTR.norm>
0

>  <SCORE.SYSTEM>
0

>  <SCORE.SYSTEM.CONST>
0

>  <SCORE.SYSTEM.DIHEDRAL>
0

>  <SCORE.SYSTEM.SOLV>
0

>  <SCORE.SYSTEM.norm>
0

>  <SCORE.heavy>
27

>  <SCORE.norm>
-0.560203

>  <RMSD>
5.109

$$$$
ligand
 OpenBabel11021811483D
libRbt.so/2013.1/901 2013/11/27
 27 29  0  0  0  0  0  0  0  0999 V2000
   47.5365   52.8231   26.3861 N   0  0  0  0  0  0  0  0  0  0  0  0
   47.9367   53.6296   27.5466 C   0  0  2  0  0  0  0  0  0  0  0  0
   48.3018   52.7022   28.6664 C   0  0  0  0  0  0  0  0  0  0  0  0
   49.3838   52.8126   29.2206 O   0  0  0  0  0  0  0  0  0  0  0  0
   46.7791   54.5362   27.9909 C   0  0  0  0  0  0  0  0  0  0  0  0
   47.3062   55.5526   28.9995 C   0  0  0  0  0  0  0  0  0  0  0  0
   48.2534   56.9082   28.2363 S   0  0  2  0  0  0  0  0  0  0  0  0
   49.8760   56.1761   27.8597 C   0  0  0  0  0  0  0  0  0  0  0  0
   48.7891   58.1189   29.4985 C   0  0  0  0  0  0  0  0  0  0  0  0
   47.5307   58.3625   30.2949 C   0  0  1  0  0  0  0  0  0  0  0  0
   47.5064   57.3151   31.2077 O   0  0  0  0  0  0  0  0  0  0  0  0
   47.3810   59.5705   31.2209 C   0  0  1  0  0  0  0  0  0  0  0  0
   46.8268   60.6791   30.5722 O   0  0  0  0  0  0  0  0  0  0  0  0
   46.4195   58.9095   32.3206 C   0  0  1  0  0  0  0  0  0  0  0  0
   45.2054   58.3541   31.7943 O   0  0  0  0  0  0  0  0  0  0  0  0
   47.5126   57.8962   32.5708 C   0  0  1  0  0  0  0  0  0  0  0  0
   47.5073   51.8492   29.0297 O   0  0  0  0  0  0  0  0  0  0  0  0
   44.4528   54.5239   34.7001 N   0  0  0  0  0  0  0  0  0  0  0  0
   44.1919   55.6505   34.0351 C   0  0  0  0  0  0  0  0  0  0  0  0
   45.1609   56.3888   33.4954 N   0  0  0  0  0  0  0  0  0  0  0  0
   46.4511   56.0959   33.7064 C   0  0  0  0  0  0  0  0  0  0  0  0
   46.7736   54.9309   34.4728 C   0  0  0  0  0  0  0  0  0  0  0  0
   45.6963   54.1408   34.9601 C   0  0  0  0  0  0  0  0  0  0  0  0
   45.9189   53.0037   35.6846 N   0  0  0  0  0  0  0  0  0  0  0  0
   48.1174   54.8625   34.5433 N   0  0  0  0  0  0  0  0  0  0  0  0
   48.6416   55.8799   33.8961 C   0  0  0  0  0  0  0  0  0  0  0  0
   47.6700   56.6754   33.3401 N   0  0  0  0  0  0  0  0  0  0  0  0
  2  1  1  6  0  0  0
  2  3  1  0  0  0  0
  2  5  1  0  0  0  0
  3  4  1  0  0  0  0
  3 17  1  0  0  0  0
  5  6  1  0  0  0  0
  7  6  1  1  0  0  0
  7  8  1  0  0  0  0
  7  9  1  0  0  0  0
 10  9  1  1  0  0  0
 10 11  1  0  0  0  0
 10 12  1  0  0  0  0
 11 16  1  0  0  0  0
 12 13  1  6  0  0  0
 12 14  1  0  0  0  0
 14 15  1  6  0  0  0
 14 16  1  0  0  0  0
 16 27  1  1  0  0  0
 18 19  2  0  0  0  0
 18 23  1  0  0  0  0
 19 20  1  0  0  0  0
 20 21  2  0  0  0  0
 21 22  1  0  0  0  0
 21 27  1  0  0  0  0
 22 23  2  0  0  0  0
 22 25  1  0  0  0  0
 23 24  1  0  0  0  0
 25 26  2  0  0  0  0
 26 27  1  0  0  0  0
M  END
>  <CHROM.1>
126.75377469,-168.59506721,76.47227435,-77.19359392,-47.45794849,83.61389895
-90.80166924,47.22644045,55.92915347,31.11167237,0.18611147,-1.22830208,3.12945858

>  <Name>
ligand

>  <RI>
0

>  <Rbt.Current_Directory>
/home/itssahil/PROJECTS/Mol_Feturizer/New_Systems/rnas/3IQN

>  <Rbt.Executable>
rbdock ($Id: //depot/dev/client3/rdock/2013.1/src/exe/rbdock.cxx#4 $)

>  <Rbt.Library>
libRbt.so (2013.1, Build901 2013/11/27)

>  <Rbt.Parameter_File>
/export/apps/rDock/src/rDock_2013.1_src/data/scripts/dock_solv.prm

>  <Rbt.Receptor>
prm/pocket_docking_5.prm

>  <SCORE>
-14.078

>  <SCORE.INTER>
-11.5953

>  <SCORE.INTER.CONST>
1

>  <SCORE.INTER.POLAR>
0

>  <SCORE.INTER.ROT>
7

>  <SCORE.INTER.SOLV>
11.4655

>  <SCORE.INTER.VDW>
-19.8187

>  <SCORE.INTER.norm>
-0.429454

>  <SCORE.INTRA>
-2.48274

>  <SCORE.INTRA.DIHEDRAL>
-2.4833

>  <SCORE.INTRA.DIHEDRAL.0>
10.0365

>  <SCORE.INTRA.POLAR>
0

>  <SCORE.INTRA.POLAR.0>
0

>  <SCORE.INTRA.REPUL>
0

>  <SCORE.INTRA.REPUL.0>
0

>  <SCORE.INTRA.SOLV>
-0.357829

>  <SCORE.INTRA.SOLV.lig_0>
-48.6728

>  <SCORE.INTRA.VDW>
-1.06217

>  <SCORE.INTRA.VDW.0>
-1.10662

>  <SCORE.INTRA.norm>
-0.0919534

>  <SCORE.RESTR>
0

>  <SCORE.RESTR.CAVITY>
0

>  <SCORE.RESTR.norm>
0

>  <SCORE.SYSTEM>
0

>  <SCORE.SYSTEM.CONST>
0

>  <SCORE.SYSTEM.DIHEDRAL>
0

>  <SCORE.SYSTEM.SOLV>
0

>  <SCORE.SYSTEM.norm>
0

>  <SCORE.heavy>
27

>  <SCORE.norm>
-0.521407

>  <RMSD>
5.110

$$$$
ligand
 OpenBabel11021811483D
libRbt.so/2013.1/901 2013/11/27
 27 29  0  0  0  0  0  0  0  0999 V2000
   47.3876   58.2274   28.4761 N   0  0  0  0  0  0  0  0  0  0  0  0
   48.6514   57.4948   28.6291 C   0  0  2  0  0  0  0  0  0  0  0  0
   48.4440   56.0866   28.1583 C   0  0  0  0  0  0  0  0  0  0  0  0
   49.2845   55.5496   27.4545 O   0  0  0  0  0  0  0  0  0  0  0  0
   49.0857   57.4822   30.1024 C   0  0  0  0  0  0  0  0  0  0  0  0
   47.8855   57.1111   30.9684 C   0  0  0  0  0  0  0  0  0  0  0  0
   48.0987   57.5397   32.7258 S   0  0  2  0  0  0  0  0  0  0  0  0
   48.8706   59.1871   32.7039 C   0  0  0  0  0  0  0  0  0  0  0  0
   49.4856   56.6007   33.4610 C   0  0  0  0  0  0  0  0  0  0  0  0
   48.8002   55.4095   34.0843 C   0  0  1  0  0  0  0  0  0  0  0  0
   48.2354   54.7463   33.0018 O   0  0  0  0  0  0  0  0  0  0  0  0
   49.5879   54.2801   34.7499 C   0  0  1  0  0  0  0  0  0  0  0  0
   49.7911   54.4998   36.1164 O   0  0  0  0  0  0  0  0  0  0  0  0
   48.5886   53.0693   34.4247 C   0  0  1  0  0  0  0  0  0  0  0  0
   47.2436   53.2667   34.8846 O   0  0  0  0  0  0  0  0  0  0  0  0
   48.7990   53.3765   32.9599 C   0  0  1  0  0  0  0  0  0  0  0  0
   47.4409   55.4772   28.4946 O   0  0  0  0  0  0  0  0  0  0  0  0
   50.3774   53.0933   28.1958 N   0  0  0  0  0  0  0  0  0  0  0  0
   50.9760   53.5579   29.2936 C   0  0  0  0  0  0  0  0  0  0  0  0
   50.3958   53.4939   30.4914 N   0  0  0  0  0  0  0  0  0  0  0  0
   49.1310   53.0727   30.6244 C   0  0  0  0  0  0  0  0  0  0  0  0
   48.4298   52.6281   29.4584 C   0  0  0  0  0  0  0  0  0  0  0  0
   49.1269   52.6502   28.2191 C   0  0  0  0  0  0  0  0  0  0  0  0
   48.5353   52.2258   27.0626 N   0  0  0  0  0  0  0  0  0  0  0  0
   47.1935   52.2665   29.8534 N   0  0  0  0  0  0  0  0  0  0  0  0
   47.0759   52.4548   31.1494 C   0  0  0  0  0  0  0  0  0  0  0  0
   48.2406   52.9370   31.6942 N   0  0  0  0  0  0  0  0  0  0  0  0
  2  1  1  1  0  0  0
  2  3  1  0  0  0  0
  2  5  1  0  0  0  0
  3  4  1  0  0  0  0
  3 17  1  0  0  0  0
  5  6  1  0  0  0  0
  7  6  1  6  0  0  0
  7  8  1  0  0  0  0
  7  9  1  0  0  0  0
 10  9  1  6  0  0  0
 10 11  1  0  0  0  0
 10 12  1  0  0  0  0
 11 16  1  0  0  0  0
 12 13  1  1  0  0  0
 12 14  1  0  0  0  0
 14 15  1  1  0  0  0
 14 16  1  0  0  0  0
 16 27  1  6  0  0  0
 18 19  2  0  0  0  0
 18 23  1  0  0  0  0
 19 20  1  0  0  0  0
 20 21  2  0  0  0  0
 21 22  1  0  0  0  0
 21 27  1  0  0  0  0
 22 23  2  0  0  0  0
 22 25  1  0  0  0  0
 23 24  1  0  0  0  0
 25 26  2  0  0  0  0
 26 27  1  0  0  0  0
M  END
>  <CHROM.1>
136.24941404,46.65955061,-162.49031358,41.90725433,-94.97235318,62.90315096
97.07990580,48.66702647,54.91474880,31.14696157,1.40674452,1.50891763,-1.53716356

>  <Name>
ligand

>  <RI>
0

>  <Rbt.Current_Directory>
/home/itssahil/PROJECTS/Mol_Feturizer/New_Systems/rnas/3IQN

>  <Rbt.Executable>
rbdock ($Id: //depot/dev/client3/rdock/2013.1/src/exe/rbdock.cxx#4 $)

>  <Rbt.Library>
libRbt.so (2013.1, Build901 2013/11/27)

>  <Rbt.Parameter_File>
/export/apps/rDock/src/rDock_2013.1_src/data/scripts/dock_solv.prm

>  <Rbt.Receptor>
prm/pocket_docking_2.prm

>  <SCORE>
-14.1793

>  <SCORE.INTER>
-12.6277

>  <SCORE.INTER.CONST>
1

>  <SCORE.INTER.POLAR>
0

>  <SCORE.INTER.ROT>
7

>  <SCORE.INTER.SOLV>
12.2399

>  <SCORE.INTER.VDW>
-20.7651

>  <SCORE.INTER.norm>
-0.467691

>  <SCORE.INTRA>
-3.21889

>  <SCORE.INTRA.DIHEDRAL>
-2.71529

>  <SCORE.INTRA.DIHEDRAL.0>
10.0365

>  <SCORE.INTRA.POLAR>
0

>  <SCORE.INTRA.POLAR.0>
0

>  <SCORE.INTRA.REPUL>
0

>  <SCORE.INTRA.REPUL.0>
0

>  <SCORE.INTRA.SOLV>
0.851147

>  <SCORE.INTRA.SOLV.lig_0>
-48.6728

>  <SCORE.INTRA.VDW>
-2.28681

>  <SCORE.INTRA.VDW.0>
-1.10662

>  <SCORE.INTRA.norm>
-0.119218

>  <SCORE.RESTR>
1.66722

>  <SCORE.RESTR.CAVITY>
1.66722

>  <SCORE.RESTR.norm>
0.061749

>  <SCORE.SYSTEM>
0

>  <SCORE.SYSTEM.CONST>
0

>  <SCORE.SYSTEM.DIHEDRAL>
0

>  <SCORE.SYSTEM.SOLV>
0

>  <SCORE.SYSTEM.norm>
0

>  <SCORE.heavy>
27

>  <SCORE.norm>
-0.52516

>  <RMSD>
5.115

$$$$
ligand
 OpenBabel11021811483D
libRbt.so/2013.1/901 2013/11/27
 27 29  0  0  0  0  0  0  0  0999 V2000
   48.2717   54.9798   24.9369 N   0  0  0  0  0  0  0  0  0  0  0  0
   47.8786   54.8087   26.3417 C   0  0  2  0  0  0  0  0  0  0  0  0
   46.9673   53.6223   26.4388 C   0  0  0  0  0  0  0  0  0  0  0  0
   46.1845   53.3797   25.5341 O   0  0  0  0  0  0  0  0  0  0  0  0
   47.1439   56.0598   26.8462 C   0  0  0  0  0  0  0  0  0  0  0  0
   48.1567   57.1854   27.0351 C   0  0  0  0  0  0  0  0  0  0  0  0
   49.2065   56.9771   28.5089 S   0  0  2  0  0  0  0  0  0  0  0  0
   50.2642   55.5491   28.1183 C   0  0  0  0  0  0  0  0  0  0  0  0
   48.2551   56.2404   29.8866 C   0  0  0  0  0  0  0  0  0  0  0  0
   47.6598   57.4447   30.5740 C   0  0  1  0  0  0  0  0  0  0  0  0
   46.7020   56.9039   31.4229 O   0  0  0  0  0  0  0  0  0  0  0  0
   48.4703   58.3041   31.5453 C   0  0  1  0  0  0  0  0  0  0  0  0
   49.1229   59.3647   30.9082 O   0  0  0  0  0  0  0  0  0  0  0  0
   47.2761   58.7594   32.5135 C   0  0  1  0  0  0  0  0  0  0  0  0
   46.1828   59.4076   31.8470 O   0  0  0  0  0  0  0  0  0  0  0  0
   47.0469   57.2952   32.8099 C   0  0  1  0  0  0  0  0  0  0  0  0
   47.0236   52.8939   27.4171 O   0  0  0  0  0  0  0  0  0  0  0  0
   47.0147   52.9071   35.2619 N   0  0  0  0  0  0  0  0  0  0  0  0
   47.9865   53.5362   34.5990 C   0  0  0  0  0  0  0  0  0  0  0  0
   47.8018   54.7378   34.0537 N   0  0  0  0  0  0  0  0  0  0  0  0
   46.5912   55.3115   34.0405 C   0  0  0  0  0  0  0  0  0  0  0  0
   45.5052   54.6365   34.6837 C   0  0  0  0  0  0  0  0  0  0  0  0
   45.7804   53.3913   35.3130 C   0  0  0  0  0  0  0  0  0  0  0  0
   44.8032   52.6920   35.9640 N   0  0  0  0  0  0  0  0  0  0  0  0
   44.4113   55.4074   34.5275 N   0  0  0  0  0  0  0  0  0  0  0  0
   44.7298   56.4851   33.8449 C   0  0  0  0  0  0  0  0  0  0  0  0
   46.0649   56.4997   33.5239 N   0  0  0  0  0  0  0  0  0  0  0  0
  2  1  1  6  0  0  0
  2  3  1  0  0  0  0
  2  5  1  0  0  0  0
  3  4  1  0  0  0  0
  3 17  1  0  0  0  0
  5  6  1  0  0  0  0
  7  6  1  6  0  0  0
  7  8  1  0  0  0  0
  7  9  1  0  0  0  0
 10  9  1  1  0  0  0
 10 11  1  0  0  0  0
 10 12  1  0  0  0  0
 11 16  1  0  0  0  0
 12 13  1  6  0  0  0
 12 14  1  0  0  0  0
 14 15  1  6  0  0  0
 14 16  1  0  0  0  0
 16 27  1  1  0  0  0
 18 19  2  0  0  0  0
 18 23  1  0  0  0  0
 19 20  1  0  0  0  0
 20 21  2  0  0  0  0
 21 22  1  0  0  0  0
 21 27  1  0  0  0  0
 22 23  2  0  0  0  0
 22 25  1  0  0  0  0
 23 24  1  0  0  0  0
 25 26  2  0  0  0  0
 26 27  1  0  0  0  0
M  END
>  <CHROM.1>
-35.13384306,-73.11791705,-74.48449784,68.89649240,-88.06470784,166.94406803
99.30710508,47.25178047,55.82435713,30.82726932,0.83246012,-1.19809801,-2.21403210

>  <Name>
ligand

>  <RI>
0

>  <Rbt.Current_Directory>
/home/itssahil/PROJECTS/Mol_Feturizer/New_Systems/rnas/3IQN

>  <Rbt.Executable>
rbdock ($Id: //depot/dev/client3/rdock/2013.1/src/exe/rbdock.cxx#4 $)

>  <Rbt.Library>
libRbt.so (2013.1, Build901 2013/11/27)

>  <Rbt.Parameter_File>
/export/apps/rDock/src/rDock_2013.1_src/data/scripts/dock_solv.prm

>  <Rbt.Receptor>
prm/pocket_docking_5.prm

>  <SCORE>
-15.0526

>  <SCORE.INTER>
-12.5273

>  <SCORE.INTER.CONST>
1

>  <SCORE.INTER.POLAR>
0

>  <SCORE.INTER.ROT>
7

>  <SCORE.INTER.SOLV>
12.6596

>  <SCORE.INTER.VDW>
-20.8381

>  <SCORE.INTER.norm>
-0.463975

>  <SCORE.INTRA>
-2.52525

>  <SCORE.INTRA.DIHEDRAL>
-2.88841

>  <SCORE.INTRA.DIHEDRAL.0>
10.0365

>  <SCORE.INTRA.POLAR>
0

>  <SCORE.INTRA.POLAR.0>
0

>  <SCORE.INTRA.REPUL>
0

>  <SCORE.INTRA.REPUL.0>
0

>  <SCORE.INTRA.SOLV>
0.625176

>  <SCORE.INTRA.SOLV.lig_0>
-48.6728

>  <SCORE.INTRA.VDW>
-1.39363

>  <SCORE.INTRA.VDW.0>
-1.10662

>  <SCORE.INTRA.norm>
-0.0935278

>  <SCORE.RESTR>
0

>  <SCORE.RESTR.CAVITY>
0

>  <SCORE.RESTR.norm>
0

>  <SCORE.SYSTEM>
0

>  <SCORE.SYSTEM.CONST>
0

>  <SCORE.SYSTEM.DIHEDRAL>
0

>  <SCORE.SYSTEM.SOLV>
0

>  <SCORE.SYSTEM.norm>
0

>  <SCORE.heavy>
27

>  <SCORE.norm>
-0.557503

>  <RMSD>
5.117

$$$$
ligand
 OpenBabel11021811483D
libRbt.so/2013.1/901 2013/11/27
 27 29  0  0  0  0  0  0  0  0999 V2000
   48.9139   55.9105   28.3923 N   0  0  0  0  0  0  0  0  0  0  0  0
   48.0414   56.5911   29.3582 C   0  0  2  0  0  0  0  0  0  0  0  0
   47.7255   57.9586   28.8314 C   0  0  0  0  0  0  0  0  0  0  0  0
   48.5108   58.5200   28.0842 O   0  0  0  0  0  0  0  0  0  0  0  0
   48.7462   56.7172   30.7171 C   0  0  0  0  0  0  0  0  0  0  0  0
   47.7206   57.1273   31.7698 C   0  0  0  0  0  0  0  0  0  0  0  0
   48.4551   57.4850   33.3977 S   0  0  2  0  0  0  0  0  0  0  0  0
   49.7266   58.7415   33.0591 C   0  0  0  0  0  0  0  0  0  0  0  0
   49.5549   56.1233   33.9288 C   0  0  0  0  0  0  0  0  0  0  0  0
   48.5865   55.0492   34.3595 C   0  0  1  0  0  0  0  0  0  0  0  0
   48.0299   54.6048   33.1665 O   0  0  0  0  0  0  0  0  0  0  0  0
   49.0610   53.7331   34.9775 C   0  0  1  0  0  0  0  0  0  0  0  0
   49.1474   53.7949   36.3723 O   0  0  0  0  0  0  0  0  0  0  0  0
   47.8896   52.7808   34.4374 C   0  0  1  0  0  0  0  0  0  0  0  0
   46.5650   53.2089   34.7862 O   0  0  0  0  0  0  0  0  0  0  0  0
   48.3192   53.1572   33.0381 C   0  0  1  0  0  0  0  0  0  0  0  0
   46.6751   58.4989   29.1405 O   0  0  0  0  0  0  0  0  0  0  0  0
   50.3361   52.9761   28.4372 N   0  0  0  0  0  0  0  0  0  0  0  0
   50.8851   53.2195   29.6283 C   0  0  0  0  0  0  0  0  0  0  0  0
   50.1739   53.1689   30.7539 N   0  0  0  0  0  0  0  0  0  0  0  0
   48.8460   52.9938   30.7244 C   0  0  0  0  0  0  0  0  0  0  0  0
   48.2081   52.7959   29.4584 C   0  0  0  0  0  0  0  0  0  0  0  0
   49.0302   52.7862   28.2982 C   0  0  0  0  0  0  0  0  0  0  0  0
   48.5021   52.5857   27.0538 N   0  0  0  0  0  0  0  0  0  0  0  0
   46.8901   52.6512   29.6972 N   0  0  0  0  0  0  0  0  0  0  0  0
   46.6665   52.7480   30.9893 C   0  0  0  0  0  0  0  0  0  0  0  0
   47.8328   52.9448   31.6871 N   0  0  0  0  0  0  0  0  0  0  0  0
  2  1  1  6  0  0  0
  2  3  1  0  0  0  0
  2  5  1  0  0  0  0
  3  4  1  0  0  0  0
  3 17  1  0  0  0  0
  5  6  1  0  0  0  0
  7  6  1  6  0  0  0
  7  8  1  0  0  0  0
  7  9  1  0  0  0  0
 10  9  1  6  0  0  0
 10 11  1  0  0  0  0
 10 12  1  0  0  0  0
 11 16  1  0  0  0  0
 12 13  1  1  0  0  0
 12 14  1  0  0  0  0
 14 15  1  1  0  0  0
 14 16  1  0  0  0  0
 16 27  1  6  0  0  0
 18 19  2  0  0  0  0
 18 23  1  0  0  0  0
 19 20  1  0  0  0  0
 20 21  2  0  0  0  0
 21 22  1  0  0  0  0
 21 27  1  0  0  0  0
 22 23  2  0  0  0  0
 22 25  1  0  0  0  0
 23 24  1  0  0  0  0
 25 26  2  0  0  0  0
 26 27  1  0  0  0  0
M  END
>  <CHROM.1>
-27.41130392,-167.15264375,-173.88693908,54.73813239,-75.74253688,71.09013438
96.62156454,48.46610382,54.97135137,31.43360729,1.22878573,1.53068687,-1.08702645

>  <Name>
ligand

>  <RI>
0

>  <Rbt.Current_Directory>
/home/itssahil/PROJECTS/Mol_Feturizer/New_Systems/rnas/3IQN

>  <Rbt.Executable>
rbdock ($Id: //depot/dev/client3/rdock/2013.1/src/exe/rbdock.cxx#4 $)

>  <Rbt.Library>
libRbt.so (2013.1, Build901 2013/11/27)

>  <Rbt.Parameter_File>
/export/apps/rDock/src/rDock_2013.1_src/data/scripts/dock_solv.prm

>  <Rbt.Receptor>
prm/pocket_docking_5.prm

>  <SCORE>
-21.214

>  <SCORE.INTER>
-16.4586

>  <SCORE.INTER.CONST>
1

>  <SCORE.INTER.POLAR>
0

>  <SCORE.INTER.ROT>
7

>  <SCORE.INTER.SOLV>
8.17132

>  <SCORE.INTER.VDW>
-21.9629

>  <SCORE.INTER.norm>
-0.609579

>  <SCORE.INTRA>
-4.77257

>  <SCORE.INTRA.DIHEDRAL>
-5.48751

>  <SCORE.INTRA.DIHEDRAL.0>
10.0365

>  <SCORE.INTRA.POLAR>
0

>  <SCORE.INTRA.POLAR.0>
0

>  <SCORE.INTRA.REPUL>
0

>  <SCORE.INTRA.REPUL.0>
0

>  <SCORE.INTRA.SOLV>
2.13711

>  <SCORE.INTRA.SOLV.lig_0>
-48.6728

>  <SCORE.INTRA.VDW>
-3.09737

>  <SCORE.INTRA.VDW.0>
-1.10662

>  <SCORE.INTRA.norm>
-0.176762

>  <SCORE.RESTR>
0.0172307

>  <SCORE.RESTR.CAVITY>
0.0172307

>  <SCORE.RESTR.norm>
0.000638174

>  <SCORE.SYSTEM>
0

>  <SCORE.SYSTEM.CONST>
0

>  <SCORE.SYSTEM.DIHEDRAL>
0

>  <SCORE.SYSTEM.SOLV>
0

>  <SCORE.SYSTEM.norm>
0

>  <SCORE.heavy>
27

>  <SCORE.norm>
-0.785703

>  <RMSD>
5.118

$$$$
ligand
 OpenBabel11021811483D
libRbt.so/2013.1/901 2013/11/27
 27 29  0  0  0  0  0  0  0  0999 V2000
   49.6543   54.6226   27.5859 N   0  0  0  0  0  0  0  0  0  0  0  0
   48.6274   55.6719   27.5445 C   0  0  2  0  0  0  0  0  0  0  0  0
   48.2781   55.9383   26.1112 C   0  0  0  0  0  0  0  0  0  0  0  0
   49.0937   55.7080   25.2325 O   0  0  0  0  0  0  0  0  0  0  0  0
   49.1564   56.9616   28.1897 C   0  0  0  0  0  0  0  0  0  0  0  0
   48.0023   57.9483   28.3406 C   0  0  0  0  0  0  0  0  0  0  0  0
   46.6933   57.3672   29.4660 S   0  0  2  0  0  0  0  0  0  0  0  0
   45.2037   57.2756   28.4253 C   0  0  0  0  0  0  0  0  0  0  0  0
   46.1574   58.7083   30.5884 C   0  0  0  0  0  0  0  0  0  0  0  0
   47.2444   58.7339   31.6347 C   0  0  1  0  0  0  0  0  0  0  0  0
   46.8068   57.8267   32.5919 O   0  0  0  0  0  0  0  0  0  0  0  0
   48.6536   58.2125   31.3496 C   0  0  1  0  0  0  0  0  0  0  0  0
   49.5083   59.2097   30.8681 O   0  0  0  0  0  0  0  0  0  0  0  0
   49.0185   57.6953   32.8228 C   0  0  1  0  0  0  0  0  0  0  0  0
   48.9018   58.6908   33.8498 O   0  0  0  0  0  0  0  0  0  0  0  0
   47.8323   56.7645   32.7178 C   0  0  1  0  0  0  0  0  0  0  0  0
   47.1719   56.3704   25.8277 O   0  0  0  0  0  0  0  0  0  0  0  0
   49.0475   53.5097   36.3507 N   0  0  0  0  0  0  0  0  0  0  0  0
   49.8077   54.2792   35.5701 C   0  0  0  0  0  0  0  0  0  0  0  0
   49.2784   55.1262   34.6882 N   0  0  0  0  0  0  0  0  0  0  0  0
   47.9585   55.1498   34.4597 C   0  0  0  0  0  0  0  0  0  0  0  0
   47.1134   54.2895   35.2307 C   0  0  0  0  0  0  0  0  0  0  0  0
   47.7291   53.4614   36.2091 C   0  0  0  0  0  0  0  0  0  0  0  0
   46.9916   52.6246   36.9988 N   0  0  0  0  0  0  0  0  0  0  0  0
   45.8496   54.4965   34.8119 N   0  0  0  0  0  0  0  0  0  0  0  0
   45.8482   55.3982   33.8549 C   0  0  0  0  0  0  0  0  0  0  0  0
   47.1164   55.8571   33.5959 N   0  0  0  0  0  0  0  0  0  0  0  0
  2  1  1  6  0  0  0
  2  3  1  0  0  0  0
  2  5  1  0  0  0  0
  3  4  1  0  0  0  0
  3 17  1  0  0  0  0
  5  6  1  0  0  0  0
  7  6  1  6  0  0  0
  7  8  1  0  0  0  0
  7  9  1  0  0  0  0
 10  9  1  6  0  0  0
 10 11  1  0  0  0  0
 10 12  1  0  0  0  0
 11 16  1  0  0  0  0
 12 13  1  1  0  0  0
 12 14  1  0  0  0  0
 14 15  1  1  0  0  0
 14 16  1  0  0  0  0
 16 27  1  1  0  0  0
 18 19  2  0  0  0  0
 18 23  1  0  0  0  0
 19 20  1  0  0  0  0
 20 21  2  0  0  0  0
 21 22  1  0  0  0  0
 21 27  1  0  0  0  0
 22 23  2  0  0  0  0
 22 25  1  0  0  0  0
 23 24  1  0  0  0  0
 25 26  2  0  0  0  0
 26 27  1  0  0  0  0
M  END
>  <CHROM.1>
-25.86283496,-170.67955070,63.66231579,-118.97581121,-78.88612201,-88.90325370
-147.95618248,47.82592136,56.33868953,31.44936154,-1.47660470,-1.38191007
1.92592919

>  <Name>
ligand

>  <RI>
0

>  <Rbt.Current_Directory>
/home/itssahil/PROJECTS/Mol_Feturizer/New_Systems/rnas/3IQN

>  <Rbt.Executable>
rbdock ($Id: //depot/dev/client3/rdock/2013.1/src/exe/rbdock.cxx#4 $)

>  <Rbt.Library>
libRbt.so (2013.1, Build901 2013/11/27)

>  <Rbt.Parameter_File>
/export/apps/rDock/src/rDock_2013.1_src/data/scripts/dock_solv.prm

>  <Rbt.Receptor>
prm/pocket_docking_4.prm

>  <SCORE>
-15.2817

>  <SCORE.INTER>
-14.7382

>  <SCORE.INTER.CONST>
1

>  <SCORE.INTER.POLAR>
0

>  <SCORE.INTER.ROT>
7

>  <SCORE.INTER.SOLV>
13.8941

>  <SCORE.INTER.VDW>
-22.7235

>  <SCORE.INTER.norm>
-0.545861

>  <SCORE.INTRA>
-0.543406

>  <SCORE.INTRA.DIHEDRAL>
0.455291

>  <SCORE.INTRA.DIHEDRAL.0>
10.0365

>  <SCORE.INTRA.POLAR>
0

>  <SCORE.INTRA.POLAR.0>
0

>  <SCORE.INTRA.REPUL>
0

>  <SCORE.INTRA.REPUL.0>
0

>  <SCORE.INTRA.SOLV>
-0.278378

>  <SCORE.INTRA.SOLV.lig_0>
-48.6728

>  <SCORE.INTRA.VDW>
-0.631863

>  <SCORE.INTRA.VDW.0>
-1.10662

>  <SCORE.INTRA.norm>
-0.0201262

>  <SCORE.RESTR>
0

>  <SCORE.RESTR.CAVITY>
0

>  <SCORE.RESTR.norm>
0

>  <SCORE.SYSTEM>
0

>  <SCORE.SYSTEM.CONST>
0

>  <SCORE.SYSTEM.DIHEDRAL>
0

>  <SCORE.SYSTEM.SOLV>
0

>  <SCORE.SYSTEM.norm>
0

>  <SCORE.heavy>
27

>  <SCORE.norm>
-0.565987

>  <RMSD>
5.120

$$$$
ligand
 OpenBabel11021811483D
libRbt.so/2013.1/901 2013/11/27
 27 29  0  0  0  0  0  0  0  0999 V2000
   49.6815   56.2435   28.3558 N   0  0  0  0  0  0  0  0  0  0  0  0
   48.5429   56.5814   29.2199 C   0  0  2  0  0  0  0  0  0  0  0  0
   47.8047   57.7319   28.6045 C   0  0  0  0  0  0  0  0  0  0  0  0
   46.5896   57.7980   28.7018 O   0  0  0  0  0  0  0  0  0  0  0  0
   49.0352   56.9800   30.6193 C   0  0  0  0  0  0  0  0  0  0  0  0
   47.8331   57.0957   31.5519 C   0  0  0  0  0  0  0  0  0  0  0  0
   48.2848   57.4840   33.2731 S   0  0  2  0  0  0  0  0  0  0  0  0
   49.3597   58.9463   33.1445 C   0  0  0  0  0  0  0  0  0  0  0  0
   49.5215   56.2938   33.9057 C   0  0  0  0  0  0  0  0  0  0  0  0
   48.6770   55.1216   34.3412 C   0  0  1  0  0  0  0  0  0  0  0  0
   48.1696   54.6160   33.1505 O   0  0  0  0  0  0  0  0  0  0  0  0
   49.2935   53.8668   34.9611 C   0  0  1  0  0  0  0  0  0  0  0  0
   49.3756   53.9412   36.3556 O   0  0  0  0  0  0  0  0  0  0  0  0
   48.2320   52.7909   34.4261 C   0  0  1  0  0  0  0  0  0  0  0  0
   46.8693   53.0728   34.7770 O   0  0  0  0  0  0  0  0  0  0  0  0
   48.6150   53.2083   33.0249 C   0  0  1  0  0  0  0  0  0  0  0  0
   48.4249   58.6070   28.0213 O   0  0  0  0  0  0  0  0  0  0  0  0
   50.6749   53.0436   28.4425 N   0  0  0  0  0  0  0  0  0  0  0  0
   51.2001   53.3424   29.6318 C   0  0  0  0  0  0  0  0  0  0  0  0
   50.4840   53.2757   30.7534 N   0  0  0  0  0  0  0  0  0  0  0  0
   49.1683   53.0260   30.7188 C   0  0  0  0  0  0  0  0  0  0  0  0
   48.5524   52.7660   29.4532 C   0  0  0  0  0  0  0  0  0  0  0  0
   49.3829   52.7779   28.2989 C   0  0  0  0  0  0  0  0  0  0  0  0
   48.8766   52.5220   27.0555 N   0  0  0  0  0  0  0  0  0  0  0  0
   47.2426   52.5528   29.6862 N   0  0  0  0  0  0  0  0  0  0  0  0
   47.0039   52.6642   30.9743 C   0  0  0  0  0  0  0  0  0  0  0  0
   48.1519   52.9406   31.6755 N   0  0  0  0  0  0  0  0  0  0  0  0
  2  1  1  6  0  0  0
  2  3  1  0  0  0  0
  2  5  1  0  0  0  0
  3  4  1  0  0  0  0
  3 17  1  0  0  0  0
  5  6  1  0  0  0  0
  7  6  1  6  0  0  0
  7  8  1  0  0  0  0
  7  9  1  0  0  0  0
 10  9  1  6  0  0  0
 10 11  1  0  0  0  0
 10 12  1  0  0  0  0
 11 16  1  0  0  0  0
 12 13  1  1  0  0  0
 12 14  1  0  0  0  0
 14 15  1  1  0  0  0
 14 16  1  0  0  0  0
 16 27  1  6  0  0  0
 18 19  2  0  0  0  0
 18 23  1  0  0  0  0
 19 20  1  0  0  0  0
 20 21  2  0  0  0  0
 21 22  1  0  0  0  0
 21 27  1  0  0  0  0
 22 23  2  0  0  0  0
 22 25  1  0  0  0  0
 23 24  1  0  0  0  0
 25 26  2  0  0  0  0
 26 27  1  0  0  0  0
M  END
>  <CHROM.1>
144.94502919,-170.58935521,177.11848596,51.90736394,-82.90835854,67.56869067
99.91006437,48.66274539,54.98417564,31.37609298,1.26349048,1.46411129,-1.13195544

>  <Name>
ligand

>  <RI>
0

>  <Rbt.Current_Directory>
/home/itssahil/PROJECTS/Mol_Feturizer/New_Systems/rnas/3IQN

>  <Rbt.Executable>
rbdock ($Id: //depot/dev/client3/rdock/2013.1/src/exe/rbdock.cxx#4 $)

>  <Rbt.Library>
libRbt.so (2013.1, Build901 2013/11/27)

>  <Rbt.Parameter_File>
/export/apps/rDock/src/rDock_2013.1_src/data/scripts/dock_solv.prm

>  <Rbt.Receptor>
prm/pocket_docking_6.prm

>  <SCORE>
-21.6692

>  <SCORE.INTER>
-16.5305

>  <SCORE.INTER.CONST>
1

>  <SCORE.INTER.POLAR>
0

>  <SCORE.INTER.ROT>
7

>  <SCORE.INTER.SOLV>
10.2154

>  <SCORE.INTER.VDW>
-22.6921

>  <SCORE.INTER.norm>
-0.61224

>  <SCORE.INTRA>
-5.13869

>  <SCORE.INTRA.DIHEDRAL>
-5.60827

>  <SCORE.INTRA.DIHEDRAL.0>
10.0365

>  <SCORE.INTRA.POLAR>
0

>  <SCORE.INTRA.POLAR.0>
0

>  <SCORE.INTRA.REPUL>
0

>  <SCORE.INTRA.REPUL.0>
0

>  <SCORE.INTRA.SOLV>
0.771247

>  <SCORE.INTRA.SOLV.lig_0>
-48.6728

>  <SCORE.INTRA.VDW>
-2.72018

>  <SCORE.INTRA.VDW.0>
-1.10662

>  <SCORE.INTRA.norm>
-0.190322

>  <SCORE.RESTR>
0

>  <SCORE.RESTR.CAVITY>
0

>  <SCORE.RESTR.norm>
0

>  <SCORE.SYSTEM>
0

>  <SCORE.SYSTEM.CONST>
0

>  <SCORE.SYSTEM.DIHEDRAL>
0

>  <SCORE.SYSTEM.SOLV>
0

>  <SCORE.SYSTEM.norm>
0

>  <SCORE.heavy>
27

>  <SCORE.norm>
-0.802562

>  <RMSD>
5.132

$$$$
ligand
 OpenBabel11021811483D
libRbt.so/2013.1/901 2013/11/27
 27 29  0  0  0  0  0  0  0  0999 V2000
   45.3735   57.2135   28.1193 N   0  0  0  0  0  0  0  0  0  0  0  0
   46.6621   57.8960   27.9435 C   0  0  2  0  0  0  0  0  0  0  0  0
   47.5718   56.9985   27.1596 C   0  0  0  0  0  0  0  0  0  0  0  0
   48.1824   56.1057   27.7254 O   0  0  0  0  0  0  0  0  0  0  0  0
   47.2960   58.1988   29.3095 C   0  0  0  0  0  0  0  0  0  0  0  0
   46.2116   58.1412   30.3814 C   0  0  0  0  0  0  0  0  0  0  0  0
   46.7360   58.8342   31.9821 S   0  0  2  0  0  0  0  0  0  0  0  0
   46.8845   60.6221   31.6791 C   0  0  0  0  0  0  0  0  0  0  0  0
   48.4988   58.4670   32.3040 C   0  0  0  0  0  0  0  0  0  0  0  0
   48.4692   57.0342   32.7766 C   0  0  1  0  0  0  0  0  0  0  0  0
   48.6001   56.2951   31.6072 O   0  0  0  0  0  0  0  0  0  0  0  0
   49.5896   56.4417   33.6326 C   0  0  1  0  0  0  0  0  0  0  0  0
   49.3507   56.5842   35.0035 O   0  0  0  0  0  0  0  0  0  0  0  0
   49.5127   54.9278   33.1103 C   0  0  1  0  0  0  0  0  0  0  0  0
   48.2202   54.3177   33.2393 O   0  0  0  0  0  0  0  0  0  0  0  0
   49.8174   55.4590   31.7286 C   0  0  1  0  0  0  0  0  0  0  0  0
   47.6858   57.1554   25.9542 O   0  0  0  0  0  0  0  0  0  0  0  0
   47.5582   51.7563   29.1879 N   0  0  0  0  0  0  0  0  0  0  0  0
   47.4581   52.1354   30.4629 C   0  0  0  0  0  0  0  0  0  0  0  0
   48.1149   53.1941   30.9353 N   0  0  0  0  0  0  0  0  0  0  0  0
   49.0040   53.8497   30.1774 C   0  0  0  0  0  0  0  0  0  0  0  0
   49.1904   53.4311   28.8214 C   0  0  0  0  0  0  0  0  0  0  0  0
   48.4064   52.3415   28.3520 C   0  0  0  0  0  0  0  0  0  0  0  0
   48.5111   51.8919   27.0658 N   0  0  0  0  0  0  0  0  0  0  0  0
   50.1275   54.2360   28.2835 N   0  0  0  0  0  0  0  0  0  0  0  0
   50.5319   55.1011   29.1873 C   0  0  0  0  0  0  0  0  0  0  0  0
   49.8686   54.9305   30.3776 N   0  0  0  0  0  0  0  0  0  0  0  0
  2  1  1  1  0  0  0
  2  3  1  0  0  0  0
  2  5  1  0  0  0  0
  3  4  1  0  0  0  0
  3 17  1  0  0  0  0
  5  6  1  0  0  0  0
  7  6  1  6  0  0  0
  7  8  1  0  0  0  0
  7  9  1  0  0  0  0
 10  9  1  6  0  0  0
 10 11  1  0  0  0  0
 10 12  1  0  0  0  0
 11 16  1  0  0  0  0
 12 13  1  1  0  0  0
 12 14  1  0  0  0  0
 14 15  1  6  0  0  0
 14 16  1  0  0  0  0
 16 27  1  6  0  0  0
 18 19  2  0  0  0  0
 18 23  1  0  0  0  0
 19 20  1  0  0  0  0
 20 21  2  0  0  0  0
 21 22  1  0  0  0  0
 21 27  1  0  0  0  0
 22 23  2  0  0  0  0
 22 25  1  0  0  0  0
 23 24  1  0  0  0  0
 25 26  2  0  0  0  0
 26 27  1  0  0  0  0
M  END
>  <CHROM.1>
-81.98607703,-19.23531246,-167.23066114,69.41865351,-79.07840387,89.70178507
-80.77189773,48.18409979,55.90071857,30.35428707,1.90218820,-1.16547535,0.97697380

>  <Name>
ligand

>  <RI>
0

>  <Rbt.Current_Directory>
/home/itssahil/PROJECTS/Mol_Feturizer/New_Systems/rnas/3IQN

>  <Rbt.Executable>
rbdock ($Id: //depot/dev/client3/rdock/2013.1/src/exe/rbdock.cxx#4 $)

>  <Rbt.Library>
libRbt.so (2013.1, Build901 2013/11/27)

>  <Rbt.Parameter_File>
/export/apps/rDock/src/rDock_2013.1_src/data/scripts/dock_solv.prm

>  <Rbt.Receptor>
prm/pocket_docking_2.prm

>  <SCORE>
-9.86844

>  <SCORE.INTER>
-12.0916

>  <SCORE.INTER.CONST>
1

>  <SCORE.INTER.POLAR>
0

>  <SCORE.INTER.ROT>
7

>  <SCORE.INTER.SOLV>
14.7063

>  <SCORE.INTER.VDW>
-21.2298

>  <SCORE.INTER.norm>
-0.447835

>  <SCORE.INTRA>
0.986012

>  <SCORE.INTRA.DIHEDRAL>
2.04746

>  <SCORE.INTRA.DIHEDRAL.0>
10.0365

>  <SCORE.INTRA.POLAR>
0

>  <SCORE.INTRA.POLAR.0>
0

>  <SCORE.INTRA.REPUL>
0

>  <SCORE.INTRA.REPUL.0>
0

>  <SCORE.INTRA.SOLV>
0.310564

>  <SCORE.INTRA.SOLV.lig_0>
-48.6728

>  <SCORE.INTRA.VDW>
-0.193002

>  <SCORE.INTRA.VDW.0>
-1.10662

>  <SCORE.INTRA.norm>
0.036519

>  <SCORE.RESTR>
1.2371

>  <SCORE.RESTR.CAVITY>
1.2371

>  <SCORE.RESTR.norm>
0.0458185

>  <SCORE.SYSTEM>
0

>  <SCORE.SYSTEM.CONST>
0

>  <SCORE.SYSTEM.DIHEDRAL>
0

>  <SCORE.SYSTEM.SOLV>
0

>  <SCORE.SYSTEM.norm>
0

>  <SCORE.heavy>
27

>  <SCORE.norm>
-0.365498

>  <RMSD>
5.133

$$$$
ligand
 OpenBabel11021811483D
libRbt.so/2013.1/901 2013/11/27
 27 29  0  0  0  0  0  0  0  0999 V2000
   45.9925   57.0544   29.3787 N   0  0  0  0  0  0  0  0  0  0  0  0
   46.9939   58.1287   29.3550 C   0  0  2  0  0  0  0  0  0  0  0  0
   48.2163   57.6229   28.6498 C   0  0  0  0  0  0  0  0  0  0  0  0
   49.1116   58.3972   28.3513 O   0  0  0  0  0  0  0  0  0  0  0  0
   47.3649   58.5437   30.7865 C   0  0  0  0  0  0  0  0  0  0  0  0
   47.9079   57.3264   31.5293 C   0  0  0  0  0  0  0  0  0  0  0  0
   48.2546   57.6451   33.2887 S   0  0  2  0  0  0  0  0  0  0  0  0
   49.5835   58.8877   33.2747 C   0  0  0  0  0  0  0  0  0  0  0  0
   49.1890   56.2579   34.0295 C   0  0  0  0  0  0  0  0  0  0  0  0
   48.2859   55.0722   33.7935 C   0  0  1  0  0  0  0  0  0  0  0  0
   48.5757   54.6870   32.4903 O   0  0  0  0  0  0  0  0  0  0  0  0
   48.4711   53.7527   34.5442 C   0  0  1  0  0  0  0  0  0  0  0  0
   47.7304   53.7007   35.7298 O   0  0  0  0  0  0  0  0  0  0  0  0
   47.9483   52.7546   33.4035 C   0  0  1  0  0  0  0  0  0  0  0  0
   46.6249   53.0368   32.9254 O   0  0  0  0  0  0  0  0  0  0  0  0
   49.0565   53.2858   32.5238 C   0  0  1  0  0  0  0  0  0  0  0  0
   48.3177   56.4340   28.3908 O   0  0  0  0  0  0  0  0  0  0  0  0
   46.8157   52.1680   28.1651 N   0  0  0  0  0  0  0  0  0  0  0  0
   46.3373   52.2287   29.4089 C   0  0  0  0  0  0  0  0  0  0  0  0
   47.0979   52.6016   30.4373 N   0  0  0  0  0  0  0  0  0  0  0  0
   48.4122   52.8112   30.2839 C   0  0  0  0  0  0  0  0  0  0  0  0
   48.9780   52.6901   28.9747 C   0  0  0  0  0  0  0  0  0  0  0  0
   48.1020   52.3621   27.9036 C   0  0  0  0  0  0  0  0  0  0  0  0
   48.5592   52.2451   26.6211 N   0  0  0  0  0  0  0  0  0  0  0  0
   50.2968   52.9411   29.0883 N   0  0  0  0  0  0  0  0  0  0  0  0
   50.5865   53.1981   30.3448 C   0  0  0  0  0  0  0  0  0  0  0  0
   49.4664   53.1505   31.1379 N   0  0  0  0  0  0  0  0  0  0  0  0
  2  1  1  1  0  0  0
  2  3  1  0  0  0  0
  2  5  1  0  0  0  0
  3  4  1  0  0  0  0
  3 17  1  0  0  0  0
  5  6  1  0  0  0  0
  7  6  1  6  0  0  0
  7  8  1  0  0  0  0
  7  9  1  0  0  0  0
 10  9  1  1  0  0  0
 10 11  1  0  0  0  0
 10 12  1  0  0  0  0
 11 16  1  0  0  0  0
 12 13  1  1  0  0  0
 12 14  1  0  0  0  0
 14 15  1  6  0  0  0
 14 16  1  0  0  0  0
 16 27  1  6  0  0  0
 18 19  2  0  0  0  0
 18 23  1  0  0  0  0
 19 20  1  0  0  0  0
 20 21  2  0  0  0  0
 21 22  1  0  0  0  0
 21 27  1  0  0  0  0
 22 23  2  0  0  0  0
 22 25  1  0  0  0  0
 23 24  1  0  0  0  0
 25 26  2  0  0  0  0
 26 27  1  0  0  0  0
M  END
>  <CHROM.1>
170.13725984,58.67126007,-175.04161839,-64.03120953,-57.93969257,82.86524218
-84.24546097,48.22763473,54.97502871,31.07971147,0.82963546,-1.53474468,0.07763759

>  <Name>
ligand

>  <RI>
0

>  <Rbt.Current_Directory>
/home/itssahil/PROJECTS/Mol_Feturizer/New_Systems/rnas/3IQN

>  <Rbt.Executable>
rbdock ($Id: //depot/dev/client3/rdock/2013.1/src/exe/rbdock.cxx#4 $)

>  <Rbt.Library>
libRbt.so (2013.1, Build901 2013/11/27)

>  <Rbt.Parameter_File>
/export/apps/rDock/src/rDock_2013.1_src/data/scripts/dock_solv.prm

>  <Rbt.Receptor>
prm/pocket_docking_6.prm

>  <SCORE>
-18.9081

>  <SCORE.INTER>
-15.8603

>  <SCORE.INTER.CONST>
1

>  <SCORE.INTER.POLAR>
0

>  <SCORE.INTER.ROT>
7

>  <SCORE.INTER.SOLV>
8.99286

>  <SCORE.INTER.VDW>
-21.8378

>  <SCORE.INTER.norm>
-0.587418

>  <SCORE.INTRA>
-3.04784

>  <SCORE.INTRA.DIHEDRAL>
-4.98975

>  <SCORE.INTRA.DIHEDRAL.0>
10.0365

>  <SCORE.INTRA.POLAR>
0

>  <SCORE.INTRA.POLAR.0>
0

>  <SCORE.INTRA.REPUL>
0

>  <SCORE.INTRA.REPUL.0>
0

>  <SCORE.INTRA.SOLV>
-0.067977

>  <SCORE.INTRA.SOLV.lig_0>
-48.6728

>  <SCORE.INTRA.VDW>
-0.518972

>  <SCORE.INTRA.VDW.0>
-1.10662

>  <SCORE.INTRA.norm>
-0.112883

>  <SCORE.RESTR>
0

>  <SCORE.RESTR.CAVITY>
0

>  <SCORE.RESTR.norm>
0

>  <SCORE.SYSTEM>
0

>  <SCORE.SYSTEM.CONST>
0

>  <SCORE.SYSTEM.DIHEDRAL>
0

>  <SCORE.SYSTEM.SOLV>
0

>  <SCORE.SYSTEM.norm>
0

>  <SCORE.heavy>
27

>  <SCORE.norm>
-0.700301

>  <RMSD>
5.134

$$$$
ligand
 OpenBabel11021811483D
libRbt.so/2013.1/901 2013/11/27
 27 29  0  0  0  0  0  0  0  0999 V2000
   50.2773   53.3810   24.5086 N   0  0  0  0  0  0  0  0  0  0  0  0
   50.8937   53.7574   25.7875 C   0  0  2  0  0  0  0  0  0  0  0  0
   51.4503   52.5217   26.4283 C   0  0  0  0  0  0  0  0  0  0  0  0
   52.5466   52.5544   26.9643 O   0  0  0  0  0  0  0  0  0  0  0  0
   49.8478   54.3888   26.7184 C   0  0  0  0  0  0  0  0  0  0  0  0
   50.5424   54.8675   27.9899 C   0  0  0  0  0  0  0  0  0  0  0  0
   49.4134   55.6610   29.1787 S   0  0  2  0  0  0  0  0  0  0  0  0
   48.9704   57.2449   28.4007 C   0  0  0  0  0  0  0  0  0  0  0  0
   50.3365   56.3143   30.6164 C   0  0  0  0  0  0  0  0  0  0  0  0
   49.2628   56.9878   31.4353 C   0  0  1  0  0  0  0  0  0  0  0  0
   48.9332   56.0399   32.3963 O   0  0  0  0  0  0  0  0  0  0  0  0
   49.5576   58.2090   32.3075 C   0  0  1  0  0  0  0  0  0  0  0  0
   49.3724   59.4150   31.6234 O   0  0  0  0  0  0  0  0  0  0  0  0
   48.4789   57.9417   33.4633 C   0  0  1  0  0  0  0  0  0  0  0  0
   47.1289   57.8008   32.9976 O   0  0  0  0  0  0  0  0  0  0  0  0
   49.1872   56.6335   33.7301 C   0  0  1  0  0  0  0  0  0  0  0  0
   50.7965   51.4906   26.4246 O   0  0  0  0  0  0  0  0  0  0  0  0
   45.2169   53.9240   35.2012 N   0  0  0  0  0  0  0  0  0  0  0  0
   45.2999   55.0306   34.4609 C   0  0  0  0  0  0  0  0  0  0  0  0
   46.4728   55.5727   34.1359 N   0  0  0  0  0  0  0  0  0  0  0  0
   47.6176   55.0985   34.6454 C   0  0  0  0  0  0  0  0  0  0  0  0
   47.5650   53.9512   35.4996 C   0  0  0  0  0  0  0  0  0  0  0  0
   46.2910   53.3715   35.7504 C   0  0  0  0  0  0  0  0  0  0  0  0
   46.1563   52.2643   36.5402 N   0  0  0  0  0  0  0  0  0  0  0  0
   48.8295   53.6807   35.8780 N   0  0  0  0  0  0  0  0  0  0  0  0
   49.6450   54.5595   35.3381 C   0  0  0  0  0  0  0  0  0  0  0  0
   48.9660   55.4569   34.5509 N   0  0  0  0  0  0  0  0  0  0  0  0
  2  1  1  6  0  0  0
  2  3  1  0  0  0  0
  2  5  1  0  0  0  0
  3  4  1  0  0  0  0
  3 17  1  0  0  0  0
  5  6  1  0  0  0  0
  7  6  1  6  0  0  0
  7  8  1  0  0  0  0
  7  9  1  0  0  0  0
 10  9  1  1  0  0  0
 10 11  1  0  0  0  0
 10 12  1  0  0  0  0
 11 16  1  0  0  0  0
 12 13  1  6  0  0  0
 12 14  1  0  0  0  0
 14 15  1  6  0  0  0
 14 16  1  0  0  0  0
 16 27  1  1  0  0  0
 18 19  2  0  0  0  0
 18 23  1  0  0  0  0
 19 20  1  0  0  0  0
 20 21  2  0  0  0  0
 21 22  1  0  0  0  0
 21 27  1  0  0  0  0
 22 23  2  0  0  0  0
 22 25  1  0  0  0  0
 23 24  1  0  0  0  0
 25 26  2  0  0  0  0
 26 27  1  0  0  0  0
M  END
>  <CHROM.1>
137.71172396,-175.54827739,179.25197431,-70.65937299,177.02502113,97.65098285
-72.75316494,48.92231250,55.16653679,31.37135111,0.25454099,-1.16501783,-3.00934528

>  <Name>
ligand

>  <RI>
0

>  <Rbt.Current_Directory>
/home/itssahil/PROJECTS/Mol_Feturizer/New_Systems/rnas/3IQN

>  <Rbt.Executable>
rbdock ($Id: //depot/dev/client3/rdock/2013.1/src/exe/rbdock.cxx#4 $)

>  <Rbt.Library>
libRbt.so (2013.1, Build901 2013/11/27)

>  <Rbt.Parameter_File>
/export/apps/rDock/src/rDock_2013.1_src/data/scripts/dock_solv.prm

>  <Rbt.Receptor>
prm/pocket_docking_8.prm

>  <SCORE>
-15.7602

>  <SCORE.INTER>
-13.2387

>  <SCORE.INTER.CONST>
1

>  <SCORE.INTER.POLAR>
0

>  <SCORE.INTER.ROT>
7

>  <SCORE.INTER.SOLV>
12.2048

>  <SCORE.INTER.VDW>
-21.1608

>  <SCORE.INTER.norm>
-0.490323

>  <SCORE.INTRA>
-2.52152

>  <SCORE.INTRA.DIHEDRAL>
-3.30105

>  <SCORE.INTRA.DIHEDRAL.0>
10.0365

>  <SCORE.INTRA.POLAR>
0

>  <SCORE.INTRA.POLAR.0>
0

>  <SCORE.INTRA.REPUL>
0

>  <SCORE.INTRA.REPUL.0>
0

>  <SCORE.INTRA.SOLV>
-0.84827

>  <SCORE.INTRA.SOLV.lig_0>
-48.6728

>  <SCORE.INTRA.VDW>
-0.446865

>  <SCORE.INTRA.VDW.0>
-1.10662

>  <SCORE.INTRA.norm>
-0.0933898

>  <SCORE.RESTR>
0

>  <SCORE.RESTR.CAVITY>
0

>  <SCORE.RESTR.norm>
0

>  <SCORE.SYSTEM>
0

>  <SCORE.SYSTEM.CONST>
0

>  <SCORE.SYSTEM.DIHEDRAL>
0

>  <SCORE.SYSTEM.SOLV>
0

>  <SCORE.SYSTEM.norm>
0

>  <SCORE.heavy>
27

>  <SCORE.norm>
-0.583713

>  <RMSD>
5.136

$$$$
ligand
 OpenBabel11021811483D
libRbt.so/2013.1/901 2013/11/27
 27 29  0  0  0  0  0  0  0  0999 V2000
   50.8961   52.4694   28.0857 N   0  0  0  0  0  0  0  0  0  0  0  0
   50.7886   53.8501   28.5749 C   0  0  2  0  0  0  0  0  0  0  0  0
   49.7742   53.8854   29.6782 C   0  0  0  0  0  0  0  0  0  0  0  0
   48.6978   53.3280   29.5341 O   0  0  0  0  0  0  0  0  0  0  0  0
   50.3423   54.7846   27.4405 C   0  0  0  0  0  0  0  0  0  0  0  0
   50.3289   56.2198   27.9585 C   0  0  0  0  0  0  0  0  0  0  0  0
   48.7446   56.7031   28.7160 S   0  0  2  0  0  0  0  0  0  0  0  0
   47.7325   57.2904   27.3227 C   0  0  0  0  0  0  0  0  0  0  0  0
   48.9101   58.2865   29.6167 C   0  0  0  0  0  0  0  0  0  0  0  0
   47.5810   58.4219   30.3182 C   0  0  1  0  0  0  0  0  0  0  0  0
   47.5631   57.3536   31.2066 O   0  0  0  0  0  0  0  0  0  0  0  0
   47.2753   59.5937   31.2523 C   0  0  1  0  0  0  0  0  0  0  0  0
   46.6935   60.6760   30.5838 O   0  0  0  0  0  0  0  0  0  0  0  0
   46.2836   58.8404   32.2622 C   0  0  1  0  0  0  0  0  0  0  0  0
   45.1557   58.2141   31.6336 O   0  0  0  0  0  0  0  0  0  0  0  0
   47.4246   57.9006   32.5768 C   0  0  1  0  0  0  0  0  0  0  0  0
   50.0362   54.4593   30.7235 O   0  0  0  0  0  0  0  0  0  0  0  0
   44.4461   54.5013   34.7772 N   0  0  0  0  0  0  0  0  0  0  0  0
   44.1601   55.6309   34.1278 C   0  0  0  0  0  0  0  0  0  0  0  0
   45.1089   56.3770   33.5635 N   0  0  0  0  0  0  0  0  0  0  0  0
   46.4062   56.0884   33.7328 C   0  0  0  0  0  0  0  0  0  0  0  0
   46.7571   54.9199   34.4812 C   0  0  0  0  0  0  0  0  0  0  0  0
   45.6986   54.1221   34.9963 C   0  0  0  0  0  0  0  0  0  0  0  0
   45.9482   52.9813   35.7062 N   0  0  0  0  0  0  0  0  0  0  0  0
   48.1026   54.8570   34.5100 N   0  0  0  0  0  0  0  0  0  0  0  0
   48.6024   55.8808   33.8536 C   0  0  0  0  0  0  0  0  0  0  0  0
   47.6108   56.6756   33.3329 N   0  0  0  0  0  0  0  0  0  0  0  0
  2  1  1  6  0  0  0
  2  3  1  0  0  0  0
  2  5  1  0  0  0  0
  3  4  1  0  0  0  0
  3 17  1  0  0  0  0
  5  6  1  0  0  0  0
  7  6  1  6  0  0  0
  7  8  1  0  0  0  0
  7  9  1  0  0  0  0
 10  9  1  1  0  0  0
 10 11  1  0  0  0  0
 10 12  1  0  0  0  0
 11 16  1  0  0  0  0
 12 13  1  6  0  0  0
 12 14  1  0  0  0  0
 14 15  1  6  0  0  0
 14 16  1  0  0  0  0
 16 27  1  1  0  0  0
 18 19  2  0  0  0  0
 18 23  1  0  0  0  0
 19 20  1  0  0  0  0
 20 21  2  0  0  0  0
 21 22  1  0  0  0  0
 21 27  1  0  0  0  0
 22 23  2  0  0  0  0
 22 25  1  0  0  0  0
 23 24  1  0  0  0  0
 25 26  2  0  0  0  0
 26 27  1  0  0  0  0
M  END
>  <CHROM.1>
-46.85897206,-176.35139423,-88.54492292,-86.67041221,-172.58644502,64.55383599
-98.09075826,47.73949917,56.14568367,31.28830160,-0.41553537,-0.91606944
2.57767403

>  <Name>
ligand

>  <RI>
0

>  <Rbt.Current_Directory>
/home/itssahil/PROJECTS/Mol_Feturizer/New_Systems/rnas/3IQN

>  <Rbt.Executable>
rbdock ($Id: //depot/dev/client3/rdock/2013.1/src/exe/rbdock.cxx#4 $)

>  <Rbt.Library>
libRbt.so (2013.1, Build901 2013/11/27)

>  <Rbt.Parameter_File>
/export/apps/rDock/src/rDock_2013.1_src/data/scripts/dock_solv.prm

>  <Rbt.Receptor>
prm/pocket_docking_6.prm

>  <SCORE>
-17.1764

>  <SCORE.INTER>
-13.7472

>  <SCORE.INTER.CONST>
1

>  <SCORE.INTER.POLAR>
0

>  <SCORE.INTER.ROT>
7

>  <SCORE.INTER.SOLV>
14.2299

>  <SCORE.INTER.VDW>
-22.1747

>  <SCORE.INTER.norm>
-0.509155

>  <SCORE.INTRA>
-3.42924

>  <SCORE.INTRA.DIHEDRAL>
-2.67591

>  <SCORE.INTRA.DIHEDRAL.0>
10.0365

>  <SCORE.INTRA.POLAR>
0

>  <SCORE.INTRA.POLAR.0>
0

>  <SCORE.INTRA.REPUL>
0

>  <SCORE.INTRA.REPUL.0>
0

>  <SCORE.INTRA.SOLV>
-0.797792

>  <SCORE.INTRA.SOLV.lig_0>
-48.6728

>  <SCORE.INTRA.VDW>
-1.69239

>  <SCORE.INTRA.VDW.0>
-1.10662

>  <SCORE.INTRA.norm>
-0.127009

>  <SCORE.RESTR>
0

>  <SCORE.RESTR.CAVITY>
0

>  <SCORE.RESTR.norm>
0

>  <SCORE.SYSTEM>
0

>  <SCORE.SYSTEM.CONST>
0

>  <SCORE.SYSTEM.DIHEDRAL>
0

>  <SCORE.SYSTEM.SOLV>
0

>  <SCORE.SYSTEM.norm>
0

>  <SCORE.heavy>
27

>  <SCORE.norm>
-0.636164

>  <RMSD>
5.139

$$$$
ligand
 OpenBabel11021811483D
libRbt.so/2013.1/901 2013/11/27
 27 29  0  0  0  0  0  0  0  0999 V2000
   47.5490   58.0815   28.7666 N   0  0  0  0  0  0  0  0  0  0  0  0
   48.8179   57.4306   29.1182 C   0  0  2  0  0  0  0  0  0  0  0  0
   48.6676   55.9536   28.9100 C   0  0  0  0  0  0  0  0  0  0  0  0
   49.5963   55.3049   28.4552 O   0  0  0  0  0  0  0  0  0  0  0  0
   49.1694   57.7062   30.5878 C   0  0  0  0  0  0  0  0  0  0  0  0
   47.9304   57.4673   31.4458 C   0  0  0  0  0  0  0  0  0  0  0  0
   48.2296   57.6854   33.2291 S   0  0  2  0  0  0  0  0  0  0  0  0
   49.5016   58.9830   33.3235 C   0  0  0  0  0  0  0  0  0  0  0  0
   49.2112   56.2949   33.8992 C   0  0  0  0  0  0  0  0  0  0  0  0
   48.2948   55.1100   33.7170 C   0  0  1  0  0  0  0  0  0  0  0  0
   48.5799   54.6630   32.4326 O   0  0  0  0  0  0  0  0  0  0  0  0
   48.4655   53.8238   34.5267 C   0  0  1  0  0  0  0  0  0  0  0  0
   47.7247   53.8337   35.7133 O   0  0  0  0  0  0  0  0  0  0  0  0
   47.9312   52.7810   33.4322 C   0  0  1  0  0  0  0  0  0  0  0  0
   46.6109   53.0561   32.9416 O   0  0  0  0  0  0  0  0  0  0  0  0
   49.0450   53.2594   32.5295 C   0  0  1  0  0  0  0  0  0  0  0  0
   47.6204   55.4029   29.2115 O   0  0  0  0  0  0  0  0  0  0  0  0
   46.7746   52.0623   28.2074 N   0  0  0  0  0  0  0  0  0  0  0  0
   46.2958   52.1875   29.4462 C   0  0  0  0  0  0  0  0  0  0  0  0
   47.0673   52.5704   30.4628 N   0  0  0  0  0  0  0  0  0  0  0  0
   48.3888   52.7251   30.3066 C   0  0  0  0  0  0  0  0  0  0  0  0
   48.9528   52.5340   29.0050 C   0  0  0  0  0  0  0  0  0  0  0  0
   48.0678   52.1986   27.9436 C   0  0  0  0  0  0  0  0  0  0  0  0
   48.5234   52.0166   26.6681 N   0  0  0  0  0  0  0  0  0  0  0  0
   50.2799   52.7400   29.1140 N   0  0  0  0  0  0  0  0  0  0  0  0
   50.5758   53.0332   30.3611 C   0  0  0  0  0  0  0  0  0  0  0  0
   49.4529   53.0570   31.1512 N   0  0  0  0  0  0  0  0  0  0  0  0
  2  1  1  1  0  0  0
  2  3  1  0  0  0  0
  2  5  1  0  0  0  0
  3  4  1  0  0  0  0
  3 17  1  0  0  0  0
  5  6  1  0  0  0  0
  7  6  1  6  0  0  0
  7  8  1  0  0  0  0
  7  9  1  0  0  0  0
 10  9  1  1  0  0  0
 10 11  1  0  0  0  0
 10 12  1  0  0  0  0
 11 16  1  0  0  0  0
 12 13  1  1  0  0  0
 12 14  1  0  0  0  0
 14 15  1  6  0  0  0
 14 16  1  0  0  0  0
 16 27  1  6  0  0  0
 18 19  2  0  0  0  0
 18 23  1  0  0  0  0
 19 20  1  0  0  0  0
 20 21  2  0  0  0  0
 21 22  1  0  0  0  0
 21 27  1  0  0  0  0
 22 23  2  0  0  0  0
 22 25  1  0  0  0  0
 23 24  1  0  0  0  0
 25 26  2  0  0  0  0
 26 27  1  0  0  0  0
M  END
>  <CHROM.1>
141.74474957,46.56368945,177.33883948,32.33740665,-64.43742331,87.67404453
-82.68243328,48.40015606,54.71790339,31.08357778,-1.28871691,-1.44127082
-1.97248186

>  <Name>
ligand

>  <RI>
0

>  <Rbt.Current_Directory>
/home/itssahil/PROJECTS/Mol_Feturizer/New_Systems/rnas/3IQN

>  <Rbt.Executable>
rbdock ($Id: //depot/dev/client3/rdock/2013.1/src/exe/rbdock.cxx#4 $)

>  <Rbt.Library>
libRbt.so (2013.1, Build901 2013/11/27)

>  <Rbt.Parameter_File>
/export/apps/rDock/src/rDock_2013.1_src/data/scripts/dock_solv.prm

>  <Rbt.Receptor>
prm/pocket_docking_5.prm

>  <SCORE>
-16.7163

>  <SCORE.INTER>
-13.095

>  <SCORE.INTER.CONST>
1

>  <SCORE.INTER.POLAR>
0

>  <SCORE.INTER.ROT>
7

>  <SCORE.INTER.SOLV>
11.549

>  <SCORE.INTER.VDW>
-20.8463

>  <SCORE.INTER.norm>
-0.484999

>  <SCORE.INTRA>
-3.62135

>  <SCORE.INTRA.DIHEDRAL>
-2.83476

>  <SCORE.INTRA.DIHEDRAL.0>
10.0365

>  <SCORE.INTRA.POLAR>
0

>  <SCORE.INTRA.POLAR.0>
0

>  <SCORE.INTRA.REPUL>
0

>  <SCORE.INTRA.REPUL.0>
0

>  <SCORE.INTRA.SOLV>
0.194161

>  <SCORE.INTRA.SOLV.lig_0>
-48.6728

>  <SCORE.INTRA.VDW>
-2.30106

>  <SCORE.INTRA.VDW.0>
-1.10662

>  <SCORE.INTRA.norm>
-0.134124

>  <SCORE.RESTR>
0

>  <SCORE.RESTR.CAVITY>
0

>  <SCORE.RESTR.norm>
0

>  <SCORE.SYSTEM>
0

>  <SCORE.SYSTEM.CONST>
0

>  <SCORE.SYSTEM.DIHEDRAL>
0

>  <SCORE.SYSTEM.SOLV>
0

>  <SCORE.SYSTEM.norm>
0

>  <SCORE.heavy>
27

>  <SCORE.norm>
-0.619123

>  <RMSD>
5.160

$$$$
ligand
 OpenBabel11021811483D
libRbt.so/2013.1/901 2013/11/27
 27 29  0  0  0  0  0  0  0  0999 V2000
   44.4043   56.7593   27.9257 N   0  0  0  0  0  0  0  0  0  0  0  0
   45.8272   57.0894   27.7724 C   0  0  2  0  0  0  0  0  0  0  0  0
   46.6194   55.8184   27.8383 C   0  0  0  0  0  0  0  0  0  0  0  0
   47.4965   55.6039   27.0168 O   0  0  0  0  0  0  0  0  0  0  0  0
   46.2801   58.0326   28.8970 C   0  0  0  0  0  0  0  0  0  0  0  0
   45.7587   57.5004   30.2286 C   0  0  0  0  0  0  0  0  0  0  0  0
   46.2435   58.5205   31.6575 S   0  0  2  0  0  0  0  0  0  0  0  0
   45.8766   60.2275   31.1457 C   0  0  0  0  0  0  0  0  0  0  0  0
   48.0640   58.6575   31.7717 C   0  0  0  0  0  0  0  0  0  0  0  0
   48.4217   57.6157   32.8031 C   0  0  1  0  0  0  0  0  0  0  0  0
   48.3326   56.4154   32.1088 O   0  0  0  0  0  0  0  0  0  0  0  0
   49.8275   57.5150   33.3968 C   0  0  1  0  0  0  0  0  0  0  0  0
   49.9769   58.2821   34.5569 O   0  0  0  0  0  0  0  0  0  0  0  0
   49.8654   55.9324   33.6512 C   0  0  1  0  0  0  0  0  0  0  0  0
   48.7923   55.4334   34.4630 O   0  0  0  0  0  0  0  0  0  0  0  0
   49.6582   55.7554   32.1646 C   0  0  1  0  0  0  0  0  0  0  0  0
   46.3937   55.0093   28.7245 O   0  0  0  0  0  0  0  0  0  0  0  0
   50.2765   54.8882   27.2520 N   0  0  0  0  0  0  0  0  0  0  0  0
   50.5161   55.9735   27.9896 C   0  0  0  0  0  0  0  0  0  0  0  0
   50.3297   55.9821   29.3089 N   0  0  0  0  0  0  0  0  0  0  0  0
   49.7728   54.9365   29.9344 C   0  0  0  0  0  0  0  0  0  0  0  0
   49.4385   53.7760   29.1662 C   0  0  0  0  0  0  0  0  0  0  0  0
   49.7295   53.7980   27.7744 C   0  0  0  0  0  0  0  0  0  0  0  0
   49.4580   52.7243   26.9738 N   0  0  0  0  0  0  0  0  0  0  0  0
   48.8961   52.8814   30.0153 N   0  0  0  0  0  0  0  0  0  0  0  0
   48.8646   53.3917   31.2266 C   0  0  0  0  0  0  0  0  0  0  0  0
   49.4048   54.6540   31.2537 N   0  0  0  0  0  0  0  0  0  0  0  0
  2  1  1  1  0  0  0
  2  3  1  0  0  0  0
  2  5  1  0  0  0  0
  3  4  1  0  0  0  0
  3 17  1  0  0  0  0
  5  6  1  0  0  0  0
  7  6  1  6  0  0  0
  7  8  1  0  0  0  0
  7  9  1  0  0  0  0
 10  9  1  6  0  0  0
 10 11  1  0  0  0  0
 10 12  1  0  0  0  0
 11 16  1  0  0  0  0
 12 13  1  1  0  0  0
 12 14  1  0  0  0  0
 14 15  1  1  0  0  0
 14 16  1  0  0  0  0
 16 27  1  1  0  0  0
 18 19  2  0  0  0  0
 18 23  1  0  0  0  0
 19 20  1  0  0  0  0
 20 21  2  0  0  0  0
 21 22  1  0  0  0  0
 21 27  1  0  0  0  0
 22 23  2  0  0  0  0
 22 25  1  0  0  0  0
 23 24  1  0  0  0  0
 25 26  2  0  0  0  0
 26 27  1  0  0  0  0
M  END
>  <CHROM.1>
133.78249515,46.28933592,179.32073351,47.14759808,-98.33573346,76.91998270
93.01530988,48.17933877,56.20650221,30.37285468,1.49443822,0.71460396,-2.09410913

>  <Name>
ligand

>  <RI>
0

>  <Rbt.Current_Directory>
/home/itssahil/PROJECTS/Mol_Feturizer/New_Systems/rnas/3IQN

>  <Rbt.Executable>
rbdock ($Id: //depot/dev/client3/rdock/2013.1/src/exe/rbdock.cxx#4 $)

>  <Rbt.Library>
libRbt.so (2013.1, Build901 2013/11/27)

>  <Rbt.Parameter_File>
/export/apps/rDock/src/rDock_2013.1_src/data/scripts/dock_solv.prm

>  <Rbt.Receptor>
prm/pocket_docking_3.prm

>  <SCORE>
-15.5967

>  <SCORE.INTER>
-11.8354

>  <SCORE.INTER.CONST>
1

>  <SCORE.INTER.POLAR>
0

>  <SCORE.INTER.ROT>
7

>  <SCORE.INTER.SOLV>
13.5617

>  <SCORE.INTER.VDW>
-20.6775

>  <SCORE.INTER.norm>
-0.43835

>  <SCORE.INTRA>
-3.7613

>  <SCORE.INTRA.DIHEDRAL>
-2.68163

>  <SCORE.INTRA.DIHEDRAL.0>
10.0365

>  <SCORE.INTRA.POLAR>
0

>  <SCORE.INTRA.POLAR.0>
0

>  <SCORE.INTRA.REPUL>
0

>  <SCORE.INTRA.REPUL.0>
0

>  <SCORE.INTRA.SOLV>
0.225556

>  <SCORE.INTRA.SOLV.lig_0>
-48.6728

>  <SCORE.INTRA.VDW>
-2.53326

>  <SCORE.INTRA.VDW.0>
-1.10662

>  <SCORE.INTRA.norm>
-0.139308

>  <SCORE.RESTR>
0

>  <SCORE.RESTR.CAVITY>
0

>  <SCORE.RESTR.norm>
0

>  <SCORE.SYSTEM>
0

>  <SCORE.SYSTEM.CONST>
0

>  <SCORE.SYSTEM.DIHEDRAL>
0

>  <SCORE.SYSTEM.SOLV>
0

>  <SCORE.SYSTEM.norm>
0

>  <SCORE.heavy>
27

>  <SCORE.norm>
-0.577657

>  <RMSD>
5.164

$$$$
ligand
 OpenBabel11021811483D
libRbt.so/2013.1/901 2013/11/27
 27 29  0  0  0  0  0  0  0  0999 V2000
   45.9463   57.0712   29.4231 N   0  0  0  0  0  0  0  0  0  0  0  0
   46.9424   58.1505   29.4214 C   0  0  2  0  0  0  0  0  0  0  0  0
   48.1713   57.6616   28.7155 C   0  0  0  0  0  0  0  0  0  0  0  0
   48.4366   56.4701   28.7088 O   0  0  0  0  0  0  0  0  0  0  0  0
   47.3034   58.5455   30.8612 C   0  0  0  0  0  0  0  0  0  0  0  0
   47.8426   57.3182   31.5901 C   0  0  0  0  0  0  0  0  0  0  0  0
   48.3183   57.6505   33.3166 S   0  0  2  0  0  0  0  0  0  0  0  0
   49.7102   58.8156   33.1907 C   0  0  0  0  0  0  0  0  0  0  0  0
   49.2202   56.2273   34.0285 C   0  0  0  0  0  0  0  0  0  0  0  0
   48.2932   55.0668   33.7625 C   0  0  1  0  0  0  0  0  0  0  0  0
   48.6117   54.6762   32.4676 O   0  0  0  0  0  0  0  0  0  0  0  0
   48.4201   53.7414   34.5151 C   0  0  1  0  0  0  0  0  0  0  0  0
   47.6429   53.7073   35.6777 O   0  0  0  0  0  0  0  0  0  0  0  0
   47.9053   52.7598   33.3566 C   0  0  1  0  0  0  0  0  0  0  0  0
   46.6050   53.0783   32.8396 O   0  0  0  0  0  0  0  0  0  0  0  0
   49.0534   53.2624   32.5120 C   0  0  1  0  0  0  0  0  0  0  0  0
   48.8939   58.4573   28.1362 O   0  0  0  0  0  0  0  0  0  0  0  0
   46.9275   52.1458   28.0959 N   0  0  0  0  0  0  0  0  0  0  0  0
   46.4147   52.2151   29.3254 C   0  0  0  0  0  0  0  0  0  0  0  0
   47.1490   52.5859   30.3735 N   0  0  0  0  0  0  0  0  0  0  0  0
   48.4687   52.7844   30.2565 C   0  0  0  0  0  0  0  0  0  0  0  0
   49.0702   52.6538   28.9643 C   0  0  0  0  0  0  0  0  0  0  0  0
   48.2222   52.3287   27.8701 C   0  0  0  0  0  0  0  0  0  0  0  0
   48.7144   52.2032   26.6014 N   0  0  0  0  0  0  0  0  0  0  0  0
   50.3873   52.8947   29.1141 N   0  0  0  0  0  0  0  0  0  0  0  0
   50.6435   53.1542   30.3774 C   0  0  0  0  0  0  0  0  0  0  0  0
   49.5011   53.1186   31.1387 N   0  0  0  0  0  0  0  0  0  0  0  0
  2  1  1  1  0  0  0
  2  3  1  0  0  0  0
  2  5  1  0  0  0  0
  3  4  1  0  0  0  0
  3 17  1  0  0  0  0
  5  6  1  0  0  0  0
  7  6  1  6  0  0  0
  7  8  1  0  0  0  0
  7  9  1  0  0  0  0
 10  9  1  1  0  0  0
 10 11  1  0  0  0  0
 10 12  1  0  0  0  0
 11 16  1  0  0  0  0
 12 13  1  1  0  0  0
 12 14  1  0  0  0  0
 14 15  1  6  0  0  0
 14 16  1  0  0  0  0
 16 27  1  6  0  0  0
 18 19  2  0  0  0  0
 18 23  1  0  0  0  0
 19 20  1  0  0  0  0
 20 21  2  0  0  0  0
 21 22  1  0  0  0  0
 21 27  1  0  0  0  0
 22 23  2  0  0  0  0
 22 25  1  0  0  0  0
 23 24  1  0  0  0  0
 25 26  2  0  0  0  0
 26 27  1  0  0  0  0
M  END
>  <CHROM.1>
-27.66274307,58.42699655,179.75598163,-64.81480351,-52.93286486,84.82002824
-85.38417332,48.24790628,54.96778765,31.07482743,1.44399910,-1.53336589,0.64825348

>  <Name>
ligand

>  <RI>
0

>  <Rbt.Current_Directory>
/home/itssahil/PROJECTS/Mol_Feturizer/New_Systems/rnas/3IQN

>  <Rbt.Executable>
rbdock ($Id: //depot/dev/client3/rdock/2013.1/src/exe/rbdock.cxx#4 $)

>  <Rbt.Library>
libRbt.so (2013.1, Build901 2013/11/27)

>  <Rbt.Parameter_File>
/export/apps/rDock/src/rDock_2013.1_src/data/scripts/dock_solv.prm

>  <Rbt.Receptor>
prm/pocket_docking_5.prm

>  <SCORE>
-18.9702

>  <SCORE.INTER>
-16.0838

>  <SCORE.INTER.CONST>
1

>  <SCORE.INTER.POLAR>
0

>  <SCORE.INTER.ROT>
7

>  <SCORE.INTER.SOLV>
8.97471

>  <SCORE.INTER.VDW>
-21.9808

>  <SCORE.INTER.norm>
-0.595697

>  <SCORE.INTRA>
-2.90277

>  <SCORE.INTRA.DIHEDRAL>
-4.4963

>  <SCORE.INTRA.DIHEDRAL.0>
10.0365

>  <SCORE.INTRA.POLAR>
0

>  <SCORE.INTRA.POLAR.0>
0

>  <SCORE.INTRA.REPUL>
0

>  <SCORE.INTRA.REPUL.0>
0

>  <SCORE.INTRA.SOLV>
-0.0960024

>  <SCORE.INTRA.SOLV.lig_0>
-48.6728

>  <SCORE.INTRA.VDW>
-0.606614

>  <SCORE.INTRA.VDW.0>
-1.10662

>  <SCORE.INTRA.norm>
-0.10751

>  <SCORE.RESTR>
0.0164151

>  <SCORE.RESTR.CAVITY>
0.0164151

>  <SCORE.RESTR.norm>
0.000607967

>  <SCORE.SYSTEM>
0

>  <SCORE.SYSTEM.CONST>
0

>  <SCORE.SYSTEM.DIHEDRAL>
0

>  <SCORE.SYSTEM.SOLV>
0

>  <SCORE.SYSTEM.norm>
0

>  <SCORE.heavy>
27

>  <SCORE.norm>
-0.702599

>  <RMSD>
5.165

$$$$
ligand
 OpenBabel11021811483D
libRbt.so/2013.1/901 2013/11/27
 27 29  0  0  0  0  0  0  0  0999 V2000
   45.9918   57.0872   29.4332 N   0  0  0  0  0  0  0  0  0  0  0  0
   46.9070   58.2357   29.4072 C   0  0  2  0  0  0  0  0  0  0  0  0
   48.1306   57.8505   28.6315 C   0  0  0  0  0  0  0  0  0  0  0  0
   49.1876   58.4262   28.8354 O   0  0  0  0  0  0  0  0  0  0  0  0
   47.3107   58.6286   30.8362 C   0  0  0  0  0  0  0  0  0  0  0  0
   47.8743   57.4010   31.5459 C   0  0  0  0  0  0  0  0  0  0  0  0
   48.3158   57.7079   33.2861 S   0  0  2  0  0  0  0  0  0  0  0  0
   49.7035   58.8819   33.2051 C   0  0  0  0  0  0  0  0  0  0  0  0
   49.2118   56.2780   33.9921 C   0  0  0  0  0  0  0  0  0  0  0  0
   48.2815   55.1219   33.7180 C   0  0  1  0  0  0  0  0  0  0  0  0
   48.6052   54.7337   32.4237 O   0  0  0  0  0  0  0  0  0  0  0  0
   48.3993   53.7940   34.4675 C   0  0  1  0  0  0  0  0  0  0  0  0
   47.6160   53.7597   35.6260 O   0  0  0  0  0  0  0  0  0  0  0  0
   47.8867   52.8176   33.3037 C   0  0  1  0  0  0  0  0  0  0  0  0
   46.5904   53.1428   32.7808 O   0  0  0  0  0  0  0  0  0  0  0  0
   49.0411   53.3181   32.4664 C   0  0  1  0  0  0  0  0  0  0  0  0
   48.0678   56.9503   27.8090 O   0  0  0  0  0  0  0  0  0  0  0  0
   46.9580   52.0986   28.0570 N   0  0  0  0  0  0  0  0  0  0  0  0
   46.4413   52.1627   29.2852 C   0  0  0  0  0  0  0  0  0  0  0  0
   47.1620   52.5649   30.3311 N   0  0  0  0  0  0  0  0  0  0  0  0
   48.4752   52.8029   30.2143 C   0  0  0  0  0  0  0  0  0  0  0  0
   49.0826   52.6798   28.9241 C   0  0  0  0  0  0  0  0  0  0  0  0
   48.2469   52.3193   27.8315 C   0  0  0  0  0  0  0  0  0  0  0  0
   48.7449   52.1981   26.5647 N   0  0  0  0  0  0  0  0  0  0  0  0
   50.3915   52.9624   29.0737 N   0  0  0  0  0  0  0  0  0  0  0  0
   50.6374   53.2405   30.3351 C   0  0  0  0  0  0  0  0  0  0  0  0
   49.4953   53.1763   31.0951 N   0  0  0  0  0  0  0  0  0  0  0  0
  2  1  1  1  0  0  0
  2  3  1  0  0  0  0
  2  5  1  0  0  0  0
  3  4  1  0  0  0  0
  3 17  1  0  0  0  0
  5  6  1  0  0  0  0
  7  6  1  6  0  0  0
  7  8  1  0  0  0  0
  7  9  1  0  0  0  0
 10  9  1  1  0  0  0
 10 11  1  0  0  0  0
 10 12  1  0  0  0  0
 11 16  1  0  0  0  0
 12 13  1  1  0  0  0
 12 14  1  0  0  0  0
 14 15  1  6  0  0  0
 14 16  1  0  0  0  0
 16 27  1  6  0  0  0
 18 19  2  0  0  0  0
 18 23  1  0  0  0  0
 19 20  1  0  0  0  0
 20 21  2  0  0  0  0
 21 22  1  0  0  0  0
 21 27  1  0  0  0  0
 22 23  2  0  0  0  0
 22 25  1  0  0  0  0
 23 24  1  0  0  0  0
 25 26  2  0  0  0  0
 26 27  1  0  0  0  0
M  END
>  <CHROM.1>
-155.38365042,54.14387774,-177.04717618,-66.21658780,-54.17408265,85.06272306
-87.48831141,48.24514338,55.02897808,31.03195980,1.36099961,-1.53450817,0.52952771

>  <Name>
ligand

>  <RI>
0

>  <Rbt.Current_Directory>
/home/itssahil/PROJECTS/Mol_Feturizer/New_Systems/rnas/3IQN

>  <Rbt.Executable>
rbdock ($Id: //depot/dev/client3/rdock/2013.1/src/exe/rbdock.cxx#4 $)

>  <Rbt.Library>
libRbt.so (2013.1, Build901 2013/11/27)

>  <Rbt.Parameter_File>
/export/apps/rDock/src/rDock_2013.1_src/data/scripts/dock_solv.prm

>  <Rbt.Receptor>
prm/pocket_docking_3.prm

>  <SCORE>
-18.4337

>  <SCORE.INTER>
-16.4633

>  <SCORE.INTER.CONST>
1

>  <SCORE.INTER.POLAR>
0

>  <SCORE.INTER.ROT>
7

>  <SCORE.INTER.SOLV>
8.90253

>  <SCORE.INTER.VDW>
-22.2097

>  <SCORE.INTER.norm>
-0.609753

>  <SCORE.INTRA>
-1.97038

>  <SCORE.INTRA.DIHEDRAL>
-4.40886

>  <SCORE.INTRA.DIHEDRAL.0>
10.0365

>  <SCORE.INTRA.POLAR>
0

>  <SCORE.INTRA.POLAR.0>
0

>  <SCORE.INTRA.REPUL>
0

>  <SCORE.INTRA.REPUL.0>
0

>  <SCORE.INTRA.SOLV>
-0.029882

>  <SCORE.INTRA.SOLV.lig_0>
-48.6728

>  <SCORE.INTRA.VDW>
0.248996

>  <SCORE.INTRA.VDW.0>
-1.10662

>  <SCORE.INTRA.norm>
-0.0729769

>  <SCORE.RESTR>
0

>  <SCORE.RESTR.CAVITY>
0

>  <SCORE.RESTR.norm>
0

>  <SCORE.SYSTEM>
0

>  <SCORE.SYSTEM.CONST>
0

>  <SCORE.SYSTEM.DIHEDRAL>
0

>  <SCORE.SYSTEM.SOLV>
0

>  <SCORE.SYSTEM.norm>
0

>  <SCORE.heavy>
27

>  <SCORE.norm>
-0.68273

>  <RMSD>
5.173

$$$$
ligand
 OpenBabel11021811483D
libRbt.so/2013.1/901 2013/11/27
 27 29  0  0  0  0  0  0  0  0999 V2000
   45.7409   58.1855   27.9700 N   0  0  0  0  0  0  0  0  0  0  0  0
   46.8745   57.9881   28.8829 C   0  0  2  0  0  0  0  0  0  0  0  0
   48.0656   57.5655   28.0766 C   0  0  0  0  0  0  0  0  0  0  0  0
   47.9072   57.0051   27.0038 O   0  0  0  0  0  0  0  0  0  0  0  0
   46.5445   56.9000   29.9156 C   0  0  0  0  0  0  0  0  0  0  0  0
   45.4751   57.4291   30.8668 C   0  0  0  0  0  0  0  0  0  0  0  0
   46.0770   58.7410   31.9777 S   0  0  2  0  0  0  0  0  0  0  0  0
   45.8432   60.2801   31.0359 C   0  0  0  0  0  0  0  0  0  0  0  0
   47.9047   58.7437   32.0512 C   0  0  0  0  0  0  0  0  0  0  0  0
   48.2066   57.7029   33.1013 C   0  0  1  0  0  0  0  0  0  0  0  0
   47.8356   56.5062   32.5004 O   0  0  0  0  0  0  0  0  0  0  0  0
   49.6376   57.3873   33.5392 C   0  0  1  0  0  0  0  0  0  0  0  0
   50.0522   58.1682   34.6232 O   0  0  0  0  0  0  0  0  0  0  0  0
   49.4424   55.8350   33.8895 C   0  0  1  0  0  0  0  0  0  0  0  0
   48.4077   55.5656   34.8469 O   0  0  0  0  0  0  0  0  0  0  0  0
   49.0297   55.6302   32.4501 C   0  0  1  0  0  0  0  0  0  0  0  0
   49.1905   57.7984   28.4903 O   0  0  0  0  0  0  0  0  0  0  0  0
   49.9396   53.6691   27.9119 N   0  0  0  0  0  0  0  0  0  0  0  0
   50.4871   54.7070   28.5465 C   0  0  0  0  0  0  0  0  0  0  0  0
   50.1343   55.0376   29.7881 N   0  0  0  0  0  0  0  0  0  0  0  0
   49.1219   54.4157   30.4071 C   0  0  0  0  0  0  0  0  0  0  0  0
   48.4630   53.3389   29.7324 C   0  0  0  0  0  0  0  0  0  0  0  0
   48.9330   52.9833   28.4383 C   0  0  0  0  0  0  0  0  0  0  0  0
   48.3703   51.9557   27.7346 N   0  0  0  0  0  0  0  0  0  0  0  0
   47.4926   52.8918   30.5531 N   0  0  0  0  0  0  0  0  0  0  0  0
   47.4966   53.5995   31.6613 C   0  0  0  0  0  0  0  0  0  0  0  0
   48.4880   54.5496   31.6464 N   0  0  0  0  0  0  0  0  0  0  0  0
  2  1  1  6  0  0  0
  2  3  1  0  0  0  0
  2  5  1  0  0  0  0
  3  4  1  0  0  0  0
  3 17  1  0  0  0  0
  5  6  1  0  0  0  0
  7  6  1  6  0  0  0
  7  8  1  0  0  0  0
  7  9  1  0  0  0  0
 10  9  1  6  0  0  0
 10 11  1  0  0  0  0
 10 12  1  0  0  0  0
 11 16  1  0  0  0  0
 12 13  1  1  0  0  0
 12 14  1  0  0  0  0
 14 15  1  1  0  0  0
 14 16  1  0  0  0  0
 16 27  1  1  0  0  0
 18 19  2  0  0  0  0
 18 23  1  0  0  0  0
 19 20  1  0  0  0  0
 20 21  2  0  0  0  0
 21 22  1  0  0  0  0
 21 27  1  0  0  0  0
 22 23  2  0  0  0  0
 22 25  1  0  0  0  0
 23 24  1  0  0  0  0
 25 26  2  0  0  0  0
 26 27  1  0  0  0  0
M  END
>  <CHROM.1>
-25.35960590,-69.37095644,-69.75622726,87.46259137,-84.51917774,68.93789253
115.42734207,48.07628351,56.29312691,30.75143487,1.11667287,1.06644836,-1.97486787

>  <Name>
ligand

>  <RI>
0

>  <Rbt.Current_Directory>
/home/itssahil/PROJECTS/Mol_Feturizer/New_Systems/rnas/3IQN

>  <Rbt.Executable>
rbdock ($Id: //depot/dev/client3/rdock/2013.1/src/exe/rbdock.cxx#4 $)

>  <Rbt.Library>
libRbt.so (2013.1, Build901 2013/11/27)

>  <Rbt.Parameter_File>
/export/apps/rDock/src/rDock_2013.1_src/data/scripts/dock_solv.prm

>  <Rbt.Receptor>
prm/pocket_docking_2.prm

>  <SCORE>
-12.3771

>  <SCORE.INTER>
-9.6345

>  <SCORE.INTER.CONST>
1

>  <SCORE.INTER.POLAR>
0

>  <SCORE.INTER.ROT>
7

>  <SCORE.INTER.SOLV>
16.3529

>  <SCORE.INTER.VDW>
-20.1406

>  <SCORE.INTER.norm>
-0.356833

>  <SCORE.INTRA>
-3.92272

>  <SCORE.INTRA.DIHEDRAL>
-2.15786

>  <SCORE.INTRA.DIHEDRAL.0>
10.0365

>  <SCORE.INTRA.POLAR>
0

>  <SCORE.INTRA.POLAR.0>
0

>  <SCORE.INTRA.REPUL>
0

>  <SCORE.INTRA.REPUL.0>
0

>  <SCORE.INTRA.SOLV>
0.986906

>  <SCORE.INTRA.SOLV.lig_0>
-48.6728

>  <SCORE.INTRA.VDW>
-3.33724

>  <SCORE.INTRA.VDW.0>
-1.10662

>  <SCORE.INTRA.norm>
-0.145286

>  <SCORE.RESTR>
1.18011

>  <SCORE.RESTR.CAVITY>
1.18011

>  <SCORE.RESTR.norm>
0.0437078

>  <SCORE.SYSTEM>
0

>  <SCORE.SYSTEM.CONST>
0

>  <SCORE.SYSTEM.DIHEDRAL>
0

>  <SCORE.SYSTEM.SOLV>
0

>  <SCORE.SYSTEM.norm>
0

>  <SCORE.heavy>
27

>  <SCORE.norm>
-0.458411

>  <RMSD>
5.175

$$$$
ligand
 OpenBabel11021811483D
libRbt.so/2013.1/901 2013/11/27
 27 29  0  0  0  0  0  0  0  0999 V2000
   48.5290   55.8955   28.3338 N   0  0  0  0  0  0  0  0  0  0  0  0
   47.7484   56.6227   29.3434 C   0  0  2  0  0  0  0  0  0  0  0  0
   47.4820   58.0064   28.8317 C   0  0  0  0  0  0  0  0  0  0  0  0
   46.5263   58.6382   29.2531 O   0  0  0  0  0  0  0  0  0  0  0  0
   48.5304   56.7076   30.6628 C   0  0  0  0  0  0  0  0  0  0  0  0
   47.5849   57.1660   31.7692 C   0  0  0  0  0  0  0  0  0  0  0  0
   48.4388   57.6099   33.3156 S   0  0  2  0  0  0  0  0  0  0  0  0
   49.6122   58.9134   32.8316 C   0  0  0  0  0  0  0  0  0  0  0  0
   49.6467   56.3191   33.7856 C   0  0  0  0  0  0  0  0  0  0  0  0
   48.7705   55.1923   34.2752 C   0  0  1  0  0  0  0  0  0  0  0  0
   48.2526   54.6424   33.1090 O   0  0  0  0  0  0  0  0  0  0  0  0
   49.3524   53.9537   34.9580 C   0  0  1  0  0  0  0  0  0  0  0  0
   49.4334   54.0944   36.3474 O   0  0  0  0  0  0  0  0  0  0  0  0
   48.2639   52.8811   34.4728 C   0  0  1  0  0  0  0  0  0  0  0  0
   46.9084   53.2156   34.8048 O   0  0  0  0  0  0  0  0  0  0  0  0
   48.6608   53.2190   33.0541 C   0  0  1  0  0  0  0  0  0  0  0  0
   48.2327   58.5017   28.0059 O   0  0  0  0  0  0  0  0  0  0  0  0
   50.6892   52.9529   28.4624 N   0  0  0  0  0  0  0  0  0  0  0  0
   51.2165   53.3016   29.6371 C   0  0  0  0  0  0  0  0  0  0  0  0
   50.5106   53.2551   30.7662 N   0  0  0  0  0  0  0  0  0  0  0  0
   49.2006   52.9749   30.7505 C   0  0  0  0  0  0  0  0  0  0  0  0
   48.5812   52.6604   29.4991 C   0  0  0  0  0  0  0  0  0  0  0  0
   49.4024   52.6537   28.3381 C   0  0  0  0  0  0  0  0  0  0  0  0
   48.8926   52.3465   27.1079 N   0  0  0  0  0  0  0  0  0  0  0  0
   47.2784   52.4254   29.7497 N   0  0  0  0  0  0  0  0  0  0  0  0
   47.0470   52.5729   31.0355 C   0  0  0  0  0  0  0  0  0  0  0  0
   48.1937   52.8975   31.7179 N   0  0  0  0  0  0  0  0  0  0  0  0
  2  1  1  6  0  0  0
  2  3  1  0  0  0  0
  2  5  1  0  0  0  0
  3  4  1  0  0  0  0
  3 17  1  0  0  0  0
  5  6  1  0  0  0  0
  7  6  1  6  0  0  0
  7  8  1  0  0  0  0
  7  9  1  0  0  0  0
 10  9  1  6  0  0  0
 10 11  1  0  0  0  0
 10 12  1  0  0  0  0
 11 16  1  0  0  0  0
 12 13  1  1  0  0  0
 12 14  1  0  0  0  0
 14 15  1  6  0  0  0
 14 16  1  0  0  0  0
 16 27  1  6  0  0  0
 18 19  2  0  0  0  0
 18 23  1  0  0  0  0
 19 20  1  0  0  0  0
 20 21  2  0  0  0  0
 21 22  1  0  0  0  0
 21 27  1  0  0  0  0
 22 23  2  0  0  0  0
 22 25  1  0  0  0  0
 23 24  1  0  0  0  0
 25 26  2  0  0  0  0
 26 27  1  0  0  0  0
M  END
>  <CHROM.1>
156.10241121,-166.85573796,-169.17850948,57.47777591,-73.44259419,75.49243463
96.87814992,48.59850408,55.00708099,31.41668973,1.68516137,1.41870181,-1.59415975

>  <Name>
ligand

>  <RI>
0

>  <Rbt.Current_Directory>
/home/itssahil/PROJECTS/Mol_Feturizer/New_Systems/rnas/3IQN

>  <Rbt.Executable>
rbdock ($Id: //depot/dev/client3/rdock/2013.1/src/exe/rbdock.cxx#4 $)

>  <Rbt.Library>
libRbt.so (2013.1, Build901 2013/11/27)

>  <Rbt.Parameter_File>
/export/apps/rDock/src/rDock_2013.1_src/data/scripts/dock_solv.prm

>  <Rbt.Receptor>
prm/pocket_docking_3.prm

>  <SCORE>
-21.986

>  <SCORE.INTER>
-17.1718

>  <SCORE.INTER.CONST>
1

>  <SCORE.INTER.POLAR>
0

>  <SCORE.INTER.ROT>
7

>  <SCORE.INTER.SOLV>
8.64287

>  <SCORE.INTER.VDW>
-22.5955

>  <SCORE.INTER.norm>
-0.635993

>  <SCORE.INTRA>
-4.81417

>  <SCORE.INTRA.DIHEDRAL>
-4.92069

>  <SCORE.INTRA.DIHEDRAL.0>
10.0365

>  <SCORE.INTRA.POLAR>
0

>  <SCORE.INTRA.POLAR.0>
0

>  <SCORE.INTRA.REPUL>
0

>  <SCORE.INTRA.REPUL.0>
0

>  <SCORE.INTRA.SOLV>
1.13348

>  <SCORE.INTRA.SOLV.lig_0>
-48.6728

>  <SCORE.INTRA.VDW>
-2.92056

>  <SCORE.INTRA.VDW.0>
-1.10662

>  <SCORE.INTRA.norm>
-0.178303

>  <SCORE.RESTR>
0

>  <SCORE.RESTR.CAVITY>
0

>  <SCORE.RESTR.norm>
0

>  <SCORE.SYSTEM>
0

>  <SCORE.SYSTEM.CONST>
0

>  <SCORE.SYSTEM.DIHEDRAL>
0

>  <SCORE.SYSTEM.SOLV>
0

>  <SCORE.SYSTEM.norm>
0

>  <SCORE.heavy>
27

>  <SCORE.norm>
-0.814296

>  <RMSD>
5.177

$$$$
ligand
 OpenBabel11021811483D
libRbt.so/2013.1/901 2013/11/27
 27 29  0  0  0  0  0  0  0  0999 V2000
   46.9193   55.7559   29.3225 N   0  0  0  0  0  0  0  0  0  0  0  0
   47.8983   56.8509   29.3262 C   0  0  2  0  0  0  0  0  0  0  0  0
   48.9025   56.5938   28.2432 C   0  0  0  0  0  0  0  0  0  0  0  0
   49.8722   55.8867   28.4669 O   0  0  0  0  0  0  0  0  0  0  0  0
   48.6160   56.9201   30.6825 C   0  0  0  0  0  0  0  0  0  0  0  0
   47.5909   57.2317   31.7689 C   0  0  0  0  0  0  0  0  0  0  0  0
   48.3380   57.5777   33.3936 S   0  0  2  0  0  0  0  0  0  0  0  0
   49.5075   58.9356   33.0788 C   0  0  0  0  0  0  0  0  0  0  0  0
   49.5454   56.2797   33.8444 C   0  0  0  0  0  0  0  0  0  0  0  0
   48.6679   55.1358   34.2901 C   0  0  1  0  0  0  0  0  0  0  0  0
   48.1591   54.6243   33.1026 O   0  0  0  0  0  0  0  0  0  0  0  0
   49.2472   53.8760   34.9353 C   0  0  1  0  0  0  0  0  0  0  0  0
   49.3183   53.9705   36.3291 O   0  0  0  0  0  0  0  0  0  0  0  0
   48.1641   52.8185   34.4069 C   0  0  1  0  0  0  0  0  0  0  0  0
   46.8057   53.1397   34.7404 O   0  0  0  0  0  0  0  0  0  0  0  0
   48.5702   53.2041   33.0031 C   0  0  1  0  0  0  0  0  0  0  0  0
   48.7372   57.0810   27.1359 O   0  0  0  0  0  0  0  0  0  0  0  0
   50.6315   53.0919   28.4198 N   0  0  0  0  0  0  0  0  0  0  0  0
   51.1500   53.4020   29.6090 C   0  0  0  0  0  0  0  0  0  0  0  0
   50.4362   53.3175   30.7309 N   0  0  0  0  0  0  0  0  0  0  0  0
   49.1266   53.0369   30.6966 C   0  0  0  0  0  0  0  0  0  0  0  0
   48.5165   52.7634   29.4311 C   0  0  0  0  0  0  0  0  0  0  0  0
   49.3460   52.7959   28.2764 C   0  0  0  0  0  0  0  0  0  0  0  0
   48.8453   52.5292   27.0331 N   0  0  0  0  0  0  0  0  0  0  0  0
   47.2123   52.5192   29.6644 N   0  0  0  0  0  0  0  0  0  0  0  0
   46.9715   52.6238   30.9528 C   0  0  0  0  0  0  0  0  0  0  0  0
   48.1129   52.9266   31.6537 N   0  0  0  0  0  0  0  0  0  0  0  0
  2  1  1  1  0  0  0
  2  3  1  0  0  0  0
  2  5  1  0  0  0  0
  3  4  1  0  0  0  0
  3 17  1  0  0  0  0
  5  6  1  0  0  0  0
  7  6  1  6  0  0  0
  7  8  1  0  0  0  0
  7  9  1  0  0  0  0
 10  9  1  6  0  0  0
 10 11  1  0  0  0  0
 10 12  1  0  0  0  0
 11 16  1  0  0  0  0
 12 13  1  1  0  0  0
 12 14  1  0  0  0  0
 14 15  1  6  0  0  0
 14 16  1  0  0  0  0
 16 27  1  6  0  0  0
 18 19  2  0  0  0  0
 18 23  1  0  0  0  0
 19 20  1  0  0  0  0
 20 21  2  0  0  0  0
 21 22  1  0  0  0  0
 21 27  1  0  0  0  0
 22 23  2  0  0  0  0
 22 25  1  0  0  0  0
 23 24  1  0  0  0  0
 25 26  2  0  0  0  0
 26 27  1  0  0  0  0
M  END
>  <CHROM.1>
-85.81620700,-62.74937609,-171.74733567,55.52340425,-77.32021132,74.95647909
96.91984838,48.68647949,54.81831695,31.35663973,-0.09784660,1.49053755,-0.00912566

>  <Name>
ligand

>  <RI>
0

>  <Rbt.Current_Directory>
/home/itssahil/PROJECTS/Mol_Feturizer/New_Systems/rnas/3IQN

>  <Rbt.Executable>
rbdock ($Id: //depot/dev/client3/rdock/2013.1/src/exe/rbdock.cxx#4 $)

>  <Rbt.Library>
libRbt.so (2013.1, Build901 2013/11/27)

>  <Rbt.Parameter_File>
/export/apps/rDock/src/rDock_2013.1_src/data/scripts/dock_solv.prm

>  <Rbt.Receptor>
prm/pocket_docking_3.prm

>  <SCORE>
-22.2958

>  <SCORE.INTER>
-16.8181

>  <SCORE.INTER.CONST>
1

>  <SCORE.INTER.POLAR>
0

>  <SCORE.INTER.ROT>
7

>  <SCORE.INTER.SOLV>
7.15196

>  <SCORE.INTER.VDW>
-21.8627

>  <SCORE.INTER.norm>
-0.622894

>  <SCORE.INTRA>
-5.47769

>  <SCORE.INTRA.DIHEDRAL>
-5.60746

>  <SCORE.INTRA.DIHEDRAL.0>
10.0365

>  <SCORE.INTRA.POLAR>
0

>  <SCORE.INTRA.POLAR.0>
0

>  <SCORE.INTRA.REPUL>
0

>  <SCORE.INTRA.REPUL.0>
0

>  <SCORE.INTRA.SOLV>
1.21261

>  <SCORE.INTRA.SOLV.lig_0>
-48.6728

>  <SCORE.INTRA.VDW>
-3.28026

>  <SCORE.INTRA.VDW.0>
-1.10662

>  <SCORE.INTRA.norm>
-0.202877

>  <SCORE.RESTR>
0

>  <SCORE.RESTR.CAVITY>
0

>  <SCORE.RESTR.norm>
0

>  <SCORE.SYSTEM>
0

>  <SCORE.SYSTEM.CONST>
0

>  <SCORE.SYSTEM.DIHEDRAL>
0

>  <SCORE.SYSTEM.SOLV>
0

>  <SCORE.SYSTEM.norm>
0

>  <SCORE.heavy>
27

>  <SCORE.norm>
-0.825771

>  <RMSD>
5.180

$$$$
ligand
 OpenBabel11021811483D
libRbt.so/2013.1/901 2013/11/27
 27 29  0  0  0  0  0  0  0  0999 V2000
   46.9454   54.4554   25.6185 N   0  0  0  0  0  0  0  0  0  0  0  0
   47.9453   55.4593   25.2318 C   0  0  2  0  0  0  0  0  0  0  0  0
   49.2837   54.7890   25.1485 C   0  0  0  0  0  0  0  0  0  0  0  0
   50.1569   55.2586   24.4365 O   0  0  0  0  0  0  0  0  0  0  0  0
   48.0018   56.5852   26.2751 C   0  0  0  0  0  0  0  0  0  0  0  0
   48.1236   55.9662   27.6645 C   0  0  0  0  0  0  0  0  0  0  0  0
   49.5661   56.5649   28.6017 S   0  0  2  0  0  0  0  0  0  0  0  0
   50.9163   55.4404   28.1297 C   0  0  0  0  0  0  0  0  0  0  0  0
   49.4331   56.1025   30.3664 C   0  0  0  0  0  0  0  0  0  0  0  0
   48.4320   57.0945   30.9057 C   0  0  1  0  0  0  0  0  0  0  0  0
   47.6519   56.3413   31.7746 O   0  0  0  0  0  0  0  0  0  0  0  0
   48.8502   58.2559   31.8086 C   0  0  1  0  0  0  0  0  0  0  0  0
   49.1582   59.4137   31.0866 O   0  0  0  0  0  0  0  0  0  0  0  0
   47.5125   58.3695   32.6851 C   0  0  1  0  0  0  0  0  0  0  0  0
   46.3127   58.5557   31.9201 O   0  0  0  0  0  0  0  0  0  0  0  0
   47.7583   56.9442   33.1240 C   0  0  1  0  0  0  0  0  0  0  0  0
   49.4994   53.7835   25.8067 O   0  0  0  0  0  0  0  0  0  0  0  0
   48.9849   53.3327   36.3983 N   0  0  0  0  0  0  0  0  0  0  0  0
   49.7408   54.1979   35.7205 C   0  0  0  0  0  0  0  0  0  0  0  0
   49.2076   55.1267   34.9278 N   0  0  0  0  0  0  0  0  0  0  0  0
   47.8912   55.1501   34.6799 C   0  0  0  0  0  0  0  0  0  0  0  0
   47.0524   54.1941   35.3366 C   0  0  0  0  0  0  0  0  0  0  0  0
   47.6701   53.2751   36.2289 C   0  0  0  0  0  0  0  0  0  0  0  0
   46.9382   52.3425   36.9088 N   0  0  0  0  0  0  0  0  0  0  0  0
   45.7913   54.4219   34.9209 N   0  0  0  0  0  0  0  0  0  0  0  0
   45.7858   55.4233   34.0689 C   0  0  0  0  0  0  0  0  0  0  0  0
   47.0479   55.9321   33.8843 N   0  0  0  0  0  0  0  0  0  0  0  0
  2  1  1  1  0  0  0
  2  3  1  0  0  0  0
  2  5  1  0  0  0  0
  3  4  1  0  0  0  0
  3 17  1  0  0  0  0
  5  6  1  0  0  0  0
  7  6  1  6  0  0  0
  7  8  1  0  0  0  0
  7  9  1  0  0  0  0
 10  9  1  1  0  0  0
 10 11  1  0  0  0  0
 10 12  1  0  0  0  0
 11 16  1  0  0  0  0
 12 13  1  6  0  0  0
 12 14  1  0  0  0  0
 14 15  1  6  0  0  0
 14 16  1  0  0  0  0
 16 27  1  1  0  0  0
 18 19  2  0  0  0  0
 18 23  1  0  0  0  0
 19 20  1  0  0  0  0
 20 21  2  0  0  0  0
 21 22  1  0  0  0  0
 21 27  1  0  0  0  0
 22 23  2  0  0  0  0
 22 25  1  0  0  0  0
 23 24  1  0  0  0  0
 25 26  2  0  0  0  0
 26 27  1  0  0  0  0
M  END
>  <CHROM.1>
155.08309370,49.58515972,124.42098115,-88.30583687,-76.90917661,140.22957674
107.41152288,48.29906252,55.74122707,30.99460121,0.56392928,1.38942092,-0.47371495

>  <Name>
ligand

>  <RI>
0

>  <Rbt.Current_Directory>
/home/itssahil/PROJECTS/Mol_Feturizer/New_Systems/rnas/3IQN

>  <Rbt.Executable>
rbdock ($Id: //depot/dev/client3/rdock/2013.1/src/exe/rbdock.cxx#4 $)

>  <Rbt.Library>
libRbt.so (2013.1, Build901 2013/11/27)

>  <Rbt.Parameter_File>
/export/apps/rDock/src/rDock_2013.1_src/data/scripts/dock_solv.prm

>  <Rbt.Receptor>
prm/pocket_docking_8.prm

>  <SCORE>
-13.1071

>  <SCORE.INTER>
-13.5912

>  <SCORE.INTER.CONST>
1

>  <SCORE.INTER.POLAR>
0

>  <SCORE.INTER.ROT>
7

>  <SCORE.INTER.SOLV>
15.2447

>  <SCORE.INTER.VDW>
-22.409

>  <SCORE.INTER.norm>
-0.503378

>  <SCORE.INTRA>
0.484127

>  <SCORE.INTRA.DIHEDRAL>
4.11481

>  <SCORE.INTRA.DIHEDRAL.0>
10.0365

>  <SCORE.INTRA.POLAR>
0

>  <SCORE.INTRA.POLAR.0>
0

>  <SCORE.INTRA.REPUL>
0

>  <SCORE.INTRA.REPUL.0>
0

>  <SCORE.INTRA.SOLV>
-0.253826

>  <SCORE.INTRA.SOLV.lig_0>
-48.6728

>  <SCORE.INTRA.VDW>
-1.44636

>  <SCORE.INTRA.VDW.0>
-1.10662

>  <SCORE.INTRA.norm>
0.0179306

>  <SCORE.RESTR>
0

>  <SCORE.RESTR.CAVITY>
0

>  <SCORE.RESTR.norm>
0

>  <SCORE.SYSTEM>
0

>  <SCORE.SYSTEM.CONST>
0

>  <SCORE.SYSTEM.DIHEDRAL>
0

>  <SCORE.SYSTEM.SOLV>
0

>  <SCORE.SYSTEM.norm>
0

>  <SCORE.heavy>
27

>  <SCORE.norm>
-0.485447

>  <RMSD>
5.181

$$$$
ligand
 OpenBabel11021811483D
libRbt.so/2013.1/901 2013/11/27
 27 29  0  0  0  0  0  0  0  0999 V2000
   47.0503   55.8358   29.3231 N   0  0  0  0  0  0  0  0  0  0  0  0
   48.1055   56.8561   29.3751 C   0  0  2  0  0  0  0  0  0  0  0  0
   49.1218   56.5425   28.3186 C   0  0  0  0  0  0  0  0  0  0  0  0
   49.0008   57.0121   27.1983 O   0  0  0  0  0  0  0  0  0  0  0  0
   48.7836   56.8525   30.7534 C   0  0  0  0  0  0  0  0  0  0  0  0
   47.7462   57.2041   31.8156 C   0  0  0  0  0  0  0  0  0  0  0  0
   48.4678   57.5201   33.4579 S   0  0  2  0  0  0  0  0  0  0  0  0
   49.7026   58.8251   33.1709 C   0  0  0  0  0  0  0  0  0  0  0  0
   49.6060   56.1715   33.9390 C   0  0  0  0  0  0  0  0  0  0  0  0
   48.6687   55.0637   34.3529 C   0  0  1  0  0  0  0  0  0  0  0  0
   48.1558   54.5946   33.1498 O   0  0  0  0  0  0  0  0  0  0  0  0
   49.1778   53.7684   34.9871 C   0  0  1  0  0  0  0  0  0  0  0  0
   49.2307   53.8384   36.3832 O   0  0  0  0  0  0  0  0  0  0  0  0
   48.0549   52.7712   34.4255 C   0  0  1  0  0  0  0  0  0  0  0  0
   46.7079   53.1510   34.7429 O   0  0  0  0  0  0  0  0  0  0  0  0
   48.5014   53.1582   33.0344 C   0  0  1  0  0  0  0  0  0  0  0  0
   50.0760   55.8301   28.5886 O   0  0  0  0  0  0  0  0  0  0  0  0
   50.6245   53.0432   28.4794 N   0  0  0  0  0  0  0  0  0  0  0  0
   51.1372   53.3115   29.6813 C   0  0  0  0  0  0  0  0  0  0  0  0
   50.4040   53.2362   30.7912 N   0  0  0  0  0  0  0  0  0  0  0  0
   49.0849   53.0090   30.7333 C   0  0  0  0  0  0  0  0  0  0  0  0
   48.4833   52.7824   29.4545 C   0  0  0  0  0  0  0  0  0  0  0  0
   49.3305   52.8017   28.3125 C   0  0  0  0  0  0  0  0  0  0  0  0
   48.8381   52.5770   27.0576 N   0  0  0  0  0  0  0  0  0  0  0  0
   47.1670   52.5868   29.6650 N   0  0  0  0  0  0  0  0  0  0  0  0
   46.9115   52.6785   30.9515 C   0  0  0  0  0  0  0  0  0  0  0  0
   48.0535   52.9230   31.6738 N   0  0  0  0  0  0  0  0  0  0  0  0
  2  1  1  1  0  0  0
  2  3  1  0  0  0  0
  2  5  1  0  0  0  0
  3  4  1  0  0  0  0
  3 17  1  0  0  0  0
  5  6  1  0  0  0  0
  7  6  1  6  0  0  0
  7  8  1  0  0  0  0
  7  9  1  0  0  0  0
 10  9  1  6  0  0  0
 10 11  1  0  0  0  0
 10 12  1  0  0  0  0
 11 16  1  0  0  0  0
 12 13  1  1  0  0  0
 12 14  1  0  0  0  0
 14 15  1  6  0  0  0
 14 16  1  0  0  0  0
 16 27  1  6  0  0  0
 18 19  2  0  0  0  0
 18 23  1  0  0  0  0
 19 20  1  0  0  0  0
 20 21  2  0  0  0  0
 21 22  1  0  0  0  0
 21 27  1  0  0  0  0
 22 23  2  0  0  0  0
 22 25  1  0  0  0  0
 23 24  1  0  0  0  0
 25 26  2  0  0  0  0
 26 27  1  0  0  0  0
M  END
>  <CHROM.1>
90.37889016,-62.01886884,-169.94992700,55.26088034,-76.86870257,73.85624741
96.49269254,48.72954125,54.78121405,31.40540594,-0.60879771,1.45541027,0.52234345

>  <Name>
ligand

>  <RI>
0

>  <Rbt.Current_Directory>
/home/itssahil/PROJECTS/Mol_Feturizer/New_Systems/rnas/3IQN

>  <Rbt.Executable>
rbdock ($Id: //depot/dev/client3/rdock/2013.1/src/exe/rbdock.cxx#4 $)

>  <Rbt.Library>
libRbt.so (2013.1, Build901 2013/11/27)

>  <Rbt.Parameter_File>
/export/apps/rDock/src/rDock_2013.1_src/data/scripts/dock_solv.prm

>  <Rbt.Receptor>
prm/pocket_docking_3.prm

>  <SCORE>
-22.1383

>  <SCORE.INTER>
-16.8083

>  <SCORE.INTER.CONST>
1

>  <SCORE.INTER.POLAR>
0

>  <SCORE.INTER.ROT>
7

>  <SCORE.INTER.SOLV>
7.07107

>  <SCORE.INTER.VDW>
-21.8292

>  <SCORE.INTER.norm>
-0.622528

>  <SCORE.INTRA>
-5.33009

>  <SCORE.INTRA.DIHEDRAL>
-5.57546

>  <SCORE.INTRA.DIHEDRAL.0>
10.0365

>  <SCORE.INTRA.POLAR>
0

>  <SCORE.INTRA.POLAR.0>
0

>  <SCORE.INTRA.REPUL>
0

>  <SCORE.INTRA.REPUL.0>
0

>  <SCORE.INTRA.SOLV>
1.27256

>  <SCORE.INTRA.SOLV.lig_0>
-48.6728

>  <SCORE.INTRA.VDW>
-3.17864

>  <SCORE.INTRA.VDW.0>
-1.10662

>  <SCORE.INTRA.norm>
-0.197411

>  <SCORE.RESTR>
0

>  <SCORE.RESTR.CAVITY>
0

>  <SCORE.RESTR.norm>
0

>  <SCORE.SYSTEM>
0

>  <SCORE.SYSTEM.CONST>
0

>  <SCORE.SYSTEM.DIHEDRAL>
0

>  <SCORE.SYSTEM.SOLV>
0

>  <SCORE.SYSTEM.norm>
0

>  <SCORE.heavy>
27

>  <SCORE.norm>
-0.819939

>  <RMSD>
5.185

$$$$
ligand
 OpenBabel11021811483D
libRbt.so/2013.1/901 2013/11/27
 27 29  0  0  0  0  0  0  0  0999 V2000
   50.4498   53.7129   23.0199 N   0  0  0  0  0  0  0  0  0  0  0  0
   49.6633   53.8423   24.2536 C   0  0  2  0  0  0  0  0  0  0  0  0
   48.2685   54.2516   23.8869 C   0  0  0  0  0  0  0  0  0  0  0  0
   48.0838   55.2609   23.2255 O   0  0  0  0  0  0  0  0  0  0  0  0
   50.2830   54.9060   25.1722 C   0  0  0  0  0  0  0  0  0  0  0  0
   49.5831   54.8577   26.5272 C   0  0  0  0  0  0  0  0  0  0  0  0
   50.4449   55.8036   27.8232 S   0  0  2  0  0  0  0  0  0  0  0  0
   52.0484   54.9648   28.0112 C   0  0  0  0  0  0  0  0  0  0  0  0
   49.7490   55.4302   29.4731 C   0  0  0  0  0  0  0  0  0  0  0  0
   48.4632   56.2199   29.4891 C   0  0  1  0  0  0  0  0  0  0  0  0
   47.7849   55.7293   30.5981 O   0  0  0  0  0  0  0  0  0  0  0  0
   48.4414   57.7239   29.7655 C   0  0  1  0  0  0  0  0  0  0  0  0
   48.5446   58.4864   28.5972 O   0  0  0  0  0  0  0  0  0  0  0  0
   47.0086   57.8139   30.4794 C   0  0  1  0  0  0  0  0  0  0  0  0
   45.9214   57.2919   29.7015 O   0  0  0  0  0  0  0  0  0  0  0  0
   47.5431   56.8610   31.5237 C   0  0  1  0  0  0  0  0  0  0  0  0
   47.3232   53.5636   24.2388 O   0  0  0  0  0  0  0  0  0  0  0  0
   49.4488   54.3053   35.4103 N   0  0  0  0  0  0  0  0  0  0  0  0
   50.0436   54.9253   34.3899 C   0  0  0  0  0  0  0  0  0  0  0  0
   49.3483   55.6013   33.4762 N   0  0  0  0  0  0  0  0  0  0  0  0
   48.0087   55.5815   33.4740 C   0  0  0  0  0  0  0  0  0  0  0  0
   47.3314   54.8703   34.5152 C   0  0  0  0  0  0  0  0  0  0  0  0
   48.1274   54.2302   35.5046 C   0  0  0  0  0  0  0  0  0  0  0  0
   47.5587   53.5457   36.5418 N   0  0  0  0  0  0  0  0  0  0  0  0
   46.0097   54.9973   34.2869 N   0  0  0  0  0  0  0  0  0  0  0  0
   45.8204   55.7147   33.2014 C   0  0  0  0  0  0  0  0  0  0  0  0
   47.0125   56.1227   32.6552 N   0  0  0  0  0  0  0  0  0  0  0  0
  2  1  1  6  0  0  0
  2  3  1  0  0  0  0
  2  5  1  0  0  0  0
  3  4  1  0  0  0  0
  3 17  1  0  0  0  0
  5  6  1  0  0  0  0
  7  6  1  6  0  0  0
  7  8  1  0  0  0  0
  7  9  1  0  0  0  0
 10  9  1  1  0  0  0
 10 11  1  0  0  0  0
 10 12  1  0  0  0  0
 11 16  1  0  0  0  0
 12 13  1  6  0  0  0
 12 14  1  0  0  0  0
 14 15  1  6  0  0  0
 14 16  1  0  0  0  0
 16 27  1  1  0  0  0
 18 19  2  0  0  0  0
 18 23  1  0  0  0  0
 19 20  1  0  0  0  0
 20 21  2  0  0  0  0
 21 22  1  0  0  0  0
 21 27  1  0  0  0  0
 22 23  2  0  0  0  0
 22 25  1  0  0  0  0
 23 24  1  0  0  0  0
 25 26  2  0  0  0  0
 26 27  1  0  0  0  0
M  END
>  <CHROM.1>
-56.02881055,-170.97926356,167.46428048,-63.37115542,-77.01359546,167.56214181
83.15910759,48.55308592,55.46432800,29.73160998,-1.38529949,-0.55263906,1.62766437

>  <Name>
ligand

>  <RI>
0

>  <Rbt.Current_Directory>
/home/itssahil/PROJECTS/Mol_Feturizer/New_Systems/rnas/3IQN

>  <Rbt.Executable>
rbdock ($Id: //depot/dev/client3/rdock/2013.1/src/exe/rbdock.cxx#4 $)

>  <Rbt.Library>
libRbt.so (2013.1, Build901 2013/11/27)

>  <Rbt.Parameter_File>
/export/apps/rDock/src/rDock_2013.1_src/data/scripts/dock_solv.prm

>  <Rbt.Receptor>
prm/pocket_docking_8.prm

>  <SCORE>
-12.79

>  <SCORE.INTER>
-8.26845

>  <SCORE.INTER.CONST>
1

>  <SCORE.INTER.POLAR>
0

>  <SCORE.INTER.ROT>
7

>  <SCORE.INTER.SOLV>
10.8461

>  <SCORE.INTER.VDW>
-17.3943

>  <SCORE.INTER.norm>
-0.306239

>  <SCORE.INTRA>
-4.52154

>  <SCORE.INTRA.DIHEDRAL>
-5.2325

>  <SCORE.INTRA.DIHEDRAL.0>
10.0365

>  <SCORE.INTRA.POLAR>
0

>  <SCORE.INTRA.POLAR.0>
0

>  <SCORE.INTRA.REPUL>
0

>  <SCORE.INTRA.REPUL.0>
0

>  <SCORE.INTRA.SOLV>
-1.03728

>  <SCORE.INTRA.SOLV.lig_0>
-48.6728

>  <SCORE.INTRA.VDW>
-1.38666

>  <SCORE.INTRA.VDW.0>
-1.10662

>  <SCORE.INTRA.norm>
-0.167465

>  <SCORE.RESTR>
0

>  <SCORE.RESTR.CAVITY>
0

>  <SCORE.RESTR.norm>
0

>  <SCORE.SYSTEM>
0

>  <SCORE.SYSTEM.CONST>
0

>  <SCORE.SYSTEM.DIHEDRAL>
0

>  <SCORE.SYSTEM.SOLV>
0

>  <SCORE.SYSTEM.norm>
0

>  <SCORE.heavy>
27

>  <SCORE.norm>
-0.473703

>  <RMSD>
5.190

$$$$
ligand
 OpenBabel11021811483D
libRbt.so/2013.1/901 2013/11/27
 27 29  0  0  0  0  0  0  0  0999 V2000
   46.8012   57.8432   32.5830 N   0  0  0  0  0  0  0  0  0  0  0  0
   47.7967   58.1771   31.5559 C   0  0  2  0  0  0  0  0  0  0  0  0
   47.7370   59.6528   31.2986 C   0  0  0  0  0  0  0  0  0  0  0  0
   48.7482   60.3296   31.3967 O   0  0  0  0  0  0  0  0  0  0  0  0
   47.4953   57.4189   30.2545 C   0  0  0  0  0  0  0  0  0  0  0  0
   48.7748   57.3269   29.4282 C   0  0  0  0  0  0  0  0  0  0  0  0
   48.5064   56.6876   27.7440 S   0  0  2  0  0  0  0  0  0  0  0  0
   47.3626   57.8787   26.9801 C   0  0  0  0  0  0  0  0  0  0  0  0
   47.4019   55.2298   27.7695 C   0  0  0  0  0  0  0  0  0  0  0  0
   48.3392   54.0960   28.1057 C   0  0  1  0  0  0  0  0  0  0  0  0
   48.8902   54.4700   29.3252 O   0  0  0  0  0  0  0  0  0  0  0  0
   47.8266   52.6912   28.4265 C   0  0  1  0  0  0  0  0  0  0  0  0
   47.7344   51.8805   27.2903 O   0  0  0  0  0  0  0  0  0  0  0  0
   48.9752   52.2477   29.4536 C   0  0  1  0  0  0  0  0  0  0  0  0
   50.3088   52.3369   28.9310 O   0  0  0  0  0  0  0  0  0  0  0  0
   48.5632   53.4182   30.3165 C   0  0  1  0  0  0  0  0  0  0  0  0
   46.6786   60.1690   30.9763 O   0  0  0  0  0  0  0  0  0  0  0  0
   47.4700   53.2995   35.2216 N   0  0  0  0  0  0  0  0  0  0  0  0
   46.9202   52.6678   34.1832 C   0  0  0  0  0  0  0  0  0  0  0  0
   47.3994   52.7982   32.9469 N   0  0  0  0  0  0  0  0  0  0  0  0
   48.3793   53.6703   32.6745 C   0  0  0  0  0  0  0  0  0  0  0  0
   48.9514   54.4181   33.7525 C   0  0  0  0  0  0  0  0  0  0  0  0
   48.4486   54.1813   35.0615 C   0  0  0  0  0  0  0  0  0  0  0  0
   48.9526   54.8406   36.1473 N   0  0  0  0  0  0  0  0  0  0  0  0
   49.8987   55.2161   33.2224 N   0  0  0  0  0  0  0  0  0  0  0  0
   49.9521   55.0272   31.9223 C   0  0  0  0  0  0  0  0  0  0  0  0
   49.0511   54.0737   31.5162 N   0  0  0  0  0  0  0  0  0  0  0  0
  2  1  1  1  0  0  0
  2  3  1  0  0  0  0
  2  5  1  0  0  0  0
  3  4  1  0  0  0  0
  3 17  1  0  0  0  0
  5  6  1  0  0  0  0
  7  6  1  1  0  0  0
  7  8  1  0  0  0  0
  7  9  1  0  0  0  0
 10  9  1  1  0  0  0
 10 11  1  0  0  0  0
 10 12  1  0  0  0  0
 11 16  1  0  0  0  0
 12 13  1  6  0  0  0
 12 14  1  0  0  0  0
 14 15  1  6  0  0  0
 14 16  1  0  0  0  0
 16 27  1  1  0  0  0
 18 19  2  0  0  0  0
 18 23  1  0  0  0  0
 19 20  1  0  0  0  0
 20 21  2  0  0  0  0
 21 22  1  0  0  0  0
 21 27  1  0  0  0  0
 22 23  2  0  0  0  0
 22 25  1  0  0  0  0
 23 24  1  0  0  0  0
 25 26  2  0  0  0  0
 26 27  1  0  0  0  0
M  END
>  <CHROM.1>
125.14827706,-157.69154135,-170.79158576,60.34558261,-82.77300237,58.35788905
152.12686150,48.28197728,55.37311460,30.80780619,1.00533087,-1.45017200,1.59761514

>  <Name>
ligand

>  <RI>
0

>  <Rbt.Current_Directory>
/home/itssahil/PROJECTS/Mol_Feturizer/New_Systems/rnas/3IQN

>  <Rbt.Executable>
rbdock ($Id: //depot/dev/client3/rdock/2013.1/src/exe/rbdock.cxx#4 $)

>  <Rbt.Library>
libRbt.so (2013.1, Build901 2013/11/27)

>  <Rbt.Parameter_File>
/export/apps/rDock/src/rDock_2013.1_src/data/scripts/dock_solv.prm

>  <Rbt.Receptor>
prm/pocket_docking_3.prm

>  <SCORE>
-12.9829

>  <SCORE.INTER>
-8.98878

>  <SCORE.INTER.CONST>
1

>  <SCORE.INTER.POLAR>
0

>  <SCORE.INTER.ROT>
7

>  <SCORE.INTER.SOLV>
17.6209

>  <SCORE.INTER.VDW>
-20.1328

>  <SCORE.INTER.norm>
-0.332918

>  <SCORE.INTRA>
-3.99408

>  <SCORE.INTRA.DIHEDRAL>
-3.74284

>  <SCORE.INTRA.DIHEDRAL.0>
10.0365

>  <SCORE.INTRA.POLAR>
0

>  <SCORE.INTRA.POLAR.0>
0

>  <SCORE.INTRA.REPUL>
0

>  <SCORE.INTRA.REPUL.0>
0

>  <SCORE.INTRA.SOLV>
-0.975816

>  <SCORE.INTRA.SOLV.lig_0>
-48.6728

>  <SCORE.INTRA.VDW>
-1.63476

>  <SCORE.INTRA.VDW.0>
-1.10662

>  <SCORE.INTRA.norm>
-0.147929

>  <SCORE.RESTR>
0

>  <SCORE.RESTR.CAVITY>
0

>  <SCORE.RESTR.norm>
0

>  <SCORE.SYSTEM>
0

>  <SCORE.SYSTEM.CONST>
0

>  <SCORE.SYSTEM.DIHEDRAL>
0

>  <SCORE.SYSTEM.SOLV>
0

>  <SCORE.SYSTEM.norm>
0

>  <SCORE.heavy>
27

>  <SCORE.norm>
-0.480847

>  <RMSD>
5.201

$$$$
ligand
 OpenBabel11021811483D
libRbt.so/2013.1/901 2013/11/27
 27 29  0  0  0  0  0  0  0  0999 V2000
   52.6403   54.9800   27.2946 N   0  0  0  0  0  0  0  0  0  0  0  0
   51.8300   54.2241   28.2586 C   0  0  2  0  0  0  0  0  0  0  0  0
   51.0836   53.1559   27.5173 C   0  0  0  0  0  0  0  0  0  0  0  0
   51.0212   53.1903   26.2987 O   0  0  0  0  0  0  0  0  0  0  0  0
   50.8286   55.1546   28.9592 C   0  0  0  0  0  0  0  0  0  0  0  0
   49.9911   55.8663   27.9007 C   0  0  0  0  0  0  0  0  0  0  0  0
   48.4712   56.6197   28.5639 S   0  0  2  0  0  0  0  0  0  0  0  0
   47.7590   57.5263   27.1564 C   0  0  0  0  0  0  0  0  0  0  0  0
   48.8670   58.0492   29.6344 C   0  0  0  0  0  0  0  0  0  0  0  0
   47.5677   58.3051   30.3579 C   0  0  1  0  0  0  0  0  0  0  0  0
   47.4807   57.2576   31.2667 O   0  0  0  0  0  0  0  0  0  0  0  0
   47.3775   59.5141   31.2751 C   0  0  1  0  0  0  0  0  0  0  0  0
   46.8725   60.6286   30.5970 O   0  0  0  0  0  0  0  0  0  0  0  0
   46.3483   58.8624   32.3175 C   0  0  1  0  0  0  0  0  0  0  0  0
   45.1607   58.3195   31.7221 O   0  0  0  0  0  0  0  0  0  0  0  0
   47.4150   57.8379   32.6286 C   0  0  1  0  0  0  0  0  0  0  0  0
   50.5541   52.2464   28.1363 O   0  0  0  0  0  0  0  0  0  0  0  0
   44.2020   54.5521   34.6654 N   0  0  0  0  0  0  0  0  0  0  0  0
   43.9919   55.6835   33.9907 C   0  0  0  0  0  0  0  0  0  0  0  0
   44.9965   56.3950   33.4808 N   0  0  0  0  0  0  0  0  0  0  0  0
   46.2713   56.0688   33.7329 C   0  0  0  0  0  0  0  0  0  0  0  0
   46.5387   54.8975   34.5108 C   0  0  0  0  0  0  0  0  0  0  0  0
   45.4262   54.1371   34.9650 C   0  0  0  0  0  0  0  0  0  0  0  0
   45.5959   52.9962   35.6980 N   0  0  0  0  0  0  0  0  0  0  0  0
   47.8773   54.7940   34.6238 N   0  0  0  0  0  0  0  0  0  0  0  0
   48.4482   55.7958   33.9919 C   0  0  0  0  0  0  0  0  0  0  0  0
   47.5159   56.6152   33.4043 N   0  0  0  0  0  0  0  0  0  0  0  0
  2  1  1  6  0  0  0
  2  3  1  0  0  0  0
  2  5  1  0  0  0  0
  3  4  1  0  0  0  0
  3 17  1  0  0  0  0
  5  6  1  0  0  0  0
  7  6  1  6  0  0  0
  7  8  1  0  0  0  0
  7  9  1  0  0  0  0
 10  9  1  1  0  0  0
 10 11  1  0  0  0  0
 10 12  1  0  0  0  0
 11 16  1  0  0  0  0
 12 13  1  6  0  0  0
 12 14  1  0  0  0  0
 14 15  1  6  0  0  0
 14 16  1  0  0  0  0
 16 27  1  1  0  0  0
 18 19  2  0  0  0  0
 18 23  1  0  0  0  0
 19 20  1  0  0  0  0
 20 21  2  0  0  0  0
 21 22  1  0  0  0  0
 21 27  1  0  0  0  0
 22 23  2  0  0  0  0
 22 25  1  0  0  0  0
 23 24  1  0  0  0  0
 25 26  2  0  0  0  0
 26 27  1  0  0  0  0
M  END
>  <CHROM.1>
-13.40283883,55.30397485,163.39697952,174.58674897,-165.82947475,73.13366316
-92.54241247,47.91877735,56.11103805,30.99013215,-0.26366261,-0.88982209
2.61168106

>  <Name>
ligand

>  <RI>
0

>  <Rbt.Current_Directory>
/home/itssahil/PROJECTS/Mol_Feturizer/New_Systems/rnas/3IQN

>  <Rbt.Executable>
rbdock ($Id: //depot/dev/client3/rdock/2013.1/src/exe/rbdock.cxx#4 $)

>  <Rbt.Library>
libRbt.so (2013.1, Build901 2013/11/27)

>  <Rbt.Parameter_File>
/export/apps/rDock/src/rDock_2013.1_src/data/scripts/dock_solv.prm

>  <Rbt.Receptor>
prm/pocket_docking_6.prm

>  <SCORE>
-17.2086

>  <SCORE.INTER>
-14.5875

>  <SCORE.INTER.CONST>
1

>  <SCORE.INTER.POLAR>
0

>  <SCORE.INTER.ROT>
7

>  <SCORE.INTER.SOLV>
17.0685

>  <SCORE.INTER.VDW>
-23.6812

>  <SCORE.INTER.norm>
-0.540279

>  <SCORE.INTRA>
-2.6211

>  <SCORE.INTRA.DIHEDRAL>
-4.10804

>  <SCORE.INTRA.DIHEDRAL.0>
10.0365

>  <SCORE.INTRA.POLAR>
0

>  <SCORE.INTRA.POLAR.0>
0

>  <SCORE.INTRA.REPUL>
0

>  <SCORE.INTRA.REPUL.0>
0

>  <SCORE.INTRA.SOLV>
-0.167455

>  <SCORE.INTRA.SOLV.lig_0>
-48.6728

>  <SCORE.INTRA.VDW>
-0.483348

>  <SCORE.INTRA.VDW.0>
-1.10662

>  <SCORE.INTRA.norm>
-0.0970777

>  <SCORE.RESTR>
0

>  <SCORE.RESTR.CAVITY>
0

>  <SCORE.RESTR.norm>
0

>  <SCORE.SYSTEM>
0

>  <SCORE.SYSTEM.CONST>
0

>  <SCORE.SYSTEM.DIHEDRAL>
0

>  <SCORE.SYSTEM.SOLV>
0

>  <SCORE.SYSTEM.norm>
0

>  <SCORE.heavy>
27

>  <SCORE.norm>
-0.637357

>  <RMSD>
5.206

$$$$
ligand
 OpenBabel11021811483D
libRbt.so/2013.1/901 2013/11/27
 27 29  0  0  0  0  0  0  0  0999 V2000
   50.7076   53.2713   26.5048 N   0  0  0  0  0  0  0  0  0  0  0  0
   50.7829   54.6825   26.9048 C   0  0  2  0  0  0  0  0  0  0  0  0
   51.3738   54.7553   28.2807 C   0  0  0  0  0  0  0  0  0  0  0  0
   51.2209   53.8275   29.0592 O   0  0  0  0  0  0  0  0  0  0  0  0
   49.3804   55.3089   26.9173 C   0  0  0  0  0  0  0  0  0  0  0  0
   48.4925   54.5143   27.8705 C   0  0  0  0  0  0  0  0  0  0  0  0
   48.2794   55.3086   29.4957 S   0  0  2  0  0  0  0  0  0  0  0  0
   47.3877   54.0757   30.4933 C   0  0  0  0  0  0  0  0  0  0  0  0
   46.9788   56.5930   29.4267 C   0  0  0  0  0  0  0  0  0  0  0  0
   47.3272   57.4955   30.5848 C   0  0  1  0  0  0  0  0  0  0  0  0
   46.7906   56.8435   31.6882 O   0  0  0  0  0  0  0  0  0  0  0  0
   48.7725   57.7096   31.0367 C   0  0  1  0  0  0  0  0  0  0  0  0
   49.3801   58.7952   30.3971 O   0  0  0  0  0  0  0  0  0  0  0  0
   48.5012   57.9412   32.5999 C   0  0  1  0  0  0  0  0  0  0  0  0
   47.5769   58.9989   32.8940 O   0  0  0  0  0  0  0  0  0  0  0  0
   47.8963   56.5565   32.6322 C   0  0  1  0  0  0  0  0  0  0  0  0
   52.0196   55.7374   28.6112 O   0  0  0  0  0  0  0  0  0  0  0  0
   49.1023   53.4823   36.4221 N   0  0  0  0  0  0  0  0  0  0  0  0
   49.8658   54.1680   35.5699 C   0  0  0  0  0  0  0  0  0  0  0  0
   49.3415   54.9813   34.6540 N   0  0  0  0  0  0  0  0  0  0  0  0
   48.0165   55.0486   34.4677 C   0  0  0  0  0  0  0  0  0  0  0  0
   47.1640   54.2755   35.3187 C   0  0  0  0  0  0  0  0  0  0  0  0
   47.7788   53.4832   36.3269 C   0  0  0  0  0  0  0  0  0  0  0  0
   47.0355   52.7301   37.1918 N   0  0  0  0  0  0  0  0  0  0  0  0
   45.8959   54.5115   34.9293 N   0  0  0  0  0  0  0  0  0  0  0  0
   45.8983   55.3514   33.9177 C   0  0  0  0  0  0  0  0  0  0  0  0
   47.1746   55.7374   33.5889 N   0  0  0  0  0  0  0  0  0  0  0  0
  2  1  1  1  0  0  0
  2  3  1  0  0  0  0
  2  5  1  0  0  0  0
  3  4  1  0  0  0  0
  3 17  1  0  0  0  0
  5  6  1  0  0  0  0
  7  6  1  6  0  0  0
  7  8  1  0  0  0  0
  7  9  1  0  0  0  0
 10  9  1  6  0  0  0
 10 11  1  0  0  0  0
 10 12  1  0  0  0  0
 11 16  1  0  0  0  0
 12 13  1  6  0  0  0
 12 14  1  0  0  0  0
 14 15  1  6  0  0  0
 14 16  1  0  0  0  0
 16 27  1  1  0  0  0
 18 19  2  0  0  0  0
 18 23  1  0  0  0  0
 19 20  1  0  0  0  0
 20 21  2  0  0  0  0
 21 22  1  0  0  0  0
 21 27  1  0  0  0  0
 22 23  2  0  0  0  0
 22 25  1  0  0  0  0
 23 24  1  0  0  0  0
 25 26  2  0  0  0  0
 26 27  1  0  0  0  0
M  END
>  <CHROM.1>
-28.68504846,57.81429793,100.81707947,-172.64769938,-157.00101973,-81.53564313
166.45298872,48.53541391,55.45135471,31.57410156,-0.95498908,-1.00532076
2.18755835

>  <Name>
ligand

>  <RI>
0

>  <Rbt.Current_Directory>
/home/itssahil/PROJECTS/Mol_Feturizer/New_Systems/rnas/3IQN

>  <Rbt.Executable>
rbdock ($Id: //depot/dev/client3/rdock/2013.1/src/exe/rbdock.cxx#4 $)

>  <Rbt.Library>
libRbt.so (2013.1, Build901 2013/11/27)

>  <Rbt.Parameter_File>
/export/apps/rDock/src/rDock_2013.1_src/data/scripts/dock_solv.prm

>  <Rbt.Receptor>
prm/pocket_docking_4.prm

>  <SCORE>
-8.55073

>  <SCORE.INTER>
-8.65024

>  <SCORE.INTER.CONST>
1

>  <SCORE.INTER.POLAR>
0

>  <SCORE.INTER.ROT>
7

>  <SCORE.INTER.SOLV>
10.1952

>  <SCORE.INTER.VDW>
-17.4319

>  <SCORE.INTER.norm>
-0.320379

>  <SCORE.INTRA>
0.0995138

>  <SCORE.INTRA.DIHEDRAL>
1.48428

>  <SCORE.INTRA.DIHEDRAL.0>
10.0365

>  <SCORE.INTRA.POLAR>
0

>  <SCORE.INTRA.POLAR.0>
0

>  <SCORE.INTRA.REPUL>
0

>  <SCORE.INTRA.REPUL.0>
0

>  <SCORE.INTRA.SOLV>
0.148347

>  <SCORE.INTRA.SOLV.lig_0>
-48.6728

>  <SCORE.INTRA.VDW>
-0.716802

>  <SCORE.INTRA.VDW.0>
-1.10662

>  <SCORE.INTRA.norm>
0.0036857

>  <SCORE.RESTR>
0

>  <SCORE.RESTR.CAVITY>
0

>  <SCORE.RESTR.norm>
0

>  <SCORE.SYSTEM>
0

>  <SCORE.SYSTEM.CONST>
0

>  <SCORE.SYSTEM.DIHEDRAL>
0

>  <SCORE.SYSTEM.SOLV>
0

>  <SCORE.SYSTEM.norm>
0

>  <SCORE.heavy>
27

>  <SCORE.norm>
-0.316694

>  <RMSD>
5.207

$$$$
ligand
 OpenBabel11021811483D
libRbt.so/2013.1/901 2013/11/27
 27 29  0  0  0  0  0  0  0  0999 V2000
   50.9804   55.8748   29.8557 N   0  0  0  0  0  0  0  0  0  0  0  0
   49.5772   55.9849   30.2755 C   0  0  2  0  0  0  0  0  0  0  0  0
   48.7063   55.5145   29.1496 C   0  0  0  0  0  0  0  0  0  0  0  0
   47.5499   55.1903   29.3684 O   0  0  0  0  0  0  0  0  0  0  0  0
   49.2340   57.4438   30.6118 C   0  0  0  0  0  0  0  0  0  0  0  0
   47.9521   57.4722   31.4389 C   0  0  0  0  0  0  0  0  0  0  0  0
   48.2475   57.6164   33.2304 S   0  0  2  0  0  0  0  0  0  0  0  0
   49.5119   58.9160   33.3817 C   0  0  0  0  0  0  0  0  0  0  0  0
   49.2361   56.2044   33.8426 C   0  0  0  0  0  0  0  0  0  0  0  0
   48.2940   55.0354   33.6905 C   0  0  1  0  0  0  0  0  0  0  0  0
   48.5260   54.5872   32.3959 O   0  0  0  0  0  0  0  0  0  0  0  0
   48.4715   53.7444   34.4910 C   0  0  1  0  0  0  0  0  0  0  0  0
   47.7734   53.7636   35.7030 O   0  0  0  0  0  0  0  0  0  0  0  0
   47.8814   52.7136   33.4139 C   0  0  1  0  0  0  0  0  0  0  0  0
   46.5495   53.0121   32.9708 O   0  0  0  0  0  0  0  0  0  0  0  0
   48.9706   53.1757   32.4734 C   0  0  1  0  0  0  0  0  0  0  0  0
   49.1539   55.4727   28.0144 O   0  0  0  0  0  0  0  0  0  0  0  0
   46.5278   52.0374   28.2301 N   0  0  0  0  0  0  0  0  0  0  0  0
   46.0951   52.1675   29.4851 C   0  0  0  0  0  0  0  0  0  0  0  0
   46.9089   52.5320   30.4752 N   0  0  0  0  0  0  0  0  0  0  0  0
   48.2270   52.6618   30.2733 C   0  0  0  0  0  0  0  0  0  0  0  0
   48.7414   52.4643   28.9523 C   0  0  0  0  0  0  0  0  0  0  0  0
   47.8135   52.1496   27.9216 C   0  0  0  0  0  0  0  0  0  0  0  0
   48.2207   51.9632   26.6305 N   0  0  0  0  0  0  0  0  0  0  0  0
   50.0751   52.6442   29.0154 N   0  0  0  0  0  0  0  0  0  0  0  0
   50.4201   52.9274   30.2522 C   0  0  0  0  0  0  0  0  0  0  0  0
   49.3260   52.9702   31.0811 N   0  0  0  0  0  0  0  0  0  0  0  0
  2  1  1  6  0  0  0
  2  3  1  0  0  0  0
  2  5  1  0  0  0  0
  3  4  1  0  0  0  0
  3 17  1  0  0  0  0
  5  6  1  0  0  0  0
  7  6  1  6  0  0  0
  7  8  1  0  0  0  0
  7  9  1  0  0  0  0
 10  9  1  1  0  0  0
 10 11  1  0  0  0  0
 10 12  1  0  0  0  0
 11 16  1  0  0  0  0
 12 13  1  1  0  0  0
 12 14  1  0  0  0  0
 14 15  1  6  0  0  0
 14 16  1  0  0  0  0
 16 27  1  6  0  0  0
 18 19  2  0  0  0  0
 18 23  1  0  0  0  0
 19 20  1  0  0  0  0
 20 21  2  0  0  0  0
 21 22  1  0  0  0  0
 21 27  1  0  0  0  0
 22 23  2  0  0  0  0
 22 25  1  0  0  0  0
 23 24  1  0  0  0  0
 25 26  2  0  0  0  0
 26 27  1  0  0  0  0
M  END
>  <CHROM.1>
161.22141230,-162.56586870,98.29456275,45.21018572,-67.89587575,88.36375297
-82.52969889,48.46035358,54.51624328,31.14101527,-1.34222404,-1.22821703
-2.01204224

>  <Name>
ligand

>  <RI>
0

>  <Rbt.Current_Directory>
/home/itssahil/PROJECTS/Mol_Feturizer/New_Systems/rnas/3IQN

>  <Rbt.Executable>
rbdock ($Id: //depot/dev/client3/rdock/2013.1/src/exe/rbdock.cxx#4 $)

>  <Rbt.Library>
libRbt.so (2013.1, Build901 2013/11/27)

>  <Rbt.Parameter_File>
/export/apps/rDock/src/rDock_2013.1_src/data/scripts/dock_solv.prm

>  <Rbt.Receptor>
prm/pocket_docking_4.prm

>  <SCORE>
-13.7603

>  <SCORE.INTER>
-10.4472

>  <SCORE.INTER.CONST>
1

>  <SCORE.INTER.POLAR>
0

>  <SCORE.INTER.ROT>
7

>  <SCORE.INTER.SOLV>
14.3908

>  <SCORE.INTER.VDW>
-20.0284

>  <SCORE.INTER.norm>
-0.386934

>  <SCORE.INTRA>
-3.31308

>  <SCORE.INTRA.DIHEDRAL>
0.648718

>  <SCORE.INTRA.DIHEDRAL.0>
10.0365

>  <SCORE.INTRA.POLAR>
0

>  <SCORE.INTRA.POLAR.0>
0

>  <SCORE.INTRA.REPUL>
0

>  <SCORE.INTRA.REPUL.0>
0

>  <SCORE.INTRA.SOLV>
1.6918

>  <SCORE.INTRA.SOLV.lig_0>
-48.6728

>  <SCORE.INTRA.VDW>
-4.48334

>  <SCORE.INTRA.VDW.0>
-1.10662

>  <SCORE.INTRA.norm>
-0.122707

>  <SCORE.RESTR>
0

>  <SCORE.RESTR.CAVITY>
0

>  <SCORE.RESTR.norm>
0

>  <SCORE.SYSTEM>
0

>  <SCORE.SYSTEM.CONST>
0

>  <SCORE.SYSTEM.DIHEDRAL>
0

>  <SCORE.SYSTEM.SOLV>
0

>  <SCORE.SYSTEM.norm>
0

>  <SCORE.heavy>
27

>  <SCORE.norm>
-0.509641

>  <RMSD>
5.212

$$$$
ligand
 OpenBabel11021811483D
libRbt.so/2013.1/901 2013/11/27
 27 29  0  0  0  0  0  0  0  0999 V2000
   48.5404   52.4143   24.5298 N   0  0  0  0  0  0  0  0  0  0  0  0
   48.3678   52.4764   25.9871 C   0  0  2  0  0  0  0  0  0  0  0  0
   46.9082   52.3356   26.2989 C   0  0  0  0  0  0  0  0  0  0  0  0
   46.5540   51.7185   27.2908 O   0  0  0  0  0  0  0  0  0  0  0  0
   48.8784   53.8204   26.5279 C   0  0  0  0  0  0  0  0  0  0  0  0
   48.8770   53.7723   28.0530 C   0  0  0  0  0  0  0  0  0  0  0  0
   49.5883   55.2599   28.8265 S   0  0  2  0  0  0  0  0  0  0  0  0
   51.3426   55.2310   28.3447 C   0  0  0  0  0  0  0  0  0  0  0  0
   49.7983   55.0198   30.6277 C   0  0  0  0  0  0  0  0  0  0  0  0
   48.3781   54.9181   31.1274 C   0  0  1  0  0  0  0  0  0  0  0  0
   48.5173   54.4866   32.4408 O   0  0  0  0  0  0  0  0  0  0  0  0
   47.4946   56.1531   31.3096 C   0  0  1  0  0  0  0  0  0  0  0  0
   46.7522   56.4564   30.1634 O   0  0  0  0  0  0  0  0  0  0  0  0
   46.6102   55.6332   32.5417 C   0  0  1  0  0  0  0  0  0  0  0  0
   45.9307   54.3914   32.3055 O   0  0  0  0  0  0  0  0  0  0  0  0
   47.8967   55.5020   33.3239 C   0  0  1  0  0  0  0  0  0  0  0  0
   46.0798   52.8530   25.5663 O   0  0  0  0  0  0  0  0  0  0  0  0
   45.7886   52.7084   36.9322 N   0  0  0  0  0  0  0  0  0  0  0  0
   45.2965   53.1793   35.7853 C   0  0  0  0  0  0  0  0  0  0  0  0
   46.0484   53.8685   34.9279 N   0  0  0  0  0  0  0  0  0  0  0  0
   47.3010   54.2262   35.2409 C   0  0  0  0  0  0  0  0  0  0  0  0
   47.8443   53.7970   36.4936 C   0  0  0  0  0  0  0  0  0  0  0  0
   47.0188   53.0008   37.3343 C   0  0  0  0  0  0  0  0  0  0  0  0
   47.4680   52.5358   38.5383 N   0  0  0  0  0  0  0  0  0  0  0  0
   49.0980   54.2846   36.5696 N   0  0  0  0  0  0  0  0  0  0  0  0
   49.3656   54.9744   35.4827 C   0  0  0  0  0  0  0  0  0  0  0  0
   48.3051   54.9678   34.6103 N   0  0  0  0  0  0  0  0  0  0  0  0
  2  1  1  6  0  0  0
  2  3  1  0  0  0  0
  2  5  1  0  0  0  0
  3  4  1  0  0  0  0
  3 17  1  0  0  0  0
  5  6  1  0  0  0  0
  7  6  1  6  0  0  0
  7  8  1  0  0  0  0
  7  9  1  0  0  0  0
 10  9  1  1  0  0  0
 10 11  1  0  0  0  0
 10 12  1  0  0  0  0
 11 16  1  0  0  0  0
 12 13  1  6  0  0  0
 12 14  1  0  0  0  0
 14 15  1  6  0  0  0
 14 16  1  0  0  0  0
 16 27  1  1  0  0  0
 18 19  2  0  0  0  0
 18 23  1  0  0  0  0
 19 20  1  0  0  0  0
 20 21  2  0  0  0  0
 21 22  1  0  0  0  0
 21 27  1  0  0  0  0
 22 23  2  0  0  0  0
 22 25  1  0  0  0  0
 23 24  1  0  0  0  0
 25 26  2  0  0  0  0
 26 27  1  0  0  0  0
M  END
>  <CHROM.1>
143.51527282,-171.72195423,175.36498171,-65.71929363,-66.51835610,169.16633594
-99.11778798,47.86239840,54.13314342,31.47554306,1.44351139,-0.65273076,-1.68372803

>  <Name>
ligand

>  <RI>
0

>  <Rbt.Current_Directory>
/home/itssahil/PROJECTS/Mol_Feturizer/New_Systems/rnas/3IQN

>  <Rbt.Executable>
rbdock ($Id: //depot/dev/client3/rdock/2013.1/src/exe/rbdock.cxx#4 $)

>  <Rbt.Library>
libRbt.so (2013.1, Build901 2013/11/27)

>  <Rbt.Parameter_File>
/export/apps/rDock/src/rDock_2013.1_src/data/scripts/dock_solv.prm

>  <Rbt.Receptor>
prm/pocket_docking_5.prm

>  <SCORE>
-13.7791

>  <SCORE.INTER>
-8.92253

>  <SCORE.INTER.CONST>
1

>  <SCORE.INTER.POLAR>
0

>  <SCORE.INTER.ROT>
7

>  <SCORE.INTER.SOLV>
9.6297

>  <SCORE.INTER.VDW>
-17.4249

>  <SCORE.INTER.norm>
-0.330464

>  <SCORE.INTRA>
-4.85746

>  <SCORE.INTRA.DIHEDRAL>
-6.21253

>  <SCORE.INTRA.DIHEDRAL.0>
10.0365

>  <SCORE.INTRA.POLAR>
0

>  <SCORE.INTRA.POLAR.0>
0

>  <SCORE.INTRA.REPUL>
0

>  <SCORE.INTRA.REPUL.0>
0

>  <SCORE.INTRA.SOLV>
-0.776682

>  <SCORE.INTRA.SOLV.lig_0>
-48.6728

>  <SCORE.INTRA.VDW>
-1.36285

>  <SCORE.INTRA.VDW.0>
-1.10662

>  <SCORE.INTRA.norm>
-0.179906

>  <SCORE.RESTR>
0.00093411

>  <SCORE.RESTR.CAVITY>
0.00093411

>  <SCORE.RESTR.norm>
3.45967e-05

>  <SCORE.SYSTEM>
0

>  <SCORE.SYSTEM.CONST>
0

>  <SCORE.SYSTEM.DIHEDRAL>
0

>  <SCORE.SYSTEM.SOLV>
0

>  <SCORE.SYSTEM.norm>
0

>  <SCORE.heavy>
27

>  <SCORE.norm>
-0.510335

>  <RMSD>
5.214

$$$$
ligand
 OpenBabel11021811483D
libRbt.so/2013.1/901 2013/11/27
 27 29  0  0  0  0  0  0  0  0999 V2000
   51.3759   53.2070   25.8579 N   0  0  0  0  0  0  0  0  0  0  0  0
   51.3541   54.5227   26.5105 C   0  0  2  0  0  0  0  0  0  0  0  0
   52.3555   54.5162   27.6261 C   0  0  0  0  0  0  0  0  0  0  0  0
   53.0284   55.5105   27.8464 O   0  0  0  0  0  0  0  0  0  0  0  0
   49.9571   54.8127   27.0795 C   0  0  0  0  0  0  0  0  0  0  0  0
   49.9707   56.1840   27.7486 C   0  0  0  0  0  0  0  0  0  0  0  0
   48.3514   56.6807   28.4183 S   0  0  2  0  0  0  0  0  0  0  0  0
   47.3971   57.2084   26.9618 C   0  0  0  0  0  0  0  0  0  0  0  0
   48.4661   58.2970   29.2669 C   0  0  0  0  0  0  0  0  0  0  0  0
   47.2975   58.2664   30.2211 C   0  0  1  0  0  0  0  0  0  0  0  0
   47.7003   57.3801   31.2125 O   0  0  0  0  0  0  0  0  0  0  0  0
   46.9008   59.4868   31.0532 C   0  0  1  0  0  0  0  0  0  0  0  0
   45.9640   60.2979   30.4042 O   0  0  0  0  0  0  0  0  0  0  0  0
   46.3229   58.7211   32.3379 C   0  0  1  0  0  0  0  0  0  0  0  0
   45.2801   57.7780   32.0505 O   0  0  0  0  0  0  0  0  0  0  0  0
   47.6930   58.1053   32.5047 C   0  0  1  0  0  0  0  0  0  0  0  0
   52.4823   53.5198   28.3202 O   0  0  0  0  0  0  0  0  0  0  0  0
   46.0988   54.1328   35.1404 N   0  0  0  0  0  0  0  0  0  0  0  0
   45.4302   55.0369   34.4228 C   0  0  0  0  0  0  0  0  0  0  0  0
   46.0554   55.9991   33.7455 N   0  0  0  0  0  0  0  0  0  0  0  0
   47.3787   56.1751   33.8586 C   0  0  0  0  0  0  0  0  0  0  0  0
   48.1245   55.2654   34.6739 C   0  0  0  0  0  0  0  0  0  0  0  0
   47.4120   54.2135   35.3128 C   0  0  0  0  0  0  0  0  0  0  0  0
   48.0520   53.2926   36.0937 N   0  0  0  0  0  0  0  0  0  0  0  0
   49.4131   55.6559   34.6265 N   0  0  0  0  0  0  0  0  0  0  0  0
   49.5194   56.7210   33.8629 C   0  0  0  0  0  0  0  0  0  0  0  0
   48.3030   57.0886   33.3420 N   0  0  0  0  0  0  0  0  0  0  0  0
  2  1  1  1  0  0  0
  2  3  1  0  0  0  0
  2  5  1  0  0  0  0
  3  4  1  0  0  0  0
  3 17  1  0  0  0  0
  5  6  1  0  0  0  0
  7  6  1  6  0  0  0
  7  8  1  0  0  0  0
  7  9  1  0  0  0  0
 10  9  1  6  0  0  0
 10 11  1  0  0  0  0
 10 12  1  0  0  0  0
 11 16  1  0  0  0  0
 12 13  1  6  0  0  0
 12 14  1  0  0  0  0
 14 15  1  6  0  0  0
 14 16  1  0  0  0  0
 16 27  1  1  0  0  0
 18 19  2  0  0  0  0
 18 23  1  0  0  0  0
 19 20  1  0  0  0  0
 20 21  2  0  0  0  0
 21 22  1  0  0  0  0
 21 27  1  0  0  0  0
 22 23  2  0  0  0  0
 22 25  1  0  0  0  0
 23 24  1  0  0  0  0
 25 26  2  0  0  0  0
 26 27  1  0  0  0  0
M  END
>  <CHROM.1>
141.53091674,179.99928827,177.95709497,-77.30877218,-156.50990816,73.48232573
-86.43298587,48.44661331,56.27340624,30.90437363,-0.76729699,-0.79857285
2.05940735

>  <Name>
ligand

>  <RI>
0

>  <Rbt.Current_Directory>
/home/itssahil/PROJECTS/Mol_Feturizer/New_Systems/rnas/3IQN

>  <Rbt.Executable>
rbdock ($Id: //depot/dev/client3/rdock/2013.1/src/exe/rbdock.cxx#4 $)

>  <Rbt.Library>
libRbt.so (2013.1, Build901 2013/11/27)

>  <Rbt.Parameter_File>
/export/apps/rDock/src/rDock_2013.1_src/data/scripts/dock_solv.prm

>  <Rbt.Receptor>
prm/pocket_docking_8.prm

>  <SCORE>
-21.1189

>  <SCORE.INTER>
-18.0089

>  <SCORE.INTER.CONST>
1

>  <SCORE.INTER.POLAR>
0

>  <SCORE.INTER.ROT>
7

>  <SCORE.INTER.SOLV>
11.6344

>  <SCORE.INTER.VDW>
-24.1507

>  <SCORE.INTER.norm>
-0.666995

>  <SCORE.INTRA>
-3.11006

>  <SCORE.INTRA.DIHEDRAL>
-3.83713

>  <SCORE.INTRA.DIHEDRAL.0>
10.0365

>  <SCORE.INTRA.POLAR>
0

>  <SCORE.INTRA.POLAR.0>
0

>  <SCORE.INTRA.REPUL>
0

>  <SCORE.INTRA.REPUL.0>
0

>  <SCORE.INTRA.SOLV>
-0.929963

>  <SCORE.INTRA.SOLV.lig_0>
-48.6728

>  <SCORE.INTRA.VDW>
-0.726519

>  <SCORE.INTRA.VDW.0>
-1.10662

>  <SCORE.INTRA.norm>
-0.115188

>  <SCORE.RESTR>
0

>  <SCORE.RESTR.CAVITY>
0

>  <SCORE.RESTR.norm>
0

>  <SCORE.SYSTEM>
0

>  <SCORE.SYSTEM.CONST>
0

>  <SCORE.SYSTEM.DIHEDRAL>
0

>  <SCORE.SYSTEM.SOLV>
0

>  <SCORE.SYSTEM.norm>
0

>  <SCORE.heavy>
27

>  <SCORE.norm>
-0.782183

>  <RMSD>
5.222

$$$$
ligand
 OpenBabel11021811483D
libRbt.so/2013.1/901 2013/11/27
 27 29  0  0  0  0  0  0  0  0999 V2000
   46.7851   58.5985   29.3646 N   0  0  0  0  0  0  0  0  0  0  0  0
   47.9920   57.9723   28.8090 C   0  0  2  0  0  0  0  0  0  0  0  0
   47.6013   57.1792   27.5983 C   0  0  0  0  0  0  0  0  0  0  0  0
   46.6170   56.4581   27.6341 O   0  0  0  0  0  0  0  0  0  0  0  0
   48.6340   57.0386   29.8461 C   0  0  0  0  0  0  0  0  0  0  0  0
   49.2076   57.8809   30.9817 C   0  0  0  0  0  0  0  0  0  0  0  0
   48.7425   57.2801   32.6371 S   0  0  2  0  0  0  0  0  0  0  0  0
   49.6133   58.3892   33.7869 C   0  0  0  0  0  0  0  0  0  0  0  0
   49.6243   55.7284   33.0377 C   0  0  0  0  0  0  0  0  0  0  0  0
   48.7947   55.1413   34.1531 C   0  0  1  0  0  0  0  0  0  0  0  0
   47.5780   54.8533   33.5469 O   0  0  0  0  0  0  0  0  0  0  0  0
   49.1368   53.7950   34.7930 C   0  0  1  0  0  0  0  0  0  0  0  0
   49.9857   53.9254   35.8971 O   0  0  0  0  0  0  0  0  0  0  0  0
   47.6501   53.3235   35.1644 C   0  0  1  0  0  0  0  0  0  0  0  0
   46.9172   54.2498   35.9795 O   0  0  0  0  0  0  0  0  0  0  0  0
   47.3288   53.3996   33.6896 C   0  0  1  0  0  0  0  0  0  0  0  0
   48.2617   57.2706   26.5755 O   0  0  0  0  0  0  0  0  0  0  0  0
   42.5536   51.9663   34.3318 N   0  0  0  0  0  0  0  0  0  0  0  0
   43.5838   51.9953   35.1788 C   0  0  0  0  0  0  0  0  0  0  0  0
   44.7766   52.4676   34.8191 N   0  0  0  0  0  0  0  0  0  0  0  0
   45.0266   52.8182   33.5504 C   0  0  0  0  0  0  0  0  0  0  0  0
   43.9643   52.7377   32.5945 C   0  0  0  0  0  0  0  0  0  0  0  0
   42.6930   52.2965   33.0543 C   0  0  0  0  0  0  0  0  0  0  0  0
   41.6223   52.2086   32.2096 N   0  0  0  0  0  0  0  0  0  0  0  0
   44.4671   53.1345   31.4091 N   0  0  0  0  0  0  0  0  0  0  0  0
   45.7368   53.4436   31.5541 C   0  0  0  0  0  0  0  0  0  0  0  0
   46.1462   53.2864   32.8555 N   0  0  0  0  0  0  0  0  0  0  0  0
  2  1  1  1  0  0  0
  2  3  1  0  0  0  0
  2  5  1  0  0  0  0
  3  4  1  0  0  0  0
  3 17  1  0  0  0  0
  5  6  1  0  0  0  0
  7  6  1  6  0  0  0
  7  8  1  0  0  0  0
  7  9  1  0  0  0  0
 10  9  1  6  0  0  0
 10 11  1  0  0  0  0
 10 12  1  0  0  0  0
 11 16  1  0  0  0  0
 12 13  1  1  0  0  0
 12 14  1  0  0  0  0
 14 15  1  1  0  0  0
 14 16  1  0  0  0  0
 16 27  1  1  0  0  0
 18 19  2  0  0  0  0
 18 23  1  0  0  0  0
 19 20  1  0  0  0  0
 20 21  2  0  0  0  0
 21 22  1  0  0  0  0
 21 27  1  0  0  0  0
 22 23  2  0  0  0  0
 22 25  1  0  0  0  0
 23 24  1  0  0  0  0
 25 26  2  0  0  0  0
 26 27  1  0  0  0  0
M  END
>  <CHROM.1>
-45.13067317,-68.82150798,131.79255854,177.14145040,-160.83966708,65.22774390
-119.62352501,46.87800550,54.95474817,32.40417768,0.95326096,-0.56087508
-1.10620356

>  <Name>
ligand

>  <RI>
0

>  <Rbt.Current_Directory>
/home/itssahil/PROJECTS/Mol_Feturizer/New_Systems/rnas/3IQN

>  <Rbt.Executable>
rbdock ($Id: //depot/dev/client3/rdock/2013.1/src/exe/rbdock.cxx#4 $)

>  <Rbt.Library>
libRbt.so (2013.1, Build901 2013/11/27)

>  <Rbt.Parameter_File>
/export/apps/rDock/src/rDock_2013.1_src/data/scripts/dock_solv.prm

>  <Rbt.Receptor>
prm/pocket_docking_8.prm

>  <SCORE>
-13.1991

>  <SCORE.INTER>
-11.9291

>  <SCORE.INTER.CONST>
1

>  <SCORE.INTER.POLAR>
0

>  <SCORE.INTER.ROT>
7

>  <SCORE.INTER.SOLV>
10.5728

>  <SCORE.INTER.VDW>
-19.7437

>  <SCORE.INTER.norm>
-0.441818

>  <SCORE.INTRA>
-1.32949

>  <SCORE.INTRA.DIHEDRAL>
0.167983

>  <SCORE.INTRA.DIHEDRAL.0>
10.0365

>  <SCORE.INTRA.POLAR>
0

>  <SCORE.INTRA.POLAR.0>
0

>  <SCORE.INTRA.REPUL>
0

>  <SCORE.INTRA.REPUL.0>
0

>  <SCORE.INTRA.SOLV>
0.0593678

>  <SCORE.INTRA.SOLV.lig_0>
-48.6728

>  <SCORE.INTRA.VDW>
-1.44316

>  <SCORE.INTRA.VDW.0>
-1.10662

>  <SCORE.INTRA.norm>
-0.0492402

>  <SCORE.RESTR>
0.0594308

>  <SCORE.RESTR.CAVITY>
0.0594308

>  <SCORE.RESTR.norm>
0.00220114

>  <SCORE.SYSTEM>
0

>  <SCORE.SYSTEM.CONST>
0

>  <SCORE.SYSTEM.DIHEDRAL>
0

>  <SCORE.SYSTEM.SOLV>
0

>  <SCORE.SYSTEM.norm>
0

>  <SCORE.heavy>
27

>  <SCORE.norm>
-0.488857

>  <RMSD>
5.222

$$$$
ligand
 OpenBabel11021811483D
libRbt.so/2013.1/901 2013/11/27
 27 29  0  0  0  0  0  0  0  0999 V2000
   48.2466   53.6076   28.7266 N   0  0  0  0  0  0  0  0  0  0  0  0
   49.4742   53.5433   27.9227 C   0  0  2  0  0  0  0  0  0  0  0  0
   50.0672   52.1743   28.0698 C   0  0  0  0  0  0  0  0  0  0  0  0
   49.5295   51.3522   28.7946 O   0  0  0  0  0  0  0  0  0  0  0  0
   50.4852   54.5929   28.4082 C   0  0  0  0  0  0  0  0  0  0  0  0
   50.0817   55.9586   27.8602 C   0  0  0  0  0  0  0  0  0  0  0  0
   48.5641   56.6242   28.6159 S   0  0  2  0  0  0  0  0  0  0  0  0
   47.7683   57.5732   27.2830 C   0  0  0  0  0  0  0  0  0  0  0  0
   48.9525   58.0123   29.7419 C   0  0  0  0  0  0  0  0  0  0  0  0
   47.6328   58.2807   30.4225 C   0  0  1  0  0  0  0  0  0  0  0  0
   47.4987   57.2256   31.3168 O   0  0  0  0  0  0  0  0  0  0  0  0
   47.4284   59.4833   31.3450 C   0  0  1  0  0  0  0  0  0  0  0  0
   46.9638   60.6118   30.6614 O   0  0  0  0  0  0  0  0  0  0  0  0
   46.3540   58.8369   32.3442 C   0  0  1  0  0  0  0  0  0  0  0  0
   45.1800   58.3179   31.7023 O   0  0  0  0  0  0  0  0  0  0  0  0
   47.3940   57.7934   32.6815 C   0  0  1  0  0  0  0  0  0  0  0  0
   51.0783   51.8826   27.4507 O   0  0  0  0  0  0  0  0  0  0  0  0
   44.0622   54.5752   34.6336 N   0  0  0  0  0  0  0  0  0  0  0  0
   43.8933   55.7176   33.9659 C   0  0  0  0  0  0  0  0  0  0  0  0
   44.9246   56.4069   33.4796 N   0  0  0  0  0  0  0  0  0  0  0  0
   46.1859   56.0452   33.7501 C   0  0  0  0  0  0  0  0  0  0  0  0
   46.4095   54.8606   34.5215 C   0  0  0  0  0  0  0  0  0  0  0  0
   45.2699   54.1257   34.9500 C   0  0  0  0  0  0  0  0  0  0  0  0
   45.3973   52.9743   35.6751 N   0  0  0  0  0  0  0  0  0  0  0  0
   47.7428   54.7211   34.6561 N   0  0  0  0  0  0  0  0  0  0  0  0
   48.3503   55.7131   34.0432 C   0  0  0  0  0  0  0  0  0  0  0  0
   47.4498   56.5617   33.4475 N   0  0  0  0  0  0  0  0  0  0  0  0
  2  1  1  1  0  0  0
  2  3  1  0  0  0  0
  2  5  1  0  0  0  0
  3  4  1  0  0  0  0
  3 17  1  0  0  0  0
  5  6  1  0  0  0  0
  7  6  1  6  0  0  0
  7  8  1  0  0  0  0
  7  9  1  0  0  0  0
 10  9  1  1  0  0  0
 10 11  1  0  0  0  0
 10 12  1  0  0  0  0
 11 16  1  0  0  0  0
 12 13  1  6  0  0  0
 12 14  1  0  0  0  0
 14 15  1  6  0  0  0
 14 16  1  0  0  0  0
 16 27  1  1  0  0  0
 18 19  2  0  0  0  0
 18 23  1  0  0  0  0
 19 20  1  0  0  0  0
 20 21  2  0  0  0  0
 21 22  1  0  0  0  0
 21 27  1  0  0  0  0
 22 23  2  0  0  0  0
 22 25  1  0  0  0  0
 23 24  1  0  0  0  0
 25 26  2  0  0  0  0
 26 27  1  0  0  0  0
M  END
>  <CHROM.1>
-1.37926030,-78.55358906,70.00431815,-147.11696398,-171.48980622,74.36174741
-93.75350287,47.58287421,55.88861187,31.12620018,-0.01628390,-0.99750148
2.79664753

>  <Name>
ligand

>  <RI>
0

>  <Rbt.Current_Directory>
/home/itssahil/PROJECTS/Mol_Feturizer/New_Systems/rnas/3IQN

>  <Rbt.Executable>
rbdock ($Id: //depot/dev/client3/rdock/2013.1/src/exe/rbdock.cxx#4 $)

>  <Rbt.Library>
libRbt.so (2013.1, Build901 2013/11/27)

>  <Rbt.Parameter_File>
/export/apps/rDock/src/rDock_2013.1_src/data/scripts/dock_solv.prm

>  <Rbt.Receptor>
prm/pocket_docking_8.prm

>  <SCORE>
-15.6809

>  <SCORE.INTER>
-14.8964

>  <SCORE.INTER.CONST>
1

>  <SCORE.INTER.POLAR>
0

>  <SCORE.INTER.ROT>
7

>  <SCORE.INTER.SOLV>
11.5704

>  <SCORE.INTER.VDW>
-22.0544

>  <SCORE.INTER.norm>
-0.551719

>  <SCORE.INTRA>
-0.78448

>  <SCORE.INTRA.DIHEDRAL>
-0.611831

>  <SCORE.INTRA.DIHEDRAL.0>
10.0365

>  <SCORE.INTRA.POLAR>
0

>  <SCORE.INTRA.POLAR.0>
0

>  <SCORE.INTRA.REPUL>
0

>  <SCORE.INTRA.REPUL.0>
0

>  <SCORE.INTRA.SOLV>
1.31439

>  <SCORE.INTRA.SOLV.lig_0>
-48.6728

>  <SCORE.INTRA.VDW>
-1.13576

>  <SCORE.INTRA.VDW.0>
-1.10662

>  <SCORE.INTRA.norm>
-0.0290548

>  <SCORE.RESTR>
0

>  <SCORE.RESTR.CAVITY>
0

>  <SCORE.RESTR.norm>
0

>  <SCORE.SYSTEM>
0

>  <SCORE.SYSTEM.CONST>
0

>  <SCORE.SYSTEM.DIHEDRAL>
0

>  <SCORE.SYSTEM.SOLV>
0

>  <SCORE.SYSTEM.norm>
0

>  <SCORE.heavy>
27

>  <SCORE.norm>
-0.580774

>  <RMSD>
5.223

$$$$
ligand
 OpenBabel11021811483D
libRbt.so/2013.1/901 2013/11/27
 27 29  0  0  0  0  0  0  0  0999 V2000
   45.4856   57.5725   32.4913 N   0  0  0  0  0  0  0  0  0  0  0  0
   45.8865   57.1369   31.1471 C   0  0  2  0  0  0  0  0  0  0  0  0
   44.7315   56.4188   30.5164 C   0  0  0  0  0  0  0  0  0  0  0  0
   43.9517   55.7892   31.2133 O   0  0  0  0  0  0  0  0  0  0  0  0
   47.0927   56.1896   31.2310 C   0  0  0  0  0  0  0  0  0  0  0  0
   48.3329   56.9995   31.5977 C   0  0  0  0  0  0  0  0  0  0  0  0
   48.5563   57.2116   33.3928 S   0  0  2  0  0  0  0  0  0  0  0  0
   49.8328   58.4991   33.5453 C   0  0  0  0  0  0  0  0  0  0  0  0
   49.4975   55.8122   34.1012 C   0  0  0  0  0  0  0  0  0  0  0  0
   48.4357   55.0120   34.8150 C   0  0  1  0  0  0  0  0  0  0  0  0
   47.5005   54.7408   33.8238 O   0  0  0  0  0  0  0  0  0  0  0  0
   48.7098   53.6096   35.3601 C   0  0  1  0  0  0  0  0  0  0  0  0
   49.1622   53.6267   36.6837 O   0  0  0  0  0  0  0  0  0  0  0  0
   47.2408   52.9930   35.1801 C   0  0  1  0  0  0  0  0  0  0  0  0
   46.1986   53.7372   35.8278 O   0  0  0  0  0  0  0  0  0  0  0  0
   47.3783   53.2692   33.7006 C   0  0  1  0  0  0  0  0  0  0  0  0
   44.5671   56.4802   29.3081 O   0  0  0  0  0  0  0  0  0  0  0  0
   48.0544   52.8470   28.7374 N   0  0  0  0  0  0  0  0  0  0  0  0
   48.9308   52.9325   29.7394 C   0  0  0  0  0  0  0  0  0  0  0  0
   48.5404   52.9868   31.0122 N   0  0  0  0  0  0  0  0  0  0  0  0
   47.2433   53.0845   31.3330 C   0  0  0  0  0  0  0  0  0  0  0  0
   46.2730   53.0640   30.2811 C   0  0  0  0  0  0  0  0  0  0  0  0
   46.7468   52.9295   28.9470 C   0  0  0  0  0  0  0  0  0  0  0  0
   45.8851   52.8836   27.8873 N   0  0  0  0  0  0  0  0  0  0  0  0
   45.0609   53.1799   30.8577 N   0  0  0  0  0  0  0  0  0  0  0  0
   45.2041   53.2744   32.1613 C   0  0  0  0  0  0  0  0  0  0  0  0
   46.5260   53.2070   32.5272 N   0  0  0  0  0  0  0  0  0  0  0  0
  2  1  1  1  0  0  0
  2  3  1  0  0  0  0
  2  5  1  0  0  0  0
  3  4  1  0  0  0  0
  3 17  1  0  0  0  0
  5  6  1  0  0  0  0
  7  6  1  6  0  0  0
  7  8  1  0  0  0  0
  7  9  1  0  0  0  0
 10  9  1  6  0  0  0
 10 11  1  0  0  0  0
 10 12  1  0  0  0  0
 11 16  1  0  0  0  0
 12 13  1  1  0  0  0
 12 14  1  0  0  0  0
 14 15  1  1  0  0  0
 14 16  1  0  0  0  0
 16 27  1  6  0  0  0
 18 19  2  0  0  0  0
 18 23  1  0  0  0  0
 19 20  1  0  0  0  0
 20 21  2  0  0  0  0
 21 22  1  0  0  0  0
 21 27  1  0  0  0  0
 22 23  2  0  0  0  0
 22 25  1  0  0  0  0
 23 24  1  0  0  0  0
 25 26  2  0  0  0  0
 26 27  1  0  0  0  0
M  END
>  <CHROM.1>
-31.34954580,-72.41414148,86.64836411,-167.23639744,-105.11901650,56.07922307
93.38424184,47.14178247,54.81713449,32.24651458,2.90481444,1.10970708,-3.07057993

>  <Name>
ligand

>  <RI>
0

>  <Rbt.Current_Directory>
/home/itssahil/PROJECTS/Mol_Feturizer/New_Systems/rnas/3IQN

>  <Rbt.Executable>
rbdock ($Id: //depot/dev/client3/rdock/2013.1/src/exe/rbdock.cxx#4 $)

>  <Rbt.Library>
libRbt.so (2013.1, Build901 2013/11/27)

>  <Rbt.Parameter_File>
/export/apps/rDock/src/rDock_2013.1_src/data/scripts/dock_solv.prm

>  <Rbt.Receptor>
prm/pocket_docking_5.prm

>  <SCORE>
-14.494

>  <SCORE.INTER>
-11.2089

>  <SCORE.INTER.CONST>
1

>  <SCORE.INTER.POLAR>
0

>  <SCORE.INTER.ROT>
7

>  <SCORE.INTER.SOLV>
12.6663

>  <SCORE.INTER.VDW>
-19.9614

>  <SCORE.INTER.norm>
-0.415145

>  <SCORE.INTRA>
-3.28506

>  <SCORE.INTRA.DIHEDRAL>
0.41391

>  <SCORE.INTRA.DIHEDRAL.0>
10.0365

>  <SCORE.INTRA.POLAR>
0

>  <SCORE.INTRA.POLAR.0>
0

>  <SCORE.INTRA.REPUL>
0

>  <SCORE.INTRA.REPUL.0>
0

>  <SCORE.INTRA.SOLV>
1.32955

>  <SCORE.INTRA.SOLV.lig_0>
-48.6728

>  <SCORE.INTRA.VDW>
-4.15679

>  <SCORE.INTRA.VDW.0>
-1.10662

>  <SCORE.INTRA.norm>
-0.121669

>  <SCORE.RESTR>
0

>  <SCORE.RESTR.CAVITY>
0

>  <SCORE.RESTR.norm>
0

>  <SCORE.SYSTEM>
0

>  <SCORE.SYSTEM.CONST>
0

>  <SCORE.SYSTEM.DIHEDRAL>
0

>  <SCORE.SYSTEM.SOLV>
0

>  <SCORE.SYSTEM.norm>
0

>  <SCORE.heavy>
27

>  <SCORE.norm>
-0.536814

>  <RMSD>
5.225

$$$$
ligand
 OpenBabel11021811483D
libRbt.so/2013.1/901 2013/11/27
 27 29  0  0  0  0  0  0  0  0999 V2000
   46.8259   57.3591   28.4167 N   0  0  0  0  0  0  0  0  0  0  0  0
   47.4759   56.8067   29.6124 C   0  0  2  0  0  0  0  0  0  0  0  0
   46.5307   56.9352   30.7689 C   0  0  0  0  0  0  0  0  0  0  0  0
   46.2386   55.9508   31.4292 O   0  0  0  0  0  0  0  0  0  0  0  0
   48.7684   57.5771   29.9209 C   0  0  0  0  0  0  0  0  0  0  0  0
   49.5516   56.8208   30.9900 C   0  0  0  0  0  0  0  0  0  0  0  0
   48.9196   57.0875   32.6772 S   0  0  2  0  0  0  0  0  0  0  0  0
   49.6214   58.6891   33.1801 C   0  0  0  0  0  0  0  0  0  0  0  0
   49.7954   56.0197   33.8766 C   0  0  0  0  0  0  0  0  0  0  0  0
   48.7406   55.0176   34.2769 C   0  0  1  0  0  0  0  0  0  0  0  0
   48.2396   54.5594   33.0645 O   0  0  0  0  0  0  0  0  0  0  0  0
   49.0969   53.7019   34.9705 C   0  0  1  0  0  0  0  0  0  0  0  0
   49.0941   53.8120   36.3650 O   0  0  0  0  0  0  0  0  0  0  0  0
   47.9111   52.7955   34.3848 C   0  0  1  0  0  0  0  0  0  0  0  0
   46.5931   53.3087   34.6275 O   0  0  0  0  0  0  0  0  0  0  0  0
   48.4533   53.0942   33.0059 C   0  0  1  0  0  0  0  0  0  0  0  0
   46.0690   58.0286   31.0551 O   0  0  0  0  0  0  0  0  0  0  0  0
   50.6699   53.1683   28.4949 N   0  0  0  0  0  0  0  0  0  0  0  0
   51.1433   53.4440   29.7111 C   0  0  0  0  0  0  0  0  0  0  0  0
   50.3933   53.3112   30.8043 N   0  0  0  0  0  0  0  0  0  0  0  0
   49.0898   53.0144   30.7155 C   0  0  0  0  0  0  0  0  0  0  0  0
   48.5270   52.7767   29.4212 C   0  0  0  0  0  0  0  0  0  0  0  0
   49.3945   52.8603   28.2975 C   0  0  0  0  0  0  0  0  0  0  0  0
   48.9401   52.6300   27.0293 N   0  0  0  0  0  0  0  0  0  0  0  0
   47.2192   52.5071   29.6012 N   0  0  0  0  0  0  0  0  0  0  0  0
   46.9335   52.5639   30.8833 C   0  0  0  0  0  0  0  0  0  0  0  0
   48.0461   52.8575   31.6330 N   0  0  0  0  0  0  0  0  0  0  0  0
  2  1  1  6  0  0  0
  2  3  1  0  0  0  0
  2  5  1  0  0  0  0
  3  4  1  0  0  0  0
  3 17  1  0  0  0  0
  5  6  1  0  0  0  0
  7  6  1  6  0  0  0
  7  8  1  0  0  0  0
  7  9  1  0  0  0  0
 10  9  1  6  0  0  0
 10 11  1  0  0  0  0
 10 12  1  0  0  0  0
 11 16  1  0  0  0  0
 12 13  1  1  0  0  0
 12 14  1  0  0  0  0
 14 15  1  6  0  0  0
 14 16  1  0  0  0  0
 16 27  1  6  0  0  0
 18 19  2  0  0  0  0
 18 23  1  0  0  0  0
 19 20  1  0  0  0  0
 20 21  2  0  0  0  0
 21 22  1  0  0  0  0
 21 27  1  0  0  0  0
 22 23  2  0  0  0  0
 22 25  1  0  0  0  0
 23 24  1  0  0  0  0
 25 26  2  0  0  0  0
 26 27  1  0  0  0  0
M  END
>  <CHROM.1>
125.69236409,-169.17852164,-79.26893960,-80.61855263,-109.93228211,50.09673825
87.51170345,48.44571401,54.86403903,31.58378178,1.32759860,1.38095945,-1.55798185

>  <Name>
ligand

>  <RI>
0

>  <Rbt.Current_Directory>
/home/itssahil/PROJECTS/Mol_Feturizer/New_Systems/rnas/3IQN

>  <Rbt.Executable>
rbdock ($Id: //depot/dev/client3/rdock/2013.1/src/exe/rbdock.cxx#4 $)

>  <Rbt.Library>
libRbt.so (2013.1, Build901 2013/11/27)

>  <Rbt.Parameter_File>
/export/apps/rDock/src/rDock_2013.1_src/data/scripts/dock_solv.prm

>  <Rbt.Receptor>
prm/pocket_docking_3.prm

>  <SCORE>
-18.0756

>  <SCORE.INTER>
-14.325

>  <SCORE.INTER.CONST>
1

>  <SCORE.INTER.POLAR>
0

>  <SCORE.INTER.ROT>
7

>  <SCORE.INTER.SOLV>
7.59882

>  <SCORE.INTER.VDW>
-20.3496

>  <SCORE.INTER.norm>
-0.530554

>  <SCORE.INTRA>
-3.75068

>  <SCORE.INTRA.DIHEDRAL>
-0.633311

>  <SCORE.INTRA.DIHEDRAL.0>
10.0365

>  <SCORE.INTRA.POLAR>
0

>  <SCORE.INTRA.POLAR.0>
0

>  <SCORE.INTRA.REPUL>
0

>  <SCORE.INTRA.REPUL.0>
0

>  <SCORE.INTRA.SOLV>
-0.845495

>  <SCORE.INTRA.SOLV.lig_0>
-48.6728

>  <SCORE.INTRA.VDW>
-3.01128

>  <SCORE.INTRA.VDW.0>
-1.10662

>  <SCORE.INTRA.norm>
-0.138914

>  <SCORE.RESTR>
0

>  <SCORE.RESTR.CAVITY>
0

>  <SCORE.RESTR.norm>
0

>  <SCORE.SYSTEM>
0

>  <SCORE.SYSTEM.CONST>
0

>  <SCORE.SYSTEM.DIHEDRAL>
0

>  <SCORE.SYSTEM.SOLV>
0

>  <SCORE.SYSTEM.norm>
0

>  <SCORE.heavy>
27

>  <SCORE.norm>
-0.669468

>  <RMSD>
5.226

$$$$
ligand
 OpenBabel11021811483D
libRbt.so/2013.1/901 2013/11/27
 27 29  0  0  0  0  0  0  0  0999 V2000
   48.1104   58.1204   28.0631 N   0  0  0  0  0  0  0  0  0  0  0  0
   49.1746   57.1632   28.3928 C   0  0  2  0  0  0  0  0  0  0  0  0
   49.0750   55.9999   27.4525 C   0  0  0  0  0  0  0  0  0  0  0  0
   50.0873   55.5213   26.9662 O   0  0  0  0  0  0  0  0  0  0  0  0
   49.0168   56.6670   29.8379 C   0  0  0  0  0  0  0  0  0  0  0  0
   49.3282   57.8163   30.7920 C   0  0  0  0  0  0  0  0  0  0  0  0
   48.8067   57.4966   32.5076 S   0  0  2  0  0  0  0  0  0  0  0  0
   49.3770   58.9529   33.4374 C   0  0  0  0  0  0  0  0  0  0  0  0
   49.8795   56.2387   33.2903 C   0  0  0  0  0  0  0  0  0  0  0  0
   48.8932   55.2154   33.7975 C   0  0  1  0  0  0  0  0  0  0  0  0
   48.4066   54.6198   32.6402 O   0  0  0  0  0  0  0  0  0  0  0  0
   49.3382   53.9918   34.6000 C   0  0  1  0  0  0  0  0  0  0  0  0
   49.3458   54.2275   35.9788 O   0  0  0  0  0  0  0  0  0  0  0  0
   48.2034   52.9664   34.1191 C   0  0  1  0  0  0  0  0  0  0  0  0
   46.8594   53.4192   34.3381 O   0  0  0  0  0  0  0  0  0  0  0  0
   48.7093   53.1708   32.7096 C   0  0  1  0  0  0  0  0  0  0  0  0
   47.9811   55.5258   27.1893 O   0  0  0  0  0  0  0  0  0  0  0  0
   50.8561   52.9871   28.1680 N   0  0  0  0  0  0  0  0  0  0  0  0
   51.3261   53.4005   29.3460 C   0  0  0  0  0  0  0  0  0  0  0  0
   50.6011   53.3169   30.4608 N   0  0  0  0  0  0  0  0  0  0  0  0
   49.3194   52.9289   30.4234 C   0  0  0  0  0  0  0  0  0  0  0  0
   48.7565   52.5405   29.1660 C   0  0  0  0  0  0  0  0  0  0  0  0
   49.6015   52.5800   28.0229 C   0  0  0  0  0  0  0  0  0  0  0  0
   49.1468   52.2084   26.7889 N   0  0  0  0  0  0  0  0  0  0  0  0
   47.4722   52.2031   29.3940 N   0  0  0  0  0  0  0  0  0  0  0  0
   47.2003   52.3552   30.6714 C   0  0  0  0  0  0  0  0  0  0  0  0
   48.3006   52.7866   31.3708 N   0  0  0  0  0  0  0  0  0  0  0  0
  2  1  1  6  0  0  0
  2  3  1  0  0  0  0
  2  5  1  0  0  0  0
  3  4  1  0  0  0  0
  3 17  1  0  0  0  0
  5  6  1  0  0  0  0
  7  6  1  6  0  0  0
  7  8  1  0  0  0  0
  7  9  1  0  0  0  0
 10  9  1  6  0  0  0
 10 11  1  0  0  0  0
 10 12  1  0  0  0  0
 11 16  1  0  0  0  0
 12 13  1  1  0  0  0
 12 14  1  0  0  0  0
 14 15  1  6  0  0  0
 14 16  1  0  0  0  0
 16 27  1  6  0  0  0
 18 19  2  0  0  0  0
 18 23  1  0  0  0  0
 19 20  1  0  0  0  0
 20 21  2  0  0  0  0
 21 22  1  0  0  0  0
 21 27  1  0  0  0  0
 22 23  2  0  0  0  0
 22 25  1  0  0  0  0
 23 24  1  0  0  0  0
 25 26  2  0  0  0  0
 26 27  1  0  0  0  0
M  END
>  <CHROM.1>
137.78560309,-69.19439123,166.33631892,176.67413451,-126.54960425,70.13474283
87.19035864,48.98167156,54.79637496,30.86710795,-0.66982366,1.46826703,0.55424988

>  <Name>
ligand

>  <RI>
0

>  <Rbt.Current_Directory>
/home/itssahil/PROJECTS/Mol_Feturizer/New_Systems/rnas/3IQN

>  <Rbt.Executable>
rbdock ($Id: //depot/dev/client3/rdock/2013.1/src/exe/rbdock.cxx#4 $)

>  <Rbt.Library>
libRbt.so (2013.1, Build901 2013/11/27)

>  <Rbt.Parameter_File>
/export/apps/rDock/src/rDock_2013.1_src/data/scripts/dock_solv.prm

>  <Rbt.Receptor>
prm/pocket_docking_4.prm

>  <SCORE>
-18.6998

>  <SCORE.INTER>
-14.4477

>  <SCORE.INTER.CONST>
1

>  <SCORE.INTER.POLAR>
0

>  <SCORE.INTER.ROT>
7

>  <SCORE.INTER.SOLV>
12.4656

>  <SCORE.INTER.VDW>
-22.0537

>  <SCORE.INTER.norm>
-0.5351

>  <SCORE.INTRA>
-4.2521

>  <SCORE.INTRA.DIHEDRAL>
-1.0863

>  <SCORE.INTRA.DIHEDRAL.0>
10.0365

>  <SCORE.INTRA.POLAR>
0

>  <SCORE.INTRA.POLAR.0>
0

>  <SCORE.INTRA.REPUL>
0

>  <SCORE.INTRA.REPUL.0>
0

>  <SCORE.INTRA.SOLV>
0.654017

>  <SCORE.INTRA.SOLV.lig_0>
-48.6728

>  <SCORE.INTRA.VDW>
-4.03596

>  <SCORE.INTRA.VDW.0>
-1.10662

>  <SCORE.INTRA.norm>
-0.157485

>  <SCORE.RESTR>
0

>  <SCORE.RESTR.CAVITY>
0

>  <SCORE.RESTR.norm>
0

>  <SCORE.SYSTEM>
0

>  <SCORE.SYSTEM.CONST>
0

>  <SCORE.SYSTEM.DIHEDRAL>
0

>  <SCORE.SYSTEM.SOLV>
0

>  <SCORE.SYSTEM.norm>
0

>  <SCORE.heavy>
27

>  <SCORE.norm>
-0.692585

>  <RMSD>
5.233

$$$$
ligand
 OpenBabel11021811483D
libRbt.so/2013.1/901 2013/11/27
 27 29  0  0  0  0  0  0  0  0999 V2000
   46.1688   56.4663   29.7410 N   0  0  0  0  0  0  0  0  0  0  0  0
   47.3022   57.3878   29.5879 C   0  0  2  0  0  0  0  0  0  0  0  0
   48.0718   56.9947   28.3630 C   0  0  0  0  0  0  0  0  0  0  0  0
   48.1583   55.8181   28.0494 O   0  0  0  0  0  0  0  0  0  0  0  0
   48.2218   57.3109   30.8158 C   0  0  0  0  0  0  0  0  0  0  0  0
   47.3973   57.5887   32.0693 C   0  0  0  0  0  0  0  0  0  0  0  0
   48.3957   57.6740   33.5903 S   0  0  2  0  0  0  0  0  0  0  0  0
   49.7026   58.8819   33.2118 C   0  0  0  0  0  0  0  0  0  0  0  0
   49.4448   56.1857   33.7644 C   0  0  0  0  0  0  0  0  0  0  0  0
   48.4803   55.0547   33.5047 C   0  0  1  0  0  0  0  0  0  0  0  0
   48.7700   54.6621   32.2037 O   0  0  0  0  0  0  0  0  0  0  0  0
   48.5777   53.7219   34.2486 C   0  0  1  0  0  0  0  0  0  0  0  0
   47.8152   53.7044   35.4213 O   0  0  0  0  0  0  0  0  0  0  0  0
   48.0188   52.7625   33.0920 C   0  0  1  0  0  0  0  0  0  0  0  0
   46.7219   53.1223   32.5940 O   0  0  0  0  0  0  0  0  0  0  0  0
   49.1701   53.2357   32.2348 C   0  0  1  0  0  0  0  0  0  0  0  0
   48.5964   57.8562   27.6749 O   0  0  0  0  0  0  0  0  0  0  0  0
   47.0096   51.9252   27.8893 N   0  0  0  0  0  0  0  0  0  0  0  0
   46.5202   51.9940   29.1283 C   0  0  0  0  0  0  0  0  0  0  0  0
   47.2570   52.4221   30.1526 N   0  0  0  0  0  0  0  0  0  0  0  0
   48.5624   52.6834   30.0025 C   0  0  0  0  0  0  0  0  0  0  0  0
   49.1421   52.5566   28.7000 C   0  0  0  0  0  0  0  0  0  0  0  0
   48.2884   52.1675   27.6313 C   0  0  0  0  0  0  0  0  0  0  0  0
   48.7593   52.0408   26.3547 N   0  0  0  0  0  0  0  0  0  0  0  0
   50.4484   52.8656   28.8159 N   0  0  0  0  0  0  0  0  0  0  0  0
   50.7180   53.1631   30.0679 C   0  0  0  0  0  0  0  0  0  0  0  0
   49.5952   53.0863   30.8550 N   0  0  0  0  0  0  0  0  0  0  0  0
  2  1  1  1  0  0  0
  2  3  1  0  0  0  0
  2  5  1  0  0  0  0
  3  4  1  0  0  0  0
  3 17  1  0  0  0  0
  5  6  1  0  0  0  0
  7  6  1  6  0  0  0
  7  8  1  0  0  0  0
  7  9  1  0  0  0  0
 10  9  1  1  0  0  0
 10 11  1  0  0  0  0
 10 12  1  0  0  0  0
 11 16  1  0  0  0  0
 12 13  1  1  0  0  0
 12 14  1  0  0  0  0
 14 15  1  6  0  0  0
 14 16  1  0  0  0  0
 16 27  1  6  0  0  0
 18 19  2  0  0  0  0
 18 23  1  0  0  0  0
 19 20  1  0  0  0  0
 20 21  2  0  0  0  0
 21 22  1  0  0  0  0
 21 27  1  0  0  0  0
 22 23  2  0  0  0  0
 22 25  1  0  0  0  0
 23 24  1  0  0  0  0
 25 26  2  0  0  0  0
 26 27  1  0  0  0  0
M  END
>  <CHROM.1>
-34.00064434,-55.62745966,-174.89795202,52.68595150,-47.92897493,102.58053300
-90.18935360,48.33654290,54.77694852,30.91349142,0.94198103,-1.53566302,0.30848426

>  <Name>
ligand

>  <RI>
0

>  <Rbt.Current_Directory>
/home/itssahil/PROJECTS/Mol_Feturizer/New_Systems/rnas/3IQN

>  <Rbt.Executable>
rbdock ($Id: //depot/dev/client3/rdock/2013.1/src/exe/rbdock.cxx#4 $)

>  <Rbt.Library>
libRbt.so (2013.1, Build901 2013/11/27)

>  <Rbt.Parameter_File>
/export/apps/rDock/src/rDock_2013.1_src/data/scripts/dock_solv.prm

>  <Rbt.Receptor>
prm/pocket_docking_3.prm

>  <SCORE>
-16.3487

>  <SCORE.INTER>
-13.7089

>  <SCORE.INTER.CONST>
1

>  <SCORE.INTER.POLAR>
0

>  <SCORE.INTER.ROT>
7

>  <SCORE.INTER.SOLV>
8.36464

>  <SCORE.INTER.VDW>
-20.1941

>  <SCORE.INTER.norm>
-0.507736

>  <SCORE.INTRA>
-2.63983

>  <SCORE.INTRA.DIHEDRAL>
-1.709

>  <SCORE.INTRA.DIHEDRAL.0>
10.0365

>  <SCORE.INTRA.POLAR>
0

>  <SCORE.INTRA.POLAR.0>
0

>  <SCORE.INTRA.REPUL>
0

>  <SCORE.INTRA.REPUL.0>
0

>  <SCORE.INTRA.SOLV>
0.225636

>  <SCORE.INTRA.SOLV.lig_0>
-48.6728

>  <SCORE.INTRA.VDW>
-1.89814

>  <SCORE.INTRA.VDW.0>
-1.10662

>  <SCORE.INTRA.norm>
-0.0977714

>  <SCORE.RESTR>
0

>  <SCORE.RESTR.CAVITY>
0

>  <SCORE.RESTR.norm>
0

>  <SCORE.SYSTEM>
0

>  <SCORE.SYSTEM.CONST>
0

>  <SCORE.SYSTEM.DIHEDRAL>
0

>  <SCORE.SYSTEM.SOLV>
0

>  <SCORE.SYSTEM.norm>
0

>  <SCORE.heavy>
27

>  <SCORE.norm>
-0.605508

>  <RMSD>
5.237

$$$$
ligand
 OpenBabel11021811483D
libRbt.so/2013.1/901 2013/11/27
 27 29  0  0  0  0  0  0  0  0999 V2000
   48.7225   56.1137   26.9000 N   0  0  0  0  0  0  0  0  0  0  0  0
   47.5875   56.2982   27.8138 C   0  0  2  0  0  0  0  0  0  0  0  0
   46.4698   55.4032   27.3697 C   0  0  0  0  0  0  0  0  0  0  0  0
   46.3735   55.0861   26.1948 O   0  0  0  0  0  0  0  0  0  0  0  0
   47.1135   57.7590   27.7875 C   0  0  0  0  0  0  0  0  0  0  0  0
   46.0239   57.9443   28.8395 C   0  0  0  0  0  0  0  0  0  0  0  0
   46.5671   57.5293   30.5277 S   0  0  2  0  0  0  0  0  0  0  0  0
   45.0770   56.8715   31.3383 C   0  0  0  0  0  0  0  0  0  0  0  0
   46.7772   59.0423   31.5340 C   0  0  0  0  0  0  0  0  0  0  0  0
   47.8710   58.6610   32.5012 C   0  0  1  0  0  0  0  0  0  0  0  0
   47.2771   57.7043   33.3152 O   0  0  0  0  0  0  0  0  0  0  0  0
   49.1327   57.9261   32.0461 C   0  0  1  0  0  0  0  0  0  0  0  0
   50.1647   58.8006   31.6898 O   0  0  0  0  0  0  0  0  0  0  0  0
   49.4175   57.0912   33.3850 C   0  0  1  0  0  0  0  0  0  0  0  0
   49.5367   57.8898   34.5714 O   0  0  0  0  0  0  0  0  0  0  0  0
   48.0609   56.4523   33.1961 C   0  0  1  0  0  0  0  0  0  0  0  0
   45.6688   54.9824   28.1895 O   0  0  0  0  0  0  0  0  0  0  0  0
   48.5995   53.2066   36.9966 N   0  0  0  0  0  0  0  0  0  0  0  0
   49.4924   53.9555   36.3474 C   0  0  0  0  0  0  0  0  0  0  0  0
   49.1316   54.8046   35.3861 N   0  0  0  0  0  0  0  0  0  0  0  0
   47.8679   54.8503   34.9436 C   0  0  0  0  0  0  0  0  0  0  0  0
   46.8911   54.0121   35.5696 C   0  0  0  0  0  0  0  0  0  0  0  0
   47.3216   53.1812   36.6404 C   0  0  0  0  0  0  0  0  0  0  0  0
   46.4484   52.3647   37.3026 N   0  0  0  0  0  0  0  0  0  0  0  0
   45.7176   54.2386   34.9477 N   0  0  0  0  0  0  0  0  0  0  0  0
   45.8909   55.1320   33.9988 C   0  0  0  0  0  0  0  0  0  0  0  0
   47.1930   55.5656   33.9493 N   0  0  0  0  0  0  0  0  0  0  0  0
  2  1  1  6  0  0  0
  2  3  1  0  0  0  0
  2  5  1  0  0  0  0
  3  4  1  0  0  0  0
  3 17  1  0  0  0  0
  5  6  1  0  0  0  0
  7  6  1  6  0  0  0
  7  8  1  0  0  0  0
  7  9  1  0  0  0  0
 10  9  1  6  0  0  0
 10 11  1  0  0  0  0
 10 12  1  0  0  0  0
 11 16  1  0  0  0  0
 12 13  1  1  0  0  0
 12 14  1  0  0  0  0
 14 15  1  1  0  0  0
 14 16  1  0  0  0  0
 16 27  1  1  0  0  0
 18 19  2  0  0  0  0
 18 23  1  0  0  0  0
 19 20  1  0  0  0  0
 20 21  2  0  0  0  0
 21 22  1  0  0  0  0
 21 27  1  0  0  0  0
 22 23  2  0  0  0  0
 22 25  1  0  0  0  0
 23 24  1  0  0  0  0
 25 26  2  0  0  0  0
 26 27  1  0  0  0  0
M  END
>  <CHROM.1>
-27.57832164,-174.77626732,58.47699241,-147.41488951,-149.85250776,-68.23292391
-128.72901464,47.44824352,56.15937314,32.16883788,1.77525306,-0.99235593
-1.09670319

>  <Name>
ligand

>  <RI>
0

>  <Rbt.Current_Directory>
/home/itssahil/PROJECTS/Mol_Feturizer/New_Systems/rnas/3IQN

>  <Rbt.Executable>
rbdock ($Id: //depot/dev/client3/rdock/2013.1/src/exe/rbdock.cxx#4 $)

>  <Rbt.Library>
libRbt.so (2013.1, Build901 2013/11/27)

>  <Rbt.Parameter_File>
/export/apps/rDock/src/rDock_2013.1_src/data/scripts/dock_solv.prm

>  <Rbt.Receptor>
prm/pocket_docking_5.prm

>  <SCORE>
-16.2037

>  <SCORE.INTER>
-14.5285

>  <SCORE.INTER.CONST>
1

>  <SCORE.INTER.POLAR>
0

>  <SCORE.INTER.ROT>
7

>  <SCORE.INTER.SOLV>
17.0093

>  <SCORE.INTER.VDW>
-23.6221

>  <SCORE.INTER.norm>
-0.538094

>  <SCORE.INTRA>
-1.67849

>  <SCORE.INTRA.DIHEDRAL>
-0.374532

>  <SCORE.INTRA.DIHEDRAL.0>
10.0365

>  <SCORE.INTRA.POLAR>
0

>  <SCORE.INTRA.POLAR.0>
0

>  <SCORE.INTRA.REPUL>
0

>  <SCORE.INTRA.REPUL.0>
0

>  <SCORE.INTRA.SOLV>
-0.512662

>  <SCORE.INTRA.SOLV.lig_0>
-48.6728

>  <SCORE.INTRA.VDW>
-1.23489

>  <SCORE.INTRA.VDW.0>
-1.10662

>  <SCORE.INTRA.norm>
-0.0621662

>  <SCORE.RESTR>
0.00327677

>  <SCORE.RESTR.CAVITY>
0.00327677

>  <SCORE.RESTR.norm>
0.000121362

>  <SCORE.SYSTEM>
0

>  <SCORE.SYSTEM.CONST>
0

>  <SCORE.SYSTEM.DIHEDRAL>
0

>  <SCORE.SYSTEM.SOLV>
0

>  <SCORE.SYSTEM.norm>
0

>  <SCORE.heavy>
27

>  <SCORE.norm>
-0.600139

>  <RMSD>
5.239

$$$$
ligand
 OpenBabel11021811483D
libRbt.so/2013.1/901 2013/11/27
 27 29  0  0  0  0  0  0  0  0999 V2000
   47.7760   53.2878   25.7785 N   0  0  0  0  0  0  0  0  0  0  0  0
   48.0903   53.4998   27.1975 C   0  0  2  0  0  0  0  0  0  0  0  0
   47.6926   52.2722   27.9606 C   0  0  0  0  0  0  0  0  0  0  0  0
   46.5923   51.7742   27.7829 O   0  0  0  0  0  0  0  0  0  0  0  0
   47.3172   54.7112   27.7399 C   0  0  0  0  0  0  0  0  0  0  0  0
   47.8587   55.0650   29.1218 C   0  0  0  0  0  0  0  0  0  0  0  0
   49.4572   55.9367   29.0734 S   0  0  2  0  0  0  0  0  0  0  0  0
   50.6944   54.6132   28.9050 C   0  0  0  0  0  0  0  0  0  0  0  0
   49.9239   56.5332   30.7384 C   0  0  0  0  0  0  0  0  0  0  0  0
   48.7737   57.4350   31.1138 C   0  0  1  0  0  0  0  0  0  0  0  0
   47.9314   56.6111   31.8503 O   0  0  0  0  0  0  0  0  0  0  0  0
   48.9503   58.6151   32.0704 C   0  0  1  0  0  0  0  0  0  0  0  0
   49.2721   59.8026   31.4047 O   0  0  0  0  0  0  0  0  0  0  0  0
   47.4874   58.6104   32.7267 C   0  0  1  0  0  0  0  0  0  0  0  0
   46.4106   58.7089   31.7832 O   0  0  0  0  0  0  0  0  0  0  0  0
   47.7766   57.2042   33.1994 C   0  0  1  0  0  0  0  0  0  0  0  0
   48.4786   51.7663   28.7461 O   0  0  0  0  0  0  0  0  0  0  0  0
   48.8859   53.3276   36.2011 N   0  0  0  0  0  0  0  0  0  0  0  0
   49.6645   54.2493   35.6322 C   0  0  0  0  0  0  0  0  0  0  0  0
   49.1597   55.2416   34.9002 N   0  0  0  0  0  0  0  0  0  0  0  0
   47.8546   55.2835   34.6002 C   0  0  0  0  0  0  0  0  0  0  0  0
   46.9946   54.2731   35.1369 C   0  0  0  0  0  0  0  0  0  0  0  0
   47.5797   53.2821   35.9723 C   0  0  0  0  0  0  0  0  0  0  0  0
   46.8253   52.2932   36.5385 N   0  0  0  0  0  0  0  0  0  0  0  0
   45.7506   54.5331   34.6895 N   0  0  0  0  0  0  0  0  0  0  0  0
   45.7750   55.6039   33.9269 C   0  0  0  0  0  0  0  0  0  0  0  0
   47.0409   56.1292   33.8398 N   0  0  0  0  0  0  0  0  0  0  0  0
  2  1  1  6  0  0  0
  2  3  1  0  0  0  0
  2  5  1  0  0  0  0
  3  4  1  0  0  0  0
  3 17  1  0  0  0  0
  5  6  1  0  0  0  0
  7  6  1  1  0  0  0
  7  8  1  0  0  0  0
  7  9  1  0  0  0  0
 10  9  1  1  0  0  0
 10 11  1  0  0  0  0
 10 12  1  0  0  0  0
 11 16  1  0  0  0  0
 12 13  1  6  0  0  0
 12 14  1  0  0  0  0
 14 15  1  6  0  0  0
 14 16  1  0  0  0  0
 16 27  1  6  0  0  0
 18 19  2  0  0  0  0
 18 23  1  0  0  0  0
 19 20  1  0  0  0  0
 20 21  2  0  0  0  0
 21 22  1  0  0  0  0
 21 27  1  0  0  0  0
 22 23  2  0  0  0  0
 22 25  1  0  0  0  0
 23 24  1  0  0  0  0
 25 26  2  0  0  0  0
 26 27  1  0  0  0  0
M  END
>  <CHROM.1>
-47.95830661,-169.34805376,76.48667255,-82.80429209,-58.88819914,94.86098479
98.23779940,48.07806918,55.26379813,31.57228892,1.14335501,-1.37655072,-2.15947270

>  <Name>
ligand

>  <RI>
0

>  <Rbt.Current_Directory>
/home/itssahil/PROJECTS/Mol_Feturizer/New_Systems/rnas/3IQN

>  <Rbt.Executable>
rbdock ($Id: //depot/dev/client3/rdock/2013.1/src/exe/rbdock.cxx#4 $)

>  <Rbt.Library>
libRbt.so (2013.1, Build901 2013/11/27)

>  <Rbt.Parameter_File>
/export/apps/rDock/src/rDock_2013.1_src/data/scripts/dock_solv.prm

>  <Rbt.Receptor>
prm/pocket_docking_7.prm

>  <SCORE>
-15.1626

>  <SCORE.INTER>
-12.0269

>  <SCORE.INTER.CONST>
1

>  <SCORE.INTER.POLAR>
0

>  <SCORE.INTER.ROT>
7

>  <SCORE.INTER.SOLV>
12.3425

>  <SCORE.INTER.VDW>
-20.3987

>  <SCORE.INTER.norm>
-0.445439

>  <SCORE.INTRA>
-3.13571

>  <SCORE.INTRA.DIHEDRAL>
-1.63099

>  <SCORE.INTRA.DIHEDRAL.0>
10.0365

>  <SCORE.INTRA.POLAR>
0

>  <SCORE.INTRA.POLAR.0>
0

>  <SCORE.INTRA.REPUL>
0

>  <SCORE.INTRA.REPUL.0>
0

>  <SCORE.INTRA.SOLV>
-0.799512

>  <SCORE.INTRA.SOLV.lig_0>
-48.6728

>  <SCORE.INTRA.VDW>
-1.92046

>  <SCORE.INTRA.VDW.0>
-1.10662

>  <SCORE.INTRA.norm>
-0.116137

>  <SCORE.RESTR>
0

>  <SCORE.RESTR.CAVITY>
0

>  <SCORE.RESTR.norm>
0

>  <SCORE.SYSTEM>
0

>  <SCORE.SYSTEM.CONST>
0

>  <SCORE.SYSTEM.DIHEDRAL>
0

>  <SCORE.SYSTEM.SOLV>
0

>  <SCORE.SYSTEM.norm>
0

>  <SCORE.heavy>
27

>  <SCORE.norm>
-0.561577

>  <RMSD>
5.254

$$$$
ligand
 OpenBabel11021811483D
libRbt.so/2013.1/901 2013/11/27
 27 29  0  0  0  0  0  0  0  0999 V2000
   48.8840   51.9919   27.9130 N   0  0  0  0  0  0  0  0  0  0  0  0
   48.8915   52.0679   29.3798 C   0  0  2  0  0  0  0  0  0  0  0  0
   47.6285   52.7404   29.8270 C   0  0  0  0  0  0  0  0  0  0  0  0
   46.8439   53.1754   28.9991 O   0  0  0  0  0  0  0  0  0  0  0  0
   50.1019   52.8791   29.8657 C   0  0  0  0  0  0  0  0  0  0  0  0
   50.2133   54.1502   29.0289 C   0  0  0  0  0  0  0  0  0  0  0  0
   49.0607   55.4624   29.5457 S   0  0  2  0  0  0  0  0  0  0  0  0
   49.3209   56.8000   28.3400 C   0  0  0  0  0  0  0  0  0  0  0  0
   49.6780   56.3200   31.0388 C   0  0  0  0  0  0  0  0  0  0  0  0
   48.6545   57.4071   31.2570 C   0  0  1  0  0  0  0  0  0  0  0  0
   47.5777   56.7407   31.8290 O   0  0  0  0  0  0  0  0  0  0  0  0
   48.8768   58.5368   32.2636 C   0  0  1  0  0  0  0  0  0  0  0  0
   49.4984   59.6517   31.6913 O   0  0  0  0  0  0  0  0  0  0  0  0
   47.3495   58.7849   32.6840 C   0  0  1  0  0  0  0  0  0  0  0  0
   46.4686   59.0708   31.5877 O   0  0  0  0  0  0  0  0  0  0  0  0
   47.3152   57.3490   33.1544 C   0  0  1  0  0  0  0  0  0  0  0  0
   47.3827   52.8360   31.0191 O   0  0  0  0  0  0  0  0  0  0  0  0
   47.3124   52.7337   35.1462 N   0  0  0  0  0  0  0  0  0  0  0  0
   48.3100   53.4945   34.6929 C   0  0  0  0  0  0  0  0  0  0  0  0
   48.1026   54.7317   34.2439 N   0  0  0  0  0  0  0  0  0  0  0  0
   46.8618   55.2194   34.1118 C   0  0  0  0  0  0  0  0  0  0  0  0
   45.7579   54.4073   34.5249 C   0  0  0  0  0  0  0  0  0  0  0  0
   46.0468   53.1242   35.0654 C   0  0  0  0  0  0  0  0  0  0  0  0
   45.0514   52.2945   35.4995 N   0  0  0  0  0  0  0  0  0  0  0  0
   44.6355   55.1138   34.2874 N   0  0  0  0  0  0  0  0  0  0  0  0
   44.9537   56.2771   33.7636 C   0  0  0  0  0  0  0  0  0  0  0  0
   46.3143   56.4169   33.6407 N   0  0  0  0  0  0  0  0  0  0  0  0
  2  1  1  6  0  0  0
  2  3  1  0  0  0  0
  2  5  1  0  0  0  0
  3  4  1  0  0  0  0
  3 17  1  0  0  0  0
  5  6  1  0  0  0  0
  7  6  1  6  0  0  0
  7  8  1  0  0  0  0
  7  9  1  0  0  0  0
 10  9  1  1  0  0  0
 10 11  1  0  0  0  0
 10 12  1  0  0  0  0
 11 16  1  0  0  0  0
 12 13  1  6  0  0  0
 12 14  1  0  0  0  0
 14 15  1  6  0  0  0
 14 16  1  0  0  0  0
 16 27  1  6  0  0  0
 18 19  2  0  0  0  0
 18 23  1  0  0  0  0
 19 20  1  0  0  0  0
 20 21  2  0  0  0  0
 21 22  1  0  0  0  0
 21 27  1  0  0  0  0
 22 23  2  0  0  0  0
 22 25  1  0  0  0  0
 23 24  1  0  0  0  0
 25 26  2  0  0  0  0
 26 27  1  0  0  0  0
M  END
>  <CHROM.1>
-3.73148417,45.96429377,79.54132385,-176.51394073,176.57550000,77.49439566
78.45503338,47.76226416,55.23159544,31.81817552,0.24142921,-1.04492486,-2.95054283

>  <Name>
ligand

>  <RI>
0

>  <Rbt.Current_Directory>
/home/itssahil/PROJECTS/Mol_Feturizer/New_Systems/rnas/3IQN

>  <Rbt.Executable>
rbdock ($Id: //depot/dev/client3/rdock/2013.1/src/exe/rbdock.cxx#4 $)

>  <Rbt.Library>
libRbt.so (2013.1, Build901 2013/11/27)

>  <Rbt.Parameter_File>
/export/apps/rDock/src/rDock_2013.1_src/data/scripts/dock_solv.prm

>  <Rbt.Receptor>
prm/pocket_docking_6.prm

>  <SCORE>
-14.6153

>  <SCORE.INTER>
-11.8025

>  <SCORE.INTER.CONST>
1

>  <SCORE.INTER.POLAR>
0

>  <SCORE.INTER.ROT>
7

>  <SCORE.INTER.SOLV>
13.6585

>  <SCORE.INTER.VDW>
-20.6878

>  <SCORE.INTER.norm>
-0.437131

>  <SCORE.INTRA>
-2.81277

>  <SCORE.INTRA.DIHEDRAL>
-3.61292

>  <SCORE.INTRA.DIHEDRAL.0>
10.0365

>  <SCORE.INTRA.POLAR>
0

>  <SCORE.INTRA.POLAR.0>
0

>  <SCORE.INTRA.REPUL>
0

>  <SCORE.INTRA.REPUL.0>
0

>  <SCORE.INTRA.SOLV>
0.401143

>  <SCORE.INTRA.SOLV.lig_0>
-48.6728

>  <SCORE.INTRA.VDW>
-1.20688

>  <SCORE.INTRA.VDW.0>
-1.10662

>  <SCORE.INTRA.norm>
-0.104177

>  <SCORE.RESTR>
0

>  <SCORE.RESTR.CAVITY>
0

>  <SCORE.RESTR.norm>
0

>  <SCORE.SYSTEM>
0

>  <SCORE.SYSTEM.CONST>
0

>  <SCORE.SYSTEM.DIHEDRAL>
0

>  <SCORE.SYSTEM.SOLV>
0

>  <SCORE.SYSTEM.norm>
0

>  <SCORE.heavy>
27

>  <SCORE.norm>
-0.541307

>  <RMSD>
5.256

$$$$
ligand
 OpenBabel11021811483D
libRbt.so/2013.1/901 2013/11/27
 27 29  0  0  0  0  0  0  0  0999 V2000
   44.5424   53.6812   31.3092 N   0  0  0  0  0  0  0  0  0  0  0  0
   45.6441   53.7447   30.3399 C   0  0  2  0  0  0  0  0  0  0  0  0
   46.8995   53.2833   31.0170 C   0  0  0  0  0  0  0  0  0  0  0  0
   47.7438   52.6707   30.3829 O   0  0  0  0  0  0  0  0  0  0  0  0
   45.8327   55.1850   29.8404 C   0  0  0  0  0  0  0  0  0  0  0  0
   46.8622   55.1869   28.7141 C   0  0  0  0  0  0  0  0  0  0  0  0
   47.0622   56.8122   27.9167 S   0  0  2  0  0  0  0  0  0  0  0  0
   48.3222   56.5391   26.6328 C   0  0  0  0  0  0  0  0  0  0  0  0
   48.0107   57.9508   28.9890 C   0  0  0  0  0  0  0  0  0  0  0  0
   47.0580   58.2222   30.1273 C   0  0  1  0  0  0  0  0  0  0  0  0
   47.4618   57.3355   31.1180 O   0  0  0  0  0  0  0  0  0  0  0  0
   47.0663   59.5478   30.8901 C   0  0  1  0  0  0  0  0  0  0  0  0
   46.1978   60.4930   30.3340 O   0  0  0  0  0  0  0  0  0  0  0  0
   46.6035   59.0001   32.3241 C   0  0  1  0  0  0  0  0  0  0  0  0
   45.3639   58.2769   32.3142 O   0  0  0  0  0  0  0  0  0  0  0  0
   47.8364   58.1259   32.3142 C   0  0  1  0  0  0  0  0  0  0  0  0
   47.0789   53.5366   32.1978 O   0  0  0  0  0  0  0  0  0  0  0  0
   45.9983   54.3293   35.0484 N   0  0  0  0  0  0  0  0  0  0  0  0
   45.3855   55.2896   34.3544 C   0  0  0  0  0  0  0  0  0  0  0  0
   46.0666   56.1867   33.6427 N   0  0  0  0  0  0  0  0  0  0  0  0
   47.4043   56.2383   33.6953 C   0  0  0  0  0  0  0  0  0  0  0  0
   48.0979   55.2655   34.4836 C   0  0  0  0  0  0  0  0  0  0  0  0
   47.3197   54.2872   35.1616 C   0  0  0  0  0  0  0  0  0  0  0  0
   47.9054   53.3130   35.9202 N   0  0  0  0  0  0  0  0  0  0  0  0
   49.4139   55.5334   34.3759 N   0  0  0  0  0  0  0  0  0  0  0  0
   49.5847   56.5812   33.6002 C   0  0  0  0  0  0  0  0  0  0  0  0
   48.3858   57.0594   33.1312 N   0  0  0  0  0  0  0  0  0  0  0  0
  2  1  1  1  0  0  0
  2  3  1  0  0  0  0
  2  5  1  0  0  0  0
  3  4  1  0  0  0  0
  3 17  1  0  0  0  0
  5  6  1  0  0  0  0
  7  6  1  1  0  0  0
  7  8  1  0  0  0  0
  7  9  1  0  0  0  0
 10  9  1  6  0  0  0
 10 11  1  0  0  0  0
 10 12  1  0  0  0  0
 11 16  1  0  0  0  0
 12 13  1  6  0  0  0
 12 14  1  0  0  0  0
 14 15  1  6  0  0  0
 14 16  1  0  0  0  0
 16 27  1  1  0  0  0
 18 19  2  0  0  0  0
 18 23  1  0  0  0  0
 19 20  1  0  0  0  0
 20 21  2  0  0  0  0
 21 22  1  0  0  0  0
 21 27  1  0  0  0  0
 22 23  2  0  0  0  0
 22 25  1  0  0  0  0
 23 24  1  0  0  0  0
 25 26  2  0  0  0  0
 26 27  1  0  0  0  0
M  END
>  <CHROM.1>
146.04299745,-173.06919209,174.30904456,-179.92790881,-69.42863374,97.10748560
-75.51638021,47.06579096,56.11489757,31.59812864,1.30607480,1.47766363,2.33185287

>  <Name>
ligand

>  <RI>
0

>  <Rbt.Current_Directory>
/home/itssahil/PROJECTS/Mol_Feturizer/New_Systems/rnas/3IQN

>  <Rbt.Executable>
rbdock ($Id: //depot/dev/client3/rdock/2013.1/src/exe/rbdock.cxx#4 $)

>  <Rbt.Library>
libRbt.so (2013.1, Build901 2013/11/27)

>  <Rbt.Parameter_File>
/export/apps/rDock/src/rDock_2013.1_src/data/scripts/dock_solv.prm

>  <Rbt.Receptor>
prm/pocket_docking_6.prm

>  <SCORE>
-16.8193

>  <SCORE.INTER>
-11.7275

>  <SCORE.INTER.CONST>
1

>  <SCORE.INTER.POLAR>
0

>  <SCORE.INTER.ROT>
7

>  <SCORE.INTER.SOLV>
11.5346

>  <SCORE.INTER.VDW>
-19.9298

>  <SCORE.INTER.norm>
-0.434351

>  <SCORE.INTRA>
-5.09178

>  <SCORE.INTRA.DIHEDRAL>
-2.96319

>  <SCORE.INTRA.DIHEDRAL.0>
10.0365

>  <SCORE.INTRA.POLAR>
0

>  <SCORE.INTRA.POLAR.0>
0

>  <SCORE.INTRA.REPUL>
0

>  <SCORE.INTRA.REPUL.0>
0

>  <SCORE.INTRA.SOLV>
-0.0698366

>  <SCORE.INTRA.SOLV.lig_0>
-48.6728

>  <SCORE.INTRA.VDW>
-3.57526

>  <SCORE.INTRA.VDW.0>
-1.10662

>  <SCORE.INTRA.norm>
-0.188584

>  <SCORE.RESTR>
0

>  <SCORE.RESTR.CAVITY>
0

>  <SCORE.RESTR.norm>
0

>  <SCORE.SYSTEM>
0

>  <SCORE.SYSTEM.CONST>
0

>  <SCORE.SYSTEM.DIHEDRAL>
0

>  <SCORE.SYSTEM.SOLV>
0

>  <SCORE.SYSTEM.norm>
0

>  <SCORE.heavy>
27

>  <SCORE.norm>
-0.622935

>  <RMSD>
5.258

$$$$
ligand
 OpenBabel11021811483D
libRbt.so/2013.1/901 2013/11/27
 27 29  0  0  0  0  0  0  0  0999 V2000
   48.5256   52.2157   27.7200 N   0  0  0  0  0  0  0  0  0  0  0  0
   47.8913   53.3632   27.0580 C   0  0  2  0  0  0  0  0  0  0  0  0
   47.1412   52.8650   25.8594 C   0  0  0  0  0  0  0  0  0  0  0  0
   46.0745   53.3738   25.5536 O   0  0  0  0  0  0  0  0  0  0  0  0
   48.9559   54.3758   26.6098 C   0  0  0  0  0  0  0  0  0  0  0  0
   49.6955   54.8927   27.8402 C   0  0  0  0  0  0  0  0  0  0  0  0
   48.6595   55.9186   28.9319 S   0  0  2  0  0  0  0  0  0  0  0  0
   48.5163   57.5104   28.0624 C   0  0  0  0  0  0  0  0  0  0  0  0
   49.6120   56.4889   30.3856 C   0  0  0  0  0  0  0  0  0  0  0  0
   48.6546   57.4304   31.0742 C   0  0  1  0  0  0  0  0  0  0  0  0
   47.8152   56.5864   31.7910 O   0  0  0  0  0  0  0  0  0  0  0  0
   49.1153   58.3947   32.1683 C   0  0  1  0  0  0  0  0  0  0  0  0
   49.5022   59.6390   31.6595 O   0  0  0  0  0  0  0  0  0  0  0  0
   47.7664   58.4341   33.0341 C   0  0  1  0  0  0  0  0  0  0  0  0
   46.5961   58.8170   32.2970 O   0  0  0  0  0  0  0  0  0  0  0  0
   47.9240   56.9432   33.2251 C   0  0  1  0  0  0  0  0  0  0  0  0
   47.6092   51.9615   25.1846 O   0  0  0  0  0  0  0  0  0  0  0  0
   48.6532   53.3503   36.6643 N   0  0  0  0  0  0  0  0  0  0  0  0
   49.4718   54.2895   36.1876 C   0  0  0  0  0  0  0  0  0  0  0  0
   49.0618   55.1953   35.3006 N   0  0  0  0  0  0  0  0  0  0  0  0
   47.8406   55.1233   34.7544 C   0  0  0  0  0  0  0  0  0  0  0  0
   46.9539   54.0879   35.1905 C   0  0  0  0  0  0  0  0  0  0  0  0
   47.4221   53.1956   36.1940 C   0  0  0  0  0  0  0  0  0  0  0  0
   46.6317   52.1911   36.6777 N   0  0  0  0  0  0  0  0  0  0  0  0
   45.8083   54.2284   34.4954 N   0  0  0  0  0  0  0  0  0  0  0  0
   45.9178   55.2490   33.6738 C   0  0  0  0  0  0  0  0  0  0  0  0
   47.1426   55.8589   33.7914 N   0  0  0  0  0  0  0  0  0  0  0  0
  2  1  1  6  0  0  0
  2  3  1  0  0  0  0
  2  5  1  0  0  0  0
  3  4  1  0  0  0  0
  3 17  1  0  0  0  0
  5  6  1  0  0  0  0
  7  6  1  6  0  0  0
  7  8  1  0  0  0  0
  7  9  1  0  0  0  0
 10  9  1  1  0  0  0
 10 11  1  0  0  0  0
 10 12  1  0  0  0  0
 11 16  1  0  0  0  0
 12 13  1  6  0  0  0
 12 14  1  0  0  0  0
 14 15  1  6  0  0  0
 14 16  1  0  0  0  0
 16 27  1  1  0  0  0
 18 19  2  0  0  0  0
 18 23  1  0  0  0  0
 19 20  1  0  0  0  0
 20 21  2  0  0  0  0
 21 22  1  0  0  0  0
 21 27  1  0  0  0  0
 22 23  2  0  0  0  0
 22 25  1  0  0  0  0
 23 24  1  0  0  0  0
 25 26  2  0  0  0  0
 26 27  1  0  0  0  0
M  END
>  <CHROM.1>
143.15768471,-61.69795166,-67.87212370,-75.17735423,173.90943460,80.97183658
124.49742920,47.99565377,55.32933618,31.28381848,1.42131702,-1.34668913,-1.83390803

>  <Name>
ligand

>  <RI>
0

>  <Rbt.Current_Directory>
/home/itssahil/PROJECTS/Mol_Feturizer/New_Systems/rnas/3IQN

>  <Rbt.Executable>
rbdock ($Id: //depot/dev/client3/rdock/2013.1/src/exe/rbdock.cxx#4 $)

>  <Rbt.Library>
libRbt.so (2013.1, Build901 2013/11/27)

>  <Rbt.Parameter_File>
/export/apps/rDock/src/rDock_2013.1_src/data/scripts/dock_solv.prm

>  <Rbt.Receptor>
prm/pocket_docking_6.prm

>  <SCORE>
-14.1284

>  <SCORE.INTER>
-10.999

>  <SCORE.INTER.CONST>
1

>  <SCORE.INTER.POLAR>
0

>  <SCORE.INTER.ROT>
7

>  <SCORE.INTER.SOLV>
13.7734

>  <SCORE.INTER.VDW>
-20.1905

>  <SCORE.INTER.norm>
-0.40737

>  <SCORE.INTRA>
-3.12943

>  <SCORE.INTRA.DIHEDRAL>
-5.16886

>  <SCORE.INTRA.DIHEDRAL.0>
10.0365

>  <SCORE.INTRA.POLAR>
0

>  <SCORE.INTRA.POLAR.0>
0

>  <SCORE.INTRA.REPUL>
0

>  <SCORE.INTRA.REPUL.0>
0

>  <SCORE.INTRA.SOLV>
0.120148

>  <SCORE.INTRA.SOLV.lig_0>
-48.6728

>  <SCORE.INTRA.VDW>
-0.605078

>  <SCORE.INTRA.VDW.0>
-1.10662

>  <SCORE.INTRA.norm>
-0.115905

>  <SCORE.RESTR>
0

>  <SCORE.RESTR.CAVITY>
0

>  <SCORE.RESTR.norm>
0

>  <SCORE.SYSTEM>
0

>  <SCORE.SYSTEM.CONST>
0

>  <SCORE.SYSTEM.DIHEDRAL>
0

>  <SCORE.SYSTEM.SOLV>
0

>  <SCORE.SYSTEM.norm>
0

>  <SCORE.heavy>
27

>  <SCORE.norm>
-0.523275

>  <RMSD>
5.259

$$$$
ligand
 OpenBabel11021811483D
libRbt.so/2013.1/901 2013/11/27
 27 29  0  0  0  0  0  0  0  0999 V2000
   47.8856   52.5199   24.9877 N   0  0  0  0  0  0  0  0  0  0  0  0
   47.0261   51.9089   26.0100 C   0  0  2  0  0  0  0  0  0  0  0  0
   45.6127   51.9196   25.5103 C   0  0  0  0  0  0  0  0  0  0  0  0
   45.2583   52.7639   24.7030 O   0  0  0  0  0  0  0  0  0  0  0  0
   47.1102   52.7033   27.3219 C   0  0  0  0  0  0  0  0  0  0  0  0
   48.5423   52.6436   27.8451 C   0  0  0  0  0  0  0  0  0  0  0  0
   48.8248   53.6918   29.3076 S   0  0  2  0  0  0  0  0  0  0  0  0
   50.5550   53.3724   29.7712 C   0  0  0  0  0  0  0  0  0  0  0  0
   48.0131   52.9805   30.7845 C   0  0  0  0  0  0  0  0  0  0  0  0
   47.9187   54.1579   31.7236 C   0  0  1  0  0  0  0  0  0  0  0  0
   47.0533   53.7211   32.7192 O   0  0  0  0  0  0  0  0  0  0  0  0
   49.1148   54.6295   32.5519 C   0  0  1  0  0  0  0  0  0  0  0  0
   49.8760   55.5999   31.8919 O   0  0  0  0  0  0  0  0  0  0  0  0
   48.3172   55.1822   33.8282 C   0  0  1  0  0  0  0  0  0  0  0  0
   47.3204   56.1696   33.5265 O   0  0  0  0  0  0  0  0  0  0  0  0
   47.7749   53.7834   34.0120 C   0  0  1  0  0  0  0  0  0  0  0  0
   44.8254   51.0726   25.9022 O   0  0  0  0  0  0  0  0  0  0  0  0
   42.9158   54.4536   35.1114 N   0  0  0  0  0  0  0  0  0  0  0  0
   43.7450   55.1513   34.3336 C   0  0  0  0  0  0  0  0  0  0  0  0
   45.0055   54.7705   34.1301 N   0  0  0  0  0  0  0  0  0  0  0  0
   45.5312   53.7364   34.8002 C   0  0  0  0  0  0  0  0  0  0  0  0
   44.6915   53.0017   35.6966 C   0  0  0  0  0  0  0  0  0  0  0  0
   43.3346   53.4101   35.8159 C   0  0  0  0  0  0  0  0  0  0  0  0
   42.4628   52.7509   36.6364 N   0  0  0  0  0  0  0  0  0  0  0  0
   45.4485   52.0295   36.2417 N   0  0  0  0  0  0  0  0  0  0  0  0
   46.6711   52.1079   35.7644 C   0  0  0  0  0  0  0  0  0  0  0  0
   46.7906   53.1309   34.8559 N   0  0  0  0  0  0  0  0  0  0  0  0
  2  1  1  6  0  0  0
  2  3  1  0  0  0  0
  2  5  1  0  0  0  0
  3  4  1  0  0  0  0
  3 17  1  0  0  0  0
  5  6  1  0  0  0  0
  7  6  1  6  0  0  0
  7  8  1  0  0  0  0
  7  9  1  0  0  0  0
 10  9  1  6  0  0  0
 10 11  1  0  0  0  0
 10 12  1  0  0  0  0
 11 16  1  0  0  0  0
 12 13  1  6  0  0  0
 12 14  1  0  0  0  0
 14 15  1  6  0  0  0
 14 16  1  0  0  0  0
 16 27  1  1  0  0  0
 18 19  2  0  0  0  0
 18 23  1  0  0  0  0
 19 20  1  0  0  0  0
 20 21  2  0  0  0  0
 21 22  1  0  0  0  0
 21 27  1  0  0  0  0
 22 23  2  0  0  0  0
 22 25  1  0  0  0  0
 23 24  1  0  0  0  0
 25 26  2  0  0  0  0
 26 27  1  0  0  0  0
M  END
>  <CHROM.1>
-26.39443639,-62.70300096,173.93656397,177.11851828,-160.56048027,167.37670458
-55.27927659,46.73278780,53.48003096,31.47082865,1.33382714,-0.30287478,-1.77760633

>  <Name>
ligand

>  <RI>
0

>  <Rbt.Current_Directory>
/home/itssahil/PROJECTS/Mol_Feturizer/New_Systems/rnas/3IQN

>  <Rbt.Executable>
rbdock ($Id: //depot/dev/client3/rdock/2013.1/src/exe/rbdock.cxx#4 $)

>  <Rbt.Library>
libRbt.so (2013.1, Build901 2013/11/27)

>  <Rbt.Parameter_File>
/export/apps/rDock/src/rDock_2013.1_src/data/scripts/dock_solv.prm

>  <Rbt.Receptor>
prm/pocket_docking_7.prm

>  <SCORE>
-15.6011

>  <SCORE.INTER>
-12.6219

>  <SCORE.INTER.CONST>
1

>  <SCORE.INTER.POLAR>
0

>  <SCORE.INTER.ROT>
7

>  <SCORE.INTER.SOLV>
9.04959

>  <SCORE.INTER.VDW>
-19.6978

>  <SCORE.INTER.norm>
-0.467479

>  <SCORE.INTRA>
-2.97922

>  <SCORE.INTRA.DIHEDRAL>
-4.57729

>  <SCORE.INTRA.DIHEDRAL.0>
10.0365

>  <SCORE.INTRA.POLAR>
0

>  <SCORE.INTRA.POLAR.0>
0

>  <SCORE.INTRA.REPUL>
0

>  <SCORE.INTRA.REPUL.0>
0

>  <SCORE.INTRA.SOLV>
0.102967

>  <SCORE.INTRA.SOLV.lig_0>
-48.6728

>  <SCORE.INTRA.VDW>
-0.742058

>  <SCORE.INTRA.VDW.0>
-1.10662

>  <SCORE.INTRA.norm>
-0.110342

>  <SCORE.RESTR>
0

>  <SCORE.RESTR.CAVITY>
0

>  <SCORE.RESTR.norm>
0

>  <SCORE.SYSTEM>
0

>  <SCORE.SYSTEM.CONST>
0

>  <SCORE.SYSTEM.DIHEDRAL>
0

>  <SCORE.SYSTEM.SOLV>
0

>  <SCORE.SYSTEM.norm>
0

>  <SCORE.heavy>
27

>  <SCORE.norm>
-0.57782

>  <RMSD>
5.270

$$$$
ligand
 OpenBabel11021811483D
libRbt.so/2013.1/901 2013/11/27
 27 29  0  0  0  0  0  0  0  0999 V2000
   45.2638   54.5680   28.8109 N   0  0  0  0  0  0  0  0  0  0  0  0
   46.2776   53.9750   27.9290 C   0  0  2  0  0  0  0  0  0  0  0  0
   46.1830   52.4824   28.0328 C   0  0  0  0  0  0  0  0  0  0  0  0
   45.9478   51.9605   29.1110 O   0  0  0  0  0  0  0  0  0  0  0  0
   47.6831   54.4284   28.3514 C   0  0  0  0  0  0  0  0  0  0  0  0
   47.8741   55.8875   27.9477 C   0  0  0  0  0  0  0  0  0  0  0  0
   49.4219   56.6165   28.5723 S   0  0  2  0  0  0  0  0  0  0  0  0
   50.7225   55.4709   28.0187 C   0  0  0  0  0  0  0  0  0  0  0  0
   49.5822   56.3568   30.3758 C   0  0  0  0  0  0  0  0  0  0  0  0
   48.5734   57.3201   30.9514 C   0  0  1  0  0  0  0  0  0  0  0  0
   47.7579   56.5170   31.7393 O   0  0  0  0  0  0  0  0  0  0  0  0
   48.9728   58.4101   31.9472 C   0  0  1  0  0  0  0  0  0  0  0  0
   49.3155   59.6121   31.3191 O   0  0  0  0  0  0  0  0  0  0  0  0
   47.6081   58.4776   32.7860 C   0  0  1  0  0  0  0  0  0  0  0  0
   46.4360   58.7314   31.9978 O   0  0  0  0  0  0  0  0  0  0  0  0
   47.8256   57.0222   33.1307 C   0  0  1  0  0  0  0  0  0  0  0  0
   46.3263   51.7955   27.0337 O   0  0  0  0  0  0  0  0  0  0  0  0
   48.8604   53.3514   36.4053 N   0  0  0  0  0  0  0  0  0  0  0  0
   49.6475   54.2580   35.8240 C   0  0  0  0  0  0  0  0  0  0  0  0
   49.1602   55.1943   35.0109 N   0  0  0  0  0  0  0  0  0  0  0  0
   47.8720   55.1869   34.6430 C   0  0  0  0  0  0  0  0  0  0  0  0
   47.0072   54.1878   35.1930 C   0  0  0  0  0  0  0  0  0  0  0  0
   47.5692   53.2608   36.1134 C   0  0  0  0  0  0  0  0  0  0  0  0
   46.8079   52.2874   36.6970 N   0  0  0  0  0  0  0  0  0  0  0  0
   45.7829   54.3912   34.6687 N   0  0  0  0  0  0  0  0  0  0  0  0
   45.8239   55.4171   33.8473 C   0  0  0  0  0  0  0  0  0  0  0  0
   47.0809   55.9676   33.7942 N   0  0  0  0  0  0  0  0  0  0  0  0
  2  1  1  1  0  0  0
  2  3  1  0  0  0  0
  2  5  1  0  0  0  0
  3  4  1  0  0  0  0
  3 17  1  0  0  0  0
  5  6  1  0  0  0  0
  7  6  1  6  0  0  0
  7  8  1  0  0  0  0
  7  9  1  0  0  0  0
 10  9  1  1  0  0  0
 10 11  1  0  0  0  0
 10 12  1  0  0  0  0
 11 16  1  0  0  0  0
 12 13  1  6  0  0  0
 12 14  1  0  0  0  0
 14 15  1  6  0  0  0
 14 16  1  0  0  0  0
 16 27  1  1  0  0  0
 18 19  2  0  0  0  0
 18 23  1  0  0  0  0
 19 20  1  0  0  0  0
 20 21  2  0  0  0  0
 21 22  1  0  0  0  0
 21 27  1  0  0  0  0
 22 23  2  0  0  0  0
 22 25  1  0  0  0  0
 23 24  1  0  0  0  0
 25 26  2  0  0  0  0
 26 27  1  0  0  0  0
M  END
>  <CHROM.1>
-37.87787048,-73.40536748,172.83650176,53.17450294,-73.23746249,124.48227908
112.21097116,47.76410363,55.38721510,31.59976683,1.57230654,-1.15327199,-1.54815349

>  <Name>
ligand

>  <RI>
0

>  <Rbt.Current_Directory>
/home/itssahil/PROJECTS/Mol_Feturizer/New_Systems/rnas/3IQN

>  <Rbt.Executable>
rbdock ($Id: //depot/dev/client3/rdock/2013.1/src/exe/rbdock.cxx#4 $)

>  <Rbt.Library>
libRbt.so (2013.1, Build901 2013/11/27)

>  <Rbt.Parameter_File>
/export/apps/rDock/src/rDock_2013.1_src/data/scripts/dock_solv.prm

>  <Rbt.Receptor>
prm/pocket_docking_6.prm

>  <SCORE>
-14.8767

>  <SCORE.INTER>
-12.7219

>  <SCORE.INTER.CONST>
1

>  <SCORE.INTER.POLAR>
0

>  <SCORE.INTER.ROT>
7

>  <SCORE.INTER.SOLV>
13.3638

>  <SCORE.INTER.VDW>
-21.2025

>  <SCORE.INTER.norm>
-0.471182

>  <SCORE.INTRA>
-2.16694

>  <SCORE.INTRA.DIHEDRAL>
-0.963643

>  <SCORE.INTRA.DIHEDRAL.0>
10.0365

>  <SCORE.INTRA.POLAR>
0

>  <SCORE.INTRA.POLAR.0>
0

>  <SCORE.INTRA.REPUL>
0

>  <SCORE.INTRA.REPUL.0>
0

>  <SCORE.INTRA.SOLV>
-0.543577

>  <SCORE.INTRA.SOLV.lig_0>
-48.6728

>  <SCORE.INTRA.VDW>
-1.41333

>  <SCORE.INTRA.VDW.0>
-1.10662

>  <SCORE.INTRA.norm>
-0.080257

>  <SCORE.RESTR>
0.0121023

>  <SCORE.RESTR.CAVITY>
0.0121023

>  <SCORE.RESTR.norm>
0.000448233

>  <SCORE.SYSTEM>
0

>  <SCORE.SYSTEM.CONST>
0

>  <SCORE.SYSTEM.DIHEDRAL>
0

>  <SCORE.SYSTEM.SOLV>
0

>  <SCORE.SYSTEM.norm>
0

>  <SCORE.heavy>
27

>  <SCORE.norm>
-0.550991

>  <RMSD>
5.274

$$$$
ligand
 OpenBabel11021811483D
libRbt.so/2013.1/901 2013/11/27
 27 29  0  0  0  0  0  0  0  0999 V2000
   47.5613   52.7630   26.3137 N   0  0  0  0  0  0  0  0  0  0  0  0
   48.0291   53.2534   27.6168 C   0  0  2  0  0  0  0  0  0  0  0  0
   47.8652   52.1553   28.6242 C   0  0  0  0  0  0  0  0  0  0  0  0
   48.8488   51.5881   29.0725 O   0  0  0  0  0  0  0  0  0  0  0  0
   47.2063   54.4746   28.0538 C   0  0  0  0  0  0  0  0  0  0  0  0
   47.7812   55.0167   29.3591 C   0  0  0  0  0  0  0  0  0  0  0  0
   49.3425   55.9290   29.1409 S   0  0  2  0  0  0  0  0  0  0  0  0
   50.6116   54.6336   28.9931 C   0  0  0  0  0  0  0  0  0  0  0  0
   49.8916   56.6668   30.7220 C   0  0  0  0  0  0  0  0  0  0  0  0
   48.7579   57.5969   31.0778 C   0  0  1  0  0  0  0  0  0  0  0  0
   47.8851   56.7955   31.8036 O   0  0  0  0  0  0  0  0  0  0  0  0
   48.9483   58.7752   32.0339 C   0  0  1  0  0  0  0  0  0  0  0  0
   49.3085   59.9528   31.3702 O   0  0  0  0  0  0  0  0  0  0  0  0
   47.4761   58.8073   32.6682 C   0  0  1  0  0  0  0  0  0  0  0  0
   46.4162   58.9289   31.7083 O   0  0  0  0  0  0  0  0  0  0  0  0
   47.7244   57.3961   33.1488 C   0  0  1  0  0  0  0  0  0  0  0  0
   46.7474   51.8436   29.0038 O   0  0  0  0  0  0  0  0  0  0  0  0
   48.7299   53.3189   35.9118 N   0  0  0  0  0  0  0  0  0  0  0  0
   49.5370   54.2152   35.3421 C   0  0  0  0  0  0  0  0  0  0  0  0
   49.0614   55.2711   34.6832 N   0  0  0  0  0  0  0  0  0  0  0  0
   47.7482   55.4100   34.4574 C   0  0  0  0  0  0  0  0  0  0  0  0
   46.8523   54.4320   34.9955 C   0  0  0  0  0  0  0  0  0  0  0  0
   47.4134   53.3674   35.7533 C   0  0  0  0  0  0  0  0  0  0  0  0
   46.6258   52.4027   36.3160 N   0  0  0  0  0  0  0  0  0  0  0  0
   45.6067   54.7914   34.6290 N   0  0  0  0  0  0  0  0  0  0  0  0
   45.6621   55.8934   33.9140 C   0  0  0  0  0  0  0  0  0  0  0  0
   46.9536   56.3408   33.7807 N   0  0  0  0  0  0  0  0  0  0  0  0
  2  1  1  6  0  0  0
  2  3  1  0  0  0  0
  2  5  1  0  0  0  0
  3  4  1  0  0  0  0
  3 17  1  0  0  0  0
  5  6  1  0  0  0  0
  7  6  1  1  0  0  0
  7  8  1  0  0  0  0
  7  9  1  0  0  0  0
 10  9  1  1  0  0  0
 10 11  1  0  0  0  0
 10 12  1  0  0  0  0
 11 16  1  0  0  0  0
 12 13  1  6  0  0  0
 12 14  1  0  0  0  0
 14 15  1  6  0  0  0
 14 16  1  0  0  0  0
 16 27  1  6  0  0  0
 18 19  2  0  0  0  0
 18 23  1  0  0  0  0
 19 20  1  0  0  0  0
 20 21  2  0  0  0  0
 21 22  1  0  0  0  0
 21 27  1  0  0  0  0
 22 23  2  0  0  0  0
 22 25  1  0  0  0  0
 23 24  1  0  0  0  0
 25 26  2  0  0  0  0
 26 27  1  0  0  0  0
M  END
>  <CHROM.1>
109.11820086,-176.03376372,75.03271968,-79.64269237,-60.78307202,88.54500223
92.89208022,48.02699746,55.31063843,31.64975855,0.94577857,-1.36376800,-2.44416408

>  <Name>
ligand

>  <RI>
0

>  <Rbt.Current_Directory>
/home/itssahil/PROJECTS/Mol_Feturizer/New_Systems/rnas/3IQN

>  <Rbt.Executable>
rbdock ($Id: //depot/dev/client3/rdock/2013.1/src/exe/rbdock.cxx#4 $)

>  <Rbt.Library>
libRbt.so (2013.1, Build901 2013/11/27)

>  <Rbt.Parameter_File>
/export/apps/rDock/src/rDock_2013.1_src/data/scripts/dock_solv.prm

>  <Rbt.Receptor>
prm/pocket_docking_8.prm

>  <SCORE>
-15.6504

>  <SCORE.INTER>
-12.1566

>  <SCORE.INTER.CONST>
1

>  <SCORE.INTER.POLAR>
0

>  <SCORE.INTER.ROT>
7

>  <SCORE.INTER.SOLV>
12.4315

>  <SCORE.INTER.VDW>
-20.5149

>  <SCORE.INTER.norm>
-0.450243

>  <SCORE.INTRA>
-3.49385

>  <SCORE.INTRA.DIHEDRAL>
-3.31384

>  <SCORE.INTRA.DIHEDRAL.0>
10.0365

>  <SCORE.INTRA.POLAR>
0

>  <SCORE.INTRA.POLAR.0>
0

>  <SCORE.INTRA.REPUL>
0

>  <SCORE.INTRA.REPUL.0>
0

>  <SCORE.INTRA.SOLV>
-0.8199

>  <SCORE.INTRA.SOLV.lig_0>
-48.6728

>  <SCORE.INTRA.VDW>
-1.42698

>  <SCORE.INTRA.VDW.0>
-1.10662

>  <SCORE.INTRA.norm>
-0.129402

>  <SCORE.RESTR>
0

>  <SCORE.RESTR.CAVITY>
0

>  <SCORE.RESTR.norm>
0

>  <SCORE.SYSTEM>
0

>  <SCORE.SYSTEM.CONST>
0

>  <SCORE.SYSTEM.DIHEDRAL>
0

>  <SCORE.SYSTEM.SOLV>
0

>  <SCORE.SYSTEM.norm>
0

>  <SCORE.heavy>
27

>  <SCORE.norm>
-0.579645

>  <RMSD>
5.274

$$$$
ligand
 OpenBabel11021811483D
libRbt.so/2013.1/901 2013/11/27
 27 29  0  0  0  0  0  0  0  0999 V2000
   50.2739   54.6440   27.7785 N   0  0  0  0  0  0  0  0  0  0  0  0
   50.0340   55.7723   28.6876 C   0  0  2  0  0  0  0  0  0  0  0  0
   49.4366   55.2416   29.9560 C   0  0  0  0  0  0  0  0  0  0  0  0
   50.0569   55.3270   31.0039 O   0  0  0  0  0  0  0  0  0  0  0  0
   49.0641   56.7765   28.0471 C   0  0  0  0  0  0  0  0  0  0  0  0
   48.8745   57.9556   28.9969 C   0  0  0  0  0  0  0  0  0  0  0  0
   47.4317   57.7787   30.0943 S   0  0  2  0  0  0  0  0  0  0  0  0
   46.0066   58.2095   29.0483 C   0  0  0  0  0  0  0  0  0  0  0  0
   47.3348   59.1749   31.2721 C   0  0  0  0  0  0  0  0  0  0  0  0
   48.2441   58.7393   32.3948 C   0  0  1  0  0  0  0  0  0  0  0  0
   47.4881   57.8050   33.0922 O   0  0  0  0  0  0  0  0  0  0  0  0
   49.5291   57.9516   32.1354 C   0  0  1  0  0  0  0  0  0  0  0  0
   50.6412   58.7813   31.9581 O   0  0  0  0  0  0  0  0  0  0  0  0
   49.5619   57.0967   33.4914 C   0  0  1  0  0  0  0  0  0  0  0  0
   49.5258   57.8819   34.6920 O   0  0  0  0  0  0  0  0  0  0  0  0
   48.2261   56.5201   33.0820 C   0  0  1  0  0  0  0  0  0  0  0  0
   48.3238   54.7396   29.9376 O   0  0  0  0  0  0  0  0  0  0  0  0
   48.0107   53.2438   36.8884 N   0  0  0  0  0  0  0  0  0  0  0  0
   49.0266   53.9565   36.3989 C   0  0  0  0  0  0  0  0  0  0  0  0
   48.8609   54.8227   35.4001 N   0  0  0  0  0  0  0  0  0  0  0  0
   47.6881   54.9226   34.7602 C   0  0  0  0  0  0  0  0  0  0  0  0
   46.5896   54.1243   35.2125 C   0  0  0  0  0  0  0  0  0  0  0  0
   46.8071   53.2730   36.3306 C   0  0  0  0  0  0  0  0  0  0  0  0
   45.8058   52.4920   36.8355 N   0  0  0  0  0  0  0  0  0  0  0  0
   45.5421   54.4016   34.4117 N   0  0  0  0  0  0  0  0  0  0  0  0
   45.9027   55.2897   33.5117 C   0  0  0  0  0  0  0  0  0  0  0  0
   47.2124   55.6684   33.6770 N   0  0  0  0  0  0  0  0  0  0  0  0
  2  1  1  6  0  0  0
  2  3  1  0  0  0  0
  2  5  1  0  0  0  0
  3  4  1  0  0  0  0
  3 17  1  0  0  0  0
  5  6  1  0  0  0  0
  7  6  1  6  0  0  0
  7  8  1  0  0  0  0
  7  9  1  0  0  0  0
 10  9  1  6  0  0  0
 10 11  1  0  0  0  0
 10 12  1  0  0  0  0
 11 16  1  0  0  0  0
 12 13  1  1  0  0  0
 12 14  1  0  0  0  0
 14 15  1  1  0  0  0
 14 16  1  0  0  0  0
 16 27  1  1  0  0  0
 18 19  2  0  0  0  0
 18 23  1  0  0  0  0
 19 20  1  0  0  0  0
 20 21  2  0  0  0  0
 21 22  1  0  0  0  0
 21 27  1  0  0  0  0
 22 23  2  0  0  0  0
 22 25  1  0  0  0  0
 23 24  1  0  0  0  0
 25 26  2  0  0  0  0
 26 27  1  0  0  0  0
M  END
>  <CHROM.1>
114.74308500,-178.12067504,-93.72880787,-78.45760174,-84.84710147,-76.81944100
-128.43208206,48.19552782,56.16432018,32.37687722,-0.24335501,-1.35421368
-2.93579982

>  <Name>
ligand

>  <RI>
0

>  <Rbt.Current_Directory>
/home/itssahil/PROJECTS/Mol_Feturizer/New_Systems/rnas/3IQN

>  <Rbt.Executable>
rbdock ($Id: //depot/dev/client3/rdock/2013.1/src/exe/rbdock.cxx#4 $)

>  <Rbt.Library>
libRbt.so (2013.1, Build901 2013/11/27)

>  <Rbt.Parameter_File>
/export/apps/rDock/src/rDock_2013.1_src/data/scripts/dock_solv.prm

>  <Rbt.Receptor>
prm/pocket_docking_7.prm

>  <SCORE>
-18.2818

>  <SCORE.INTER>
-14.9908

>  <SCORE.INTER.CONST>
1

>  <SCORE.INTER.POLAR>
0

>  <SCORE.INTER.ROT>
7

>  <SCORE.INTER.SOLV>
14.1389

>  <SCORE.INTER.VDW>
-22.9735

>  <SCORE.INTER.norm>
-0.555216

>  <SCORE.INTRA>
-3.40307

>  <SCORE.INTRA.DIHEDRAL>
-1.37492

>  <SCORE.INTRA.DIHEDRAL.0>
10.0365

>  <SCORE.INTRA.POLAR>
0

>  <SCORE.INTRA.POLAR.0>
0

>  <SCORE.INTRA.REPUL>
0

>  <SCORE.INTRA.REPUL.0>
0

>  <SCORE.INTRA.SOLV>
-0.382333

>  <SCORE.INTRA.SOLV.lig_0>
-48.6728

>  <SCORE.INTRA.VDW>
-2.52445

>  <SCORE.INTRA.VDW.0>
-1.10662

>  <SCORE.INTRA.norm>
-0.12604

>  <SCORE.RESTR>
0.112065

>  <SCORE.RESTR.CAVITY>
0.112065

>  <SCORE.RESTR.norm>
0.00415056

>  <SCORE.SYSTEM>
0

>  <SCORE.SYSTEM.CONST>
0

>  <SCORE.SYSTEM.DIHEDRAL>
0

>  <SCORE.SYSTEM.SOLV>
0

>  <SCORE.SYSTEM.norm>
0

>  <SCORE.heavy>
27

>  <SCORE.norm>
-0.677105

>  <RMSD>
5.276

$$$$
ligand
 OpenBabel11021811483D
libRbt.so/2013.1/901 2013/11/27
 27 29  0  0  0  0  0  0  0  0999 V2000
   46.4925   59.3271   30.2990 N   0  0  0  0  0  0  0  0  0  0  0  0
   47.7468   58.5636   30.2654 C   0  0  2  0  0  0  0  0  0  0  0  0
   48.0869   58.2717   28.8348 C   0  0  0  0  0  0  0  0  0  0  0  0
   49.2554   58.1909   28.4907 O   0  0  0  0  0  0  0  0  0  0  0  0
   47.5879   57.2425   31.0326 C   0  0  0  0  0  0  0  0  0  0  0  0
   47.1759   57.5513   32.4690 C   0  0  0  0  0  0  0  0  0  0  0  0
   48.5881   57.7486   33.6023 S   0  0  2  0  0  0  0  0  0  0  0  0
   49.7051   58.9002   32.7442 C   0  0  0  0  0  0  0  0  0  0  0  0
   49.6566   56.2642   33.5751 C   0  0  0  0  0  0  0  0  0  0  0  0
   48.6682   55.1335   33.4286 C   0  0  1  0  0  0  0  0  0  0  0  0
   48.8413   54.7076   32.1174 O   0  0  0  0  0  0  0  0  0  0  0  0
   48.8246   53.8186   34.1939 C   0  0  1  0  0  0  0  0  0  0  0  0
   48.1675   53.8343   35.4288 O   0  0  0  0  0  0  0  0  0  0  0  0
   48.1625   52.8350   33.1146 C   0  0  1  0  0  0  0  0  0  0  0  0
   46.8286   53.1910   32.7230 O   0  0  0  0  0  0  0  0  0  0  0  0
   49.2365   53.2798   32.1486 C   0  0  1  0  0  0  0  0  0  0  0  0
   47.1918   58.1004   28.0223 O   0  0  0  0  0  0  0  0  0  0  0  0
   46.6716   51.9938   28.0211 N   0  0  0  0  0  0  0  0  0  0  0  0
   46.2906   52.0993   29.2952 C   0  0  0  0  0  0  0  0  0  0  0  0
   47.1263   52.5126   30.2471 N   0  0  0  0  0  0  0  0  0  0  0  0
   48.4235   52.7202   29.9845 C   0  0  0  0  0  0  0  0  0  0  0  0
   48.8869   52.5523   28.6408 C   0  0  0  0  0  0  0  0  0  0  0  0
   47.9326   52.1820   27.6537 C   0  0  0  0  0  0  0  0  0  0  0  0
   48.2898   52.0187   26.3447 N   0  0  0  0  0  0  0  0  0  0  0  0
   50.2091   52.8113   28.6423 N   0  0  0  0  0  0  0  0  0  0  0  0
   50.5936   53.1157   29.8622 C   0  0  0  0  0  0  0  0  0  0  0  0
   49.5386   53.0943   30.7411 N   0  0  0  0  0  0  0  0  0  0  0  0
  2  1  1  6  0  0  0
  2  3  1  0  0  0  0
  2  5  1  0  0  0  0
  3  4  1  0  0  0  0
  3 17  1  0  0  0  0
  5  6  1  0  0  0  0
  7  6  1  6  0  0  0
  7  8  1  0  0  0  0
  7  9  1  0  0  0  0
 10  9  1  1  0  0  0
 10 11  1  0  0  0  0
 10 12  1  0  0  0  0
 11 16  1  0  0  0  0
 12 13  1  1  0  0  0
 12 14  1  0  0  0  0
 14 15  1  6  0  0  0
 14 16  1  0  0  0  0
 16 27  1  6  0  0  0
 18 19  2  0  0  0  0
 18 23  1  0  0  0  0
 19 20  1  0  0  0  0
 20 21  2  0  0  0  0
 21 22  1  0  0  0  0
 21 27  1  0  0  0  0
 22 23  2  0  0  0  0
 22 25  1  0  0  0  0
 23 24  1  0  0  0  0
 25 26  2  0  0  0  0
 26 27  1  0  0  0  0
M  END
>  <CHROM.1>
148.41202468,-58.02353227,-90.54727487,49.07383450,-36.66608815,107.29819106
-88.20515398,48.30861623,55.09744628,30.99141026,1.35453110,-1.46383641,0.36188160

>  <Name>
ligand

>  <RI>
0

>  <Rbt.Current_Directory>
/home/itssahil/PROJECTS/Mol_Feturizer/New_Systems/rnas/3IQN

>  <Rbt.Executable>
rbdock ($Id: //depot/dev/client3/rdock/2013.1/src/exe/rbdock.cxx#4 $)

>  <Rbt.Library>
libRbt.so (2013.1, Build901 2013/11/27)

>  <Rbt.Parameter_File>
/export/apps/rDock/src/rDock_2013.1_src/data/scripts/dock_solv.prm

>  <Rbt.Receptor>
prm/pocket_docking_4.prm

>  <SCORE>
-14.7012

>  <SCORE.INTER>
-15.8872

>  <SCORE.INTER.CONST>
1

>  <SCORE.INTER.POLAR>
0

>  <SCORE.INTER.ROT>
7

>  <SCORE.INTER.SOLV>
13.1875

>  <SCORE.INTER.VDW>
-23.2539

>  <SCORE.INTER.norm>
-0.588414

>  <SCORE.INTRA>
1.18601

>  <SCORE.INTRA.DIHEDRAL>
2.63024

>  <SCORE.INTRA.DIHEDRAL.0>
10.0365

>  <SCORE.INTRA.POLAR>
0

>  <SCORE.INTRA.POLAR.0>
0

>  <SCORE.INTRA.REPUL>
0

>  <SCORE.INTRA.REPUL.0>
0

>  <SCORE.INTRA.SOLV>
0.887972

>  <SCORE.INTRA.SOLV.lig_0>
-48.6728

>  <SCORE.INTRA.VDW>
-0.573097

>  <SCORE.INTRA.VDW.0>
-1.10662

>  <SCORE.INTRA.norm>
0.0439263

>  <SCORE.RESTR>
0

>  <SCORE.RESTR.CAVITY>
0

>  <SCORE.RESTR.norm>
0

>  <SCORE.SYSTEM>
0

>  <SCORE.SYSTEM.CONST>
0

>  <SCORE.SYSTEM.DIHEDRAL>
0

>  <SCORE.SYSTEM.SOLV>
0

>  <SCORE.SYSTEM.norm>
0

>  <SCORE.heavy>
27

>  <SCORE.norm>
-0.544488

>  <RMSD>
5.280

$$$$
ligand
 OpenBabel11021811483D
libRbt.so/2013.1/901 2013/11/27
 27 29  0  0  0  0  0  0  0  0999 V2000
   50.1806   54.0301   29.2668 N   0  0  0  0  0  0  0  0  0  0  0  0
   49.4862   55.3243   29.2517 C   0  0  2  0  0  0  0  0  0  0  0  0
   49.8906   56.0659   28.0132 C   0  0  0  0  0  0  0  0  0  0  0  0
   50.8694   55.7049   27.3793 O   0  0  0  0  0  0  0  0  0  0  0  0
   49.8691   56.1496   30.4893 C   0  0  0  0  0  0  0  0  0  0  0  0
   49.3809   55.4225   31.7389 C   0  0  0  0  0  0  0  0  0  0  0  0
   49.7182   56.3273   33.2832 S   0  0  2  0  0  0  0  0  0  0  0  0
   49.2907   55.1515   34.6042 C   0  0  0  0  0  0  0  0  0  0  0  0
   48.4205   57.5764   33.6023 C   0  0  0  0  0  0  0  0  0  0  0  0
   48.1014   58.0985   32.2229 C   0  0  1  0  0  0  0  0  0  0  0  0
   47.1270   57.2260   31.7538 O   0  0  0  0  0  0  0  0  0  0  0  0
   47.4210   59.4512   32.0077 C   0  0  1  0  0  0  0  0  0  0  0  0
   48.3387   60.4973   31.8645 O   0  0  0  0  0  0  0  0  0  0  0  0
   46.6151   59.1015   30.6665 C   0  0  1  0  0  0  0  0  0  0  0  0
   47.4315   58.6189   29.5894 O   0  0  0  0  0  0  0  0  0  0  0  0
   45.9117   58.0178   31.4508 C   0  0  1  0  0  0  0  0  0  0  0  0
   49.2287   57.0196   27.6351 O   0  0  0  0  0  0  0  0  0  0  0  0
   43.5901   54.4354   34.1051 N   0  0  0  0  0  0  0  0  0  0  0  0
   44.4585   55.3787   34.4736 C   0  0  0  0  0  0  0  0  0  0  0  0
   44.9251   56.2804   33.6108 N   0  0  0  0  0  0  0  0  0  0  0  0
   44.6372   56.2002   32.3048 C   0  0  0  0  0  0  0  0  0  0  0  0
   43.7612   55.1602   31.8581 C   0  0  0  0  0  0  0  0  0  0  0  0
   43.2355   54.2726   32.8369 C   0  0  0  0  0  0  0  0  0  0  0  0
   42.3785   53.2642   32.4957 N   0  0  0  0  0  0  0  0  0  0  0  0
   43.6374   55.2926   30.5230 N   0  0  0  0  0  0  0  0  0  0  0  0
   44.3605   56.3124   30.1158 C   0  0  0  0  0  0  0  0  0  0  0  0
   44.9939   56.9299   31.1664 N   0  0  0  0  0  0  0  0  0  0  0  0
  2  1  1  1  0  0  0
  2  3  1  0  0  0  0
  2  5  1  0  0  0  0
  3  4  1  0  0  0  0
  3 17  1  0  0  0  0
  5  6  1  0  0  0  0
  7  6  1  6  0  0  0
  7  8  1  0  0  0  0
  7  9  1  0  0  0  0
 10  9  1  1  0  0  0
 10 11  1  0  0  0  0
 10 12  1  0  0  0  0
 11 16  1  0  0  0  0
 12 13  1  6  0  0  0
 12 14  1  0  0  0  0
 14 15  1  6  0  0  0
 14 16  1  0  0  0  0
 16 27  1  6  0  0  0
 18 19  2  0  0  0  0
 18 23  1  0  0  0  0
 19 20  1  0  0  0  0
 20 21  2  0  0  0  0
 21 22  1  0  0  0  0
 21 27  1  0  0  0  0
 22 23  2  0  0  0  0
 22 25  1  0  0  0  0
 23 24  1  0  0  0  0
 25 26  2  0  0  0  0
 26 27  1  0  0  0  0
M  END
>  <CHROM.1>
-15.40682831,-63.95612164,-177.89618775,-171.31052502,-37.40354717,87.29581324
70.82212441,47.16361553,56.45310562,31.46649255,0.36986099,-0.38578904,-1.91846237

>  <Name>
ligand

>  <RI>
0

>  <Rbt.Current_Directory>
/home/itssahil/PROJECTS/Mol_Feturizer/New_Systems/rnas/3IQN

>  <Rbt.Executable>
rbdock ($Id: //depot/dev/client3/rdock/2013.1/src/exe/rbdock.cxx#4 $)

>  <Rbt.Library>
libRbt.so (2013.1, Build901 2013/11/27)

>  <Rbt.Parameter_File>
/export/apps/rDock/src/rDock_2013.1_src/data/scripts/dock_solv.prm

>  <Rbt.Receptor>
prm/pocket_docking_7.prm

>  <SCORE>
-19.6285

>  <SCORE.INTER>
-17.1028

>  <SCORE.INTER.CONST>
1

>  <SCORE.INTER.POLAR>
0

>  <SCORE.INTER.ROT>
7

>  <SCORE.INTER.SOLV>
8.49252

>  <SCORE.INTER.VDW>
-22.4994

>  <SCORE.INTER.norm>
-0.633437

>  <SCORE.INTRA>
-2.52567

>  <SCORE.INTRA.DIHEDRAL>
-1.93991

>  <SCORE.INTRA.DIHEDRAL.0>
10.0365

>  <SCORE.INTRA.POLAR>
0

>  <SCORE.INTRA.POLAR.0>
0

>  <SCORE.INTRA.REPUL>
0

>  <SCORE.INTRA.REPUL.0>
0

>  <SCORE.INTRA.SOLV>
0.142897

>  <SCORE.INTRA.SOLV.lig_0>
-48.6728

>  <SCORE.INTRA.VDW>
-1.62716

>  <SCORE.INTRA.VDW.0>
-1.10662

>  <SCORE.INTRA.norm>
-0.0935433

>  <SCORE.RESTR>
0

>  <SCORE.RESTR.CAVITY>
0

>  <SCORE.RESTR.norm>
0

>  <SCORE.SYSTEM>
0

>  <SCORE.SYSTEM.CONST>
0

>  <SCORE.SYSTEM.DIHEDRAL>
0

>  <SCORE.SYSTEM.SOLV>
0

>  <SCORE.SYSTEM.norm>
0

>  <SCORE.heavy>
27

>  <SCORE.norm>
-0.72698

>  <RMSD>
5.283

$$$$
ligand
 OpenBabel11021811483D
libRbt.so/2013.1/901 2013/11/27
 27 29  0  0  0  0  0  0  0  0999 V2000
   42.3252   56.2027   29.4825 N   0  0  0  0  0  0  0  0  0  0  0  0
   43.6579   55.7173   29.1010 C   0  0  2  0  0  0  0  0  0  0  0  0
   44.3232   55.1499   30.3188 C   0  0  0  0  0  0  0  0  0  0  0  0
   44.1932   55.7047   31.3983 O   0  0  0  0  0  0  0  0  0  0  0  0
   44.5068   56.8706   28.5456 C   0  0  0  0  0  0  0  0  0  0  0  0
   45.8063   56.3018   27.9834 C   0  0  0  0  0  0  0  0  0  0  0  0
   47.0469   57.5765   27.5919 S   0  0  2  0  0  0  0  0  0  0  0  0
   48.2900   56.7102   26.5847 C   0  0  0  0  0  0  0  0  0  0  0  0
   48.0876   57.9417   29.0512 C   0  0  0  0  0  0  0  0  0  0  0  0
   47.0748   58.1568   30.1488 C   0  0  1  0  0  0  0  0  0  0  0  0
   47.5376   57.3610   31.1896 O   0  0  0  0  0  0  0  0  0  0  0  0
   46.9172   59.5064   30.8507 C   0  0  1  0  0  0  0  0  0  0  0  0
   45.9720   60.3286   30.2281 O   0  0  0  0  0  0  0  0  0  0  0  0
   46.4684   58.9729   32.2945 C   0  0  1  0  0  0  0  0  0  0  0  0
   45.3136   58.1209   32.2825 O   0  0  0  0  0  0  0  0  0  0  0  0
   47.7868   58.2367   32.3588 C   0  0  1  0  0  0  0  0  0  0  0  0
   44.9804   54.1249   30.2277 O   0  0  0  0  0  0  0  0  0  0  0  0
   46.3181   54.2159   34.9941 N   0  0  0  0  0  0  0  0  0  0  0  0
   45.6287   55.0677   34.2335 C   0  0  0  0  0  0  0  0  0  0  0  0
   46.2245   56.0553   33.5664 N   0  0  0  0  0  0  0  0  0  0  0  0
   47.5290   56.3115   33.7317 C   0  0  0  0  0  0  0  0  0  0  0  0
   48.2916   55.4601   34.5932 C   0  0  0  0  0  0  0  0  0  0  0  0
   47.6156   54.3772   35.2199 C   0  0  0  0  0  0  0  0  0  0  0  0
   48.2748   53.5078   36.0428 N   0  0  0  0  0  0  0  0  0  0  0  0
   49.5558   55.9260   34.5930 N   0  0  0  0  0  0  0  0  0  0  0  0
   49.6317   56.9840   33.8161 C   0  0  0  0  0  0  0  0  0  0  0  0
   48.4192   57.2707   33.2385 N   0  0  0  0  0  0  0  0  0  0  0  0
  2  1  1  1  0  0  0
  2  3  1  0  0  0  0
  2  5  1  0  0  0  0
  3  4  1  0  0  0  0
  3 17  1  0  0  0  0
  5  6  1  0  0  0  0
  7  6  1  1  0  0  0
  7  8  1  0  0  0  0
  7  9  1  0  0  0  0
 10  9  1  6  0  0  0
 10 11  1  0  0  0  0
 10 12  1  0  0  0  0
 11 16  1  0  0  0  0
 12 13  1  6  0  0  0
 12 14  1  0  0  0  0
 14 15  1  6  0  0  0
 14 16  1  0  0  0  0
 16 27  1  1  0  0  0
 18 19  2  0  0  0  0
 18 23  1  0  0  0  0
 19 20  1  0  0  0  0
 20 21  2  0  0  0  0
 21 22  1  0  0  0  0
 21 27  1  0  0  0  0
 22 23  2  0  0  0  0
 22 25  1  0  0  0  0
 23 24  1  0  0  0  0
 25 26  2  0  0  0  0
 26 27  1  0  0  0  0
M  END
>  <CHROM.1>
-39.45110926,-172.27696236,-168.59930537,-166.49762515,-49.21904209,130.84522764
-70.96201041,46.56961491,56.67028773,31.34934509,1.91407334,-0.60960601,-1.06868682

>  <Name>
ligand

>  <RI>
0

>  <Rbt.Current_Directory>
/home/itssahil/PROJECTS/Mol_Feturizer/New_Systems/rnas/3IQN

>  <Rbt.Executable>
rbdock ($Id: //depot/dev/client3/rdock/2013.1/src/exe/rbdock.cxx#4 $)

>  <Rbt.Library>
libRbt.so (2013.1, Build901 2013/11/27)

>  <Rbt.Parameter_File>
/export/apps/rDock/src/rDock_2013.1_src/data/scripts/dock_solv.prm

>  <Rbt.Receptor>
prm/pocket_docking_6.prm

>  <SCORE>
-17.1214

>  <SCORE.INTER>
-14.2372

>  <SCORE.INTER.CONST>
1

>  <SCORE.INTER.POLAR>
0

>  <SCORE.INTER.ROT>
7

>  <SCORE.INTER.SOLV>
20.1398

>  <SCORE.INTER.VDW>
-24.4714

>  <SCORE.INTER.norm>
-0.527303

>  <SCORE.INTRA>
-2.88426

>  <SCORE.INTRA.DIHEDRAL>
0.390741

>  <SCORE.INTRA.DIHEDRAL.0>
10.0365

>  <SCORE.INTRA.POLAR>
0

>  <SCORE.INTRA.POLAR.0>
0

>  <SCORE.INTRA.REPUL>
0

>  <SCORE.INTRA.REPUL.0>
0

>  <SCORE.INTRA.SOLV>
-0.482225

>  <SCORE.INTRA.SOLV.lig_0>
-48.6728

>  <SCORE.INTRA.VDW>
-2.83852

>  <SCORE.INTRA.VDW.0>
-1.10662

>  <SCORE.INTRA.norm>
-0.106824

>  <SCORE.RESTR>
0

>  <SCORE.RESTR.CAVITY>
0

>  <SCORE.RESTR.norm>
0

>  <SCORE.SYSTEM>
0

>  <SCORE.SYSTEM.CONST>
0

>  <SCORE.SYSTEM.DIHEDRAL>
0

>  <SCORE.SYSTEM.SOLV>
0

>  <SCORE.SYSTEM.norm>
0

>  <SCORE.heavy>
27

>  <SCORE.norm>
-0.634127

>  <RMSD>
5.289

$$$$
ligand
 OpenBabel11021811483D
libRbt.so/2013.1/901 2013/11/27
 27 29  0  0  0  0  0  0  0  0999 V2000
   44.4724   56.0843   30.2225 N   0  0  0  0  0  0  0  0  0  0  0  0
   45.7494   56.8062   30.2980 C   0  0  2  0  0  0  0  0  0  0  0  0
   46.6919   56.2099   29.2963 C   0  0  0  0  0  0  0  0  0  0  0  0
   47.4478   56.9322   28.6661 O   0  0  0  0  0  0  0  0  0  0  0  0
   46.3517   56.6787   31.7053 C   0  0  0  0  0  0  0  0  0  0  0  0
   47.6309   57.5078   31.7725 C   0  0  0  0  0  0  0  0  0  0  0  0
   48.3019   57.6712   33.4579 S   0  0  2  0  0  0  0  0  0  0  0  0
   49.6449   58.8884   33.2988 C   0  0  0  0  0  0  0  0  0  0  0  0
   49.3108   56.2112   33.9010 C   0  0  0  0  0  0  0  0  0  0  0  0
   48.3721   55.0570   33.6486 C   0  0  1  0  0  0  0  0  0  0  0  0
   48.6636   54.6695   32.3464 O   0  0  0  0  0  0  0  0  0  0  0  0
   48.5057   53.7282   34.3938 C   0  0  1  0  0  0  0  0  0  0  0  0
   47.7507   53.6941   35.5709 O   0  0  0  0  0  0  0  0  0  0  0  0
   47.9632   52.7538   33.2418 C   0  0  1  0  0  0  0  0  0  0  0  0
   46.6552   53.0818   32.7509 O   0  0  0  0  0  0  0  0  0  0  0  0
   49.0979   53.2531   32.3772 C   0  0  1  0  0  0  0  0  0  0  0  0
   46.7100   55.0010   29.1266 O   0  0  0  0  0  0  0  0  0  0  0  0
   46.9067   52.0388   28.0191 N   0  0  0  0  0  0  0  0  0  0  0  0
   46.4202   52.1025   29.2595 C   0  0  0  0  0  0  0  0  0  0  0  0
   47.1666   52.5033   30.2878 N   0  0  0  0  0  0  0  0  0  0  0  0
   48.4768   52.7401   30.1392 C   0  0  0  0  0  0  0  0  0  0  0  0
   49.0524   52.6173   28.8345 C   0  0  0  0  0  0  0  0  0  0  0  0
   48.1899   52.2584   27.7624 C   0  0  0  0  0  0  0  0  0  0  0  0
   48.6568   52.1376   26.4836 N   0  0  0  0  0  0  0  0  0  0  0  0
   50.3648   52.8986   28.9523 N   0  0  0  0  0  0  0  0  0  0  0  0
   50.6416   53.1755   30.2075 C   0  0  0  0  0  0  0  0  0  0  0  0
   49.5184   53.1119   30.9951 N   0  0  0  0  0  0  0  0  0  0  0  0
  2  1  1  1  0  0  0
  2  3  1  0  0  0  0
  2  5  1  0  0  0  0
  3  4  1  0  0  0  0
  3 17  1  0  0  0  0
  5  6  1  0  0  0  0
  7  6  1  6  0  0  0
  7  8  1  0  0  0  0
  7  9  1  0  0  0  0
 10  9  1  1  0  0  0
 10 11  1  0  0  0  0
 10 12  1  0  0  0  0
 11 16  1  0  0  0  0
 12 13  1  1  0  0  0
 12 14  1  0  0  0  0
 14 15  1  6  0  0  0
 14 16  1  0  0  0  0
 16 27  1  6  0  0  0
 18 19  2  0  0  0  0
 18 23  1  0  0  0  0
 19 20  1  0  0  0  0
 20 21  2  0  0  0  0
 21 22  1  0  0  0  0
 21 27  1  0  0  0  0
 22 23  2  0  0  0  0
 22 25  1  0  0  0  0
 23 24  1  0  0  0  0
 25 26  2  0  0  0  0
 26 27  1  0  0  0  0
M  END
>  <CHROM.1>
141.63381565,-176.61040964,170.43660622,-171.65031809,-54.13028623,93.44840774
-87.53639842,47.95124016,54.64515086,31.16917522,1.50486356,-1.15193325,0.85070957

>  <Name>
ligand

>  <RI>
0

>  <Rbt.Current_Directory>
/home/itssahil/PROJECTS/Mol_Feturizer/New_Systems/rnas/3IQN

>  <Rbt.Executable>
rbdock ($Id: //depot/dev/client3/rdock/2013.1/src/exe/rbdock.cxx#4 $)

>  <Rbt.Library>
libRbt.so (2013.1, Build901 2013/11/27)

>  <Rbt.Parameter_File>
/export/apps/rDock/src/rDock_2013.1_src/data/scripts/dock_solv.prm

>  <Rbt.Receptor>
prm/pocket_docking_5.prm

>  <SCORE>
-16.6788

>  <SCORE.INTER>
-12.051

>  <SCORE.INTER.CONST>
1

>  <SCORE.INTER.POLAR>
0

>  <SCORE.INTER.ROT>
7

>  <SCORE.INTER.SOLV>
9.22295

>  <SCORE.INTER.VDW>
-19.375

>  <SCORE.INTER.norm>
-0.446333

>  <SCORE.INTRA>
-4.62781

>  <SCORE.INTRA.DIHEDRAL>
-2.43943

>  <SCORE.INTRA.DIHEDRAL.0>
10.0365

>  <SCORE.INTRA.POLAR>
0

>  <SCORE.INTRA.POLAR.0>
0

>  <SCORE.INTRA.REPUL>
0

>  <SCORE.INTRA.REPUL.0>
0

>  <SCORE.INTRA.SOLV>
-0.63025

>  <SCORE.INTRA.SOLV.lig_0>
-48.6728

>  <SCORE.INTRA.VDW>
-3.09297

>  <SCORE.INTRA.VDW.0>
-1.10662

>  <SCORE.INTRA.norm>
-0.171401

>  <SCORE.RESTR>
0

>  <SCORE.RESTR.CAVITY>
0

>  <SCORE.RESTR.norm>
0

>  <SCORE.SYSTEM>
0

>  <SCORE.SYSTEM.CONST>
0

>  <SCORE.SYSTEM.DIHEDRAL>
0

>  <SCORE.SYSTEM.SOLV>
0

>  <SCORE.SYSTEM.norm>
0

>  <SCORE.heavy>
27

>  <SCORE.norm>
-0.617733

>  <RMSD>
5.302

$$$$
ligand
 OpenBabel11021811483D
libRbt.so/2013.1/901 2013/11/27
 27 29  0  0  0  0  0  0  0  0999 V2000
   45.8558   56.7024   31.8393 N   0  0  0  0  0  0  0  0  0  0  0  0
   46.4244   56.5199   30.4974 C   0  0  2  0  0  0  0  0  0  0  0  0
   45.5571   55.5592   29.7408 C   0  0  0  0  0  0  0  0  0  0  0  0
   45.4077   55.6920   28.5365 O   0  0  0  0  0  0  0  0  0  0  0  0
   47.8493   55.9545   30.5943 C   0  0  0  0  0  0  0  0  0  0  0  0
   48.7781   57.0430   31.1242 C   0  0  0  0  0  0  0  0  0  0  0  0
   48.6577   57.2859   32.9253 S   0  0  2  0  0  0  0  0  0  0  0  0
   49.6364   58.7848   33.2506 C   0  0  0  0  0  0  0  0  0  0  0  0
   49.7054   56.0799   33.8161 C   0  0  0  0  0  0  0  0  0  0  0  0
   48.7216   55.0151   34.2348 C   0  0  1  0  0  0  0  0  0  0  0  0
   48.2213   54.5325   33.0316 O   0  0  0  0  0  0  0  0  0  0  0  0
   49.1713   53.7204   34.9133 C   0  0  1  0  0  0  0  0  0  0  0  0
   49.1938   53.8246   36.3081 O   0  0  0  0  0  0  0  0  0  0  0  0
   48.0287   52.7470   34.3497 C   0  0  1  0  0  0  0  0  0  0  0  0
   46.6882   53.1797   34.6246 O   0  0  0  0  0  0  0  0  0  0  0  0
   48.5206   53.0829   32.9606 C   0  0  1  0  0  0  0  0  0  0  0  0
   45.0160   54.6376   30.3312 O   0  0  0  0  0  0  0  0  0  0  0  0
   50.6986   53.0293   28.4305 N   0  0  0  0  0  0  0  0  0  0  0  0
   51.1876   53.3193   29.6372 C   0  0  0  0  0  0  0  0  0  0  0  0
   50.4448   53.2214   30.7390 N   0  0  0  0  0  0  0  0  0  0  0  0
   49.1354   52.9474   30.6669 C   0  0  0  0  0  0  0  0  0  0  0  0
   48.5569   52.6956   29.3821 C   0  0  0  0  0  0  0  0  0  0  0  0
   49.4159   52.7414   28.2498 C   0  0  0  0  0  0  0  0  0  0  0  0
   48.9463   52.4955   26.9901 N   0  0  0  0  0  0  0  0  0  0  0  0
   47.2461   52.4540   29.5783 N   0  0  0  0  0  0  0  0  0  0  0  0
   46.9727   52.5406   30.8614 C   0  0  0  0  0  0  0  0  0  0  0  0
   48.0970   52.8277   31.5959 N   0  0  0  0  0  0  0  0  0  0  0  0
  2  1  1  1  0  0  0
  2  3  1  0  0  0  0
  2  5  1  0  0  0  0
  3  4  1  0  0  0  0
  3 17  1  0  0  0  0
  5  6  1  0  0  0  0
  7  6  1  6  0  0  0
  7  8  1  0  0  0  0
  7  9  1  0  0  0  0
 10  9  1  6  0  0  0
 10 11  1  0  0  0  0
 10 12  1  0  0  0  0
 11 16  1  0  0  0  0
 12 13  1  1  0  0  0
 12 14  1  0  0  0  0
 14 15  1  6  0  0  0
 14 16  1  0  0  0  0
 16 27  1  6  0  0  0
 18 19  2  0  0  0  0
 18 23  1  0  0  0  0
 19 20  1  0  0  0  0
 20 21  2  0  0  0  0
 21 22  1  0  0  0  0
 21 27  1  0  0  0  0
 22 23  2  0  0  0  0
 22 25  1  0  0  0  0
 23 24  1  0  0  0  0
 25 26  2  0  0  0  0
 26 27  1  0  0  0  0
M  END
>  <CHROM.1>
146.10598774,-71.40786828,78.21902238,-171.10168713,-99.01321039,61.35594217
92.26823043,48.21036891,54.57469098,31.58106062,1.44414176,-1.01499870,1.09152213

>  <Name>
ligand

>  <RI>
0

>  <Rbt.Current_Directory>
/home/itssahil/PROJECTS/Mol_Feturizer/New_Systems/rnas/3IQN

>  <Rbt.Executable>
rbdock ($Id: //depot/dev/client3/rdock/2013.1/src/exe/rbdock.cxx#4 $)

>  <Rbt.Library>
libRbt.so (2013.1, Build901 2013/11/27)

>  <Rbt.Parameter_File>
/export/apps/rDock/src/rDock_2013.1_src/data/scripts/dock_solv.prm

>  <Rbt.Receptor>
prm/pocket_docking_4.prm

>  <SCORE>
-17.0091

>  <SCORE.INTER>
-13.1791

>  <SCORE.INTER.CONST>
1

>  <SCORE.INTER.POLAR>
0

>  <SCORE.INTER.ROT>
7

>  <SCORE.INTER.SOLV>
7.72994

>  <SCORE.INTER.VDW>
-19.6294

>  <SCORE.INTER.norm>
-0.488116

>  <SCORE.INTRA>
-3.82998

>  <SCORE.INTRA.DIHEDRAL>
-1.94623

>  <SCORE.INTRA.DIHEDRAL.0>
10.0365

>  <SCORE.INTRA.POLAR>
0

>  <SCORE.INTRA.POLAR.0>
0

>  <SCORE.INTRA.REPUL>
0

>  <SCORE.INTRA.REPUL.0>
0

>  <SCORE.INTRA.SOLV>
2.15158

>  <SCORE.INTRA.SOLV.lig_0>
-48.6728

>  <SCORE.INTRA.VDW>
-3.93265

>  <SCORE.INTRA.VDW.0>
-1.10662

>  <SCORE.INTRA.norm>
-0.141851

>  <SCORE.RESTR>
0

>  <SCORE.RESTR.CAVITY>
0

>  <SCORE.RESTR.norm>
0

>  <SCORE.SYSTEM>
0

>  <SCORE.SYSTEM.CONST>
0

>  <SCORE.SYSTEM.DIHEDRAL>
0

>  <SCORE.SYSTEM.SOLV>
0

>  <SCORE.SYSTEM.norm>
0

>  <SCORE.heavy>
27

>  <SCORE.norm>
-0.629967

>  <RMSD>
5.310

$$$$
ligand
 OpenBabel11021811483D
libRbt.so/2013.1/901 2013/11/27
 27 29  0  0  0  0  0  0  0  0999 V2000
   46.9563   58.5471   29.4697 N   0  0  0  0  0  0  0  0  0  0  0  0
   48.1156   58.7007   30.3584 C   0  0  2  0  0  0  0  0  0  0  0  0
   48.7426   57.3537   30.5581 C   0  0  0  0  0  0  0  0  0  0  0  0
   49.8191   57.2610   31.1264 O   0  0  0  0  0  0  0  0  0  0  0  0
   47.6750   59.2657   31.7171 C   0  0  0  0  0  0  0  0  0  0  0  0
   46.3609   58.6057   32.1244 C   0  0  0  0  0  0  0  0  0  0  0  0
   46.5341   56.8413   32.5421 S   0  0  2  0  0  0  0  0  0  0  0  0
   45.2138   56.5271   33.7540 C   0  0  0  0  0  0  0  0  0  0  0  0
   47.9752   56.5698   33.6354 C   0  0  0  0  0  0  0  0  0  0  0  0
   47.8241   55.1264   34.0488 C   0  0  1  0  0  0  0  0  0  0  0  0
   47.5912   54.4599   32.8521 O   0  0  0  0  0  0  0  0  0  0  0  0
   48.9936   54.3215   34.6175 C   0  0  1  0  0  0  0  0  0  0  0  0
   49.0724   54.4004   36.0119 O   0  0  0  0  0  0  0  0  0  0  0  0
   48.5759   52.8743   34.0680 C   0  0  1  0  0  0  0  0  0  0  0  0
   47.2607   52.4478   34.4522 O   0  0  0  0  0  0  0  0  0  0  0  0
   48.6626   53.4519   32.6740 C   0  0  1  0  0  0  0  0  0  0  0  0
   48.1651   56.3525   30.1646 O   0  0  0  0  0  0  0  0  0  0  0  0
   50.6064   54.1350   28.0888 N   0  0  0  0  0  0  0  0  0  0  0  0
   50.9657   54.6230   29.2772 C   0  0  0  0  0  0  0  0  0  0  0  0
   50.3400   54.2718   30.3999 N   0  0  0  0  0  0  0  0  0  0  0  0
   49.2398   53.5081   30.3672 C   0  0  0  0  0  0  0  0  0  0  0  0
   48.7818   53.0185   29.1026 C   0  0  0  0  0  0  0  0  0  0  0  0
   49.5342   53.3662   27.9472 C   0  0  0  0  0  0  0  0  0  0  0  0
   49.1746   52.9250   26.7047 N   0  0  0  0  0  0  0  0  0  0  0  0
   47.6725   52.2909   29.3376 N   0  0  0  0  0  0  0  0  0  0  0  0
   47.4104   52.2968   30.6260 C   0  0  0  0  0  0  0  0  0  0  0  0
   48.3472   53.0173   31.3254 N   0  0  0  0  0  0  0  0  0  0  0  0
  2  1  1  6  0  0  0
  2  3  1  0  0  0  0
  2  5  1  0  0  0  0
  3  4  1  0  0  0  0
  3 17  1  0  0  0  0
  5  6  1  0  0  0  0
  7  6  1  1  0  0  0
  7  8  1  0  0  0  0
  7  9  1  0  0  0  0
 10  9  1  6  0  0  0
 10 11  1  0  0  0  0
 10 12  1  0  0  0  0
 11 16  1  0  0  0  0
 12 13  1  1  0  0  0
 12 14  1  0  0  0  0
 14 15  1  1  0  0  0
 14 16  1  0  0  0  0
 16 27  1  6  0  0  0
 18 19  2  0  0  0  0
 18 23  1  0  0  0  0
 19 20  1  0  0  0  0
 20 21  2  0  0  0  0
 21 22  1  0  0  0  0
 21 27  1  0  0  0  0
 22 23  2  0  0  0  0
 22 25  1  0  0  0  0
 23 24  1  0  0  0  0
 25 26  2  0  0  0  0
 26 27  1  0  0  0  0
M  END
>  <CHROM.1>
170.90321832,40.36405199,69.08454022,151.11181816,171.06873781,48.21902343
105.52407208,48.23972385,55.17636176,31.51354366,2.96753881,-1.20291945,2.38332102

>  <Name>
ligand

>  <RI>
0

>  <Rbt.Current_Directory>
/home/itssahil/PROJECTS/Mol_Feturizer/New_Systems/rnas/3IQN

>  <Rbt.Executable>
rbdock ($Id: //depot/dev/client3/rdock/2013.1/src/exe/rbdock.cxx#4 $)

>  <Rbt.Library>
libRbt.so (2013.1, Build901 2013/11/27)

>  <Rbt.Parameter_File>
/export/apps/rDock/src/rDock_2013.1_src/data/scripts/dock_solv.prm

>  <Rbt.Receptor>
prm/pocket_docking_3.prm

>  <SCORE>
-15.2758

>  <SCORE.INTER>
-13.7969

>  <SCORE.INTER.CONST>
1

>  <SCORE.INTER.POLAR>
0

>  <SCORE.INTER.ROT>
7

>  <SCORE.INTER.SOLV>
8.97601

>  <SCORE.INTER.VDW>
-20.4566

>  <SCORE.INTER.norm>
-0.510997

>  <SCORE.INTRA>
-1.4789

>  <SCORE.INTRA.DIHEDRAL>
-3.6092

>  <SCORE.INTRA.DIHEDRAL.0>
10.0365

>  <SCORE.INTRA.POLAR>
0

>  <SCORE.INTRA.POLAR.0>
0

>  <SCORE.INTRA.REPUL>
0

>  <SCORE.INTRA.REPUL.0>
0

>  <SCORE.INTRA.SOLV>
0.769412

>  <SCORE.INTRA.SOLV.lig_0>
-48.6728

>  <SCORE.INTRA.VDW>
-0.0590062

>  <SCORE.INTRA.VDW.0>
-1.10662

>  <SCORE.INTRA.norm>
-0.054774

>  <SCORE.RESTR>
0

>  <SCORE.RESTR.CAVITY>
0

>  <SCORE.RESTR.norm>
0

>  <SCORE.SYSTEM>
0

>  <SCORE.SYSTEM.CONST>
0

>  <SCORE.SYSTEM.DIHEDRAL>
0

>  <SCORE.SYSTEM.SOLV>
0

>  <SCORE.SYSTEM.norm>
0

>  <SCORE.heavy>
27

>  <SCORE.norm>
-0.565771

>  <RMSD>
5.315

$$$$
ligand
 OpenBabel11021811483D
libRbt.so/2013.1/901 2013/11/27
 27 29  0  0  0  0  0  0  0  0999 V2000
   47.7627   56.0761   28.3438 N   0  0  0  0  0  0  0  0  0  0  0  0
   47.0410   57.0611   29.1599 C   0  0  2  0  0  0  0  0  0  0  0  0
   45.8255   57.5056   28.4033 C   0  0  0  0  0  0  0  0  0  0  0  0
   45.2623   56.7312   27.6462 O   0  0  0  0  0  0  0  0  0  0  0  0
   47.9369   58.2755   29.4463 C   0  0  0  0  0  0  0  0  0  0  0  0
   49.0396   57.8589   30.4152 C   0  0  0  0  0  0  0  0  0  0  0  0
   48.4422   57.5614   32.1100 S   0  0  2  0  0  0  0  0  0  0  0  0
   48.7755   59.1177   32.9916 C   0  0  0  0  0  0  0  0  0  0  0  0
   49.5969   56.4785   33.0263 C   0  0  0  0  0  0  0  0  0  0  0  0
   48.7048   55.3652   33.5181 C   0  0  1  0  0  0  0  0  0  0  0  0
   48.2925   54.7297   32.3532 O   0  0  0  0  0  0  0  0  0  0  0  0
   49.2523   54.1867   34.3247 C   0  0  1  0  0  0  0  0  0  0  0  0
   49.2187   54.4180   35.7039 O   0  0  0  0  0  0  0  0  0  0  0  0
   48.2261   53.0601   33.8263 C   0  0  1  0  0  0  0  0  0  0  0  0
   46.8424   53.3834   34.0273 O   0  0  0  0  0  0  0  0  0  0  0  0
   48.7297   53.3156   32.4244 C   0  0  1  0  0  0  0  0  0  0  0  0
   45.3947   58.6372   28.5602 O   0  0  0  0  0  0  0  0  0  0  0  0
   51.0952   52.9210   28.0065 N   0  0  0  0  0  0  0  0  0  0  0  0
   51.5175   53.3602   29.1932 C   0  0  0  0  0  0  0  0  0  0  0  0
   50.7354   53.3340   30.2716 N   0  0  0  0  0  0  0  0  0  0  0  0
   49.4463   52.9807   30.1812 C   0  0  0  0  0  0  0  0  0  0  0  0
   48.9360   52.5665   28.9097 C   0  0  0  0  0  0  0  0  0  0  0  0
   49.8381   52.5443   27.8106 C   0  0  0  0  0  0  0  0  0  0  0  0
   49.4350   52.1446   26.5675 N   0  0  0  0  0  0  0  0  0  0  0  0
   47.6325   52.2727   29.0825 N   0  0  0  0  0  0  0  0  0  0  0  0
   47.3015   52.4748   30.3388 C   0  0  0  0  0  0  0  0  0  0  0  0
   48.3775   52.8985   31.0794 N   0  0  0  0  0  0  0  0  0  0  0  0
  2  1  1  6  0  0  0
  2  3  1  0  0  0  0
  2  5  1  0  0  0  0
  3  4  1  0  0  0  0
  3 17  1  0  0  0  0
  5  6  1  0  0  0  0
  7  6  1  6  0  0  0
  7  8  1  0  0  0  0
  7  9  1  0  0  0  0
 10  9  1  6  0  0  0
 10 11  1  0  0  0  0
 10 12  1  0  0  0  0
 11 16  1  0  0  0  0
 12 13  1  1  0  0  0
 12 14  1  0  0  0  0
 14 15  1  6  0  0  0
 14 16  1  0  0  0  0
 16 27  1  6  0  0  0
 18 19  2  0  0  0  0
 18 23  1  0  0  0  0
 19 20  1  0  0  0  0
 20 21  2  0  0  0  0
 21 22  1  0  0  0  0
 21 27  1  0  0  0  0
 22 23  2  0  0  0  0
 22 25  1  0  0  0  0
 23 24  1  0  0  0  0
 25 26  2  0  0  0  0
 26 27  1  0  0  0  0
M  END
>  <CHROM.1>
31.41221652,-70.38067885,-71.45310266,-96.89055498,-126.14718915,65.57905207
94.82495422,48.42154966,55.05916337,30.77665386,1.60625130,1.15513933,-1.89149158

>  <Name>
ligand

>  <RI>
0

>  <Rbt.Current_Directory>
/home/itssahil/PROJECTS/Mol_Feturizer/New_Systems/rnas/3IQN

>  <Rbt.Executable>
rbdock ($Id: //depot/dev/client3/rdock/2013.1/src/exe/rbdock.cxx#4 $)

>  <Rbt.Library>
libRbt.so (2013.1, Build901 2013/11/27)

>  <Rbt.Parameter_File>
/export/apps/rDock/src/rDock_2013.1_src/data/scripts/dock_solv.prm

>  <Rbt.Receptor>
prm/pocket_docking_4.prm

>  <SCORE>
-15.5621

>  <SCORE.INTER>
-14.6352

>  <SCORE.INTER.CONST>
1

>  <SCORE.INTER.POLAR>
0

>  <SCORE.INTER.ROT>
7

>  <SCORE.INTER.SOLV>
8.05886

>  <SCORE.INTER.VDW>
-20.7098

>  <SCORE.INTER.norm>
-0.542045

>  <SCORE.INTRA>
-0.926863

>  <SCORE.INTRA.DIHEDRAL>
0.67179

>  <SCORE.INTRA.DIHEDRAL.0>
10.0365

>  <SCORE.INTRA.POLAR>
0

>  <SCORE.INTRA.POLAR.0>
0

>  <SCORE.INTRA.REPUL>
0

>  <SCORE.INTRA.REPUL.0>
0

>  <SCORE.INTRA.SOLV>
0.206899

>  <SCORE.INTRA.SOLV.lig_0>
-48.6728

>  <SCORE.INTRA.VDW>
-1.36621

>  <SCORE.INTRA.VDW.0>
-1.10662

>  <SCORE.INTRA.norm>
-0.0343283

>  <SCORE.RESTR>
0

>  <SCORE.RESTR.CAVITY>
0

>  <SCORE.RESTR.norm>
0

>  <SCORE.SYSTEM>
0

>  <SCORE.SYSTEM.CONST>
0

>  <SCORE.SYSTEM.DIHEDRAL>
0

>  <SCORE.SYSTEM.SOLV>
0

>  <SCORE.SYSTEM.norm>
0

>  <SCORE.heavy>
27

>  <SCORE.norm>
-0.576373

>  <RMSD>
5.316

$$$$
ligand
 OpenBabel11021811483D
libRbt.so/2013.1/901 2013/11/27
 27 29  0  0  0  0  0  0  0  0999 V2000
   48.7593   51.6836   29.0398 N   0  0  0  0  0  0  0  0  0  0  0  0
   48.4753   52.6766   27.9954 C   0  0  2  0  0  0  0  0  0  0  0  0
   47.9232   51.9623   26.7985 C   0  0  0  0  0  0  0  0  0  0  0  0
   46.7615   52.1373   26.4669 O   0  0  0  0  0  0  0  0  0  0  0  0
   49.7614   53.4175   27.5999 C   0  0  0  0  0  0  0  0  0  0  0  0
   50.2922   54.1703   28.8163 C   0  0  0  0  0  0  0  0  0  0  0  0
   49.1690   55.4762   29.4085 S   0  0  2  0  0  0  0  0  0  0  0  0
   49.1753   56.7207   28.0812 C   0  0  0  0  0  0  0  0  0  0  0  0
   49.9646   56.4739   30.7189 C   0  0  0  0  0  0  0  0  0  0  0  0
   48.8609   57.4043   31.1585 C   0  0  1  0  0  0  0  0  0  0  0  0
   47.9988   56.5833   31.8750 O   0  0  0  0  0  0  0  0  0  0  0  0
   49.1054   58.5314   32.1630 C   0  0  1  0  0  0  0  0  0  0  0  0
   49.4642   59.7337   31.5445 O   0  0  0  0  0  0  0  0  0  0  0  0
   47.6565   58.5571   32.8491 C   0  0  1  0  0  0  0  0  0  0  0  0
   46.5669   58.7429   31.9338 O   0  0  0  0  0  0  0  0  0  0  0  0
   47.8951   57.1201   33.2522 C   0  0  1  0  0  0  0  0  0  0  0  0
   48.6440   51.2196   26.1507 O   0  0  0  0  0  0  0  0  0  0  0  0
   48.8366   53.2908   36.3697 N   0  0  0  0  0  0  0  0  0  0  0  0
   49.6439   54.2106   35.8388 C   0  0  0  0  0  0  0  0  0  0  0  0
   49.1801   55.1896   35.0632 N   0  0  0  0  0  0  0  0  0  0  0  0
   47.8964   55.2184   34.6808 C   0  0  0  0  0  0  0  0  0  0  0  0
   47.0105   54.2089   35.1755 C   0  0  0  0  0  0  0  0  0  0  0  0
   47.5478   53.2331   36.0595 C   0  0  0  0  0  0  0  0  0  0  0  0
   46.7653   52.2463   36.5902 N   0  0  0  0  0  0  0  0  0  0  0  0
   45.7957   54.4542   34.6471 N   0  0  0  0  0  0  0  0  0  0  0  0
   45.8616   55.5152   33.8732 C   0  0  0  0  0  0  0  0  0  0  0  0
   47.1271   56.0483   33.8592 N   0  0  0  0  0  0  0  0  0  0  0  0
  2  1  1  1  0  0  0
  2  3  1  0  0  0  0
  2  5  1  0  0  0  0
  3  4  1  0  0  0  0
  3 17  1  0  0  0  0
  5  6  1  0  0  0  0
  7  6  1  6  0  0  0
  7  8  1  0  0  0  0
  7  9  1  0  0  0  0
 10  9  1  1  0  0  0
 10 11  1  0  0  0  0
 10 12  1  0  0  0  0
 11 16  1  0  0  0  0
 12 13  1  6  0  0  0
 12 14  1  0  0  0  0
 14 15  1  6  0  0  0
 14 16  1  0  0  0  0
 16 27  1  6  0  0  0
 18 19  2  0  0  0  0
 18 23  1  0  0  0  0
 19 20  1  0  0  0  0
 20 21  2  0  0  0  0
 21 22  1  0  0  0  0
 21 27  1  0  0  0  0
 22 23  2  0  0  0  0
 22 25  1  0  0  0  0
 23 24  1  0  0  0  0
 25 26  2  0  0  0  0
 26 27  1  0  0  0  0
M  END
>  <CHROM.1>
112.61035306,-62.24916078,-63.78513994,-67.28274367,-175.26148229,72.95669016
104.69913519,48.28061008,55.09332950,31.54625089,0.91478446,-1.36817234,-2.50772059

>  <Name>
ligand

>  <RI>
0

>  <Rbt.Current_Directory>
/home/itssahil/PROJECTS/Mol_Feturizer/New_Systems/rnas/3IQN

>  <Rbt.Executable>
rbdock ($Id: //depot/dev/client3/rdock/2013.1/src/exe/rbdock.cxx#4 $)

>  <Rbt.Library>
libRbt.so (2013.1, Build901 2013/11/27)

>  <Rbt.Parameter_File>
/export/apps/rDock/src/rDock_2013.1_src/data/scripts/dock_solv.prm

>  <Rbt.Receptor>
prm/pocket_docking_7.prm

>  <SCORE>
-15.5717

>  <SCORE.INTER>
-11.8522

>  <SCORE.INTER.CONST>
1

>  <SCORE.INTER.POLAR>
0

>  <SCORE.INTER.ROT>
7

>  <SCORE.INTER.SOLV>
16.1955

>  <SCORE.INTER.VDW>
-21.5666

>  <SCORE.INTER.norm>
-0.43897

>  <SCORE.INTRA>
-3.71951

>  <SCORE.INTRA.DIHEDRAL>
-6.07257

>  <SCORE.INTRA.DIHEDRAL.0>
10.0365

>  <SCORE.INTRA.POLAR>
0

>  <SCORE.INTRA.POLAR.0>
0

>  <SCORE.INTRA.REPUL>
0

>  <SCORE.INTRA.REPUL.0>
0

>  <SCORE.INTRA.SOLV>
0.146858

>  <SCORE.INTRA.SOLV.lig_0>
-48.6728

>  <SCORE.INTRA.VDW>
-0.756652

>  <SCORE.INTRA.VDW.0>
-1.10662

>  <SCORE.INTRA.norm>
-0.13776

>  <SCORE.RESTR>
0

>  <SCORE.RESTR.CAVITY>
0

>  <SCORE.RESTR.norm>
0

>  <SCORE.SYSTEM>
0

>  <SCORE.SYSTEM.CONST>
0

>  <SCORE.SYSTEM.DIHEDRAL>
0

>  <SCORE.SYSTEM.SOLV>
0

>  <SCORE.SYSTEM.norm>
0

>  <SCORE.heavy>
27

>  <SCORE.norm>
-0.57673

>  <RMSD>
5.317

$$$$
ligand
 OpenBabel11021811483D
libRbt.so/2013.1/901 2013/11/27
 27 29  0  0  0  0  0  0  0  0999 V2000
   47.3026   56.1442   27.2625 N   0  0  0  0  0  0  0  0  0  0  0  0
   47.3893   56.6571   28.6361 C   0  0  2  0  0  0  0  0  0  0  0  0
   46.0085   56.6896   29.2190 C   0  0  0  0  0  0  0  0  0  0  0  0
   45.1078   57.2558   28.6204 O   0  0  0  0  0  0  0  0  0  0  0  0
   47.9789   58.0754   28.6397 C   0  0  0  0  0  0  0  0  0  0  0  0
   48.7014   58.3072   29.9636 C   0  0  0  0  0  0  0  0  0  0  0  0
   47.5836   58.3605   31.4006 S   0  0  2  0  0  0  0  0  0  0  0  0
   47.6001   60.1018   31.9279 C   0  0  0  0  0  0  0  0  0  0  0  0
   48.3809   57.6243   32.8730 C   0  0  0  0  0  0  0  0  0  0  0  0
   48.1341   56.1465   32.6930 C   0  0  1  0  0  0  0  0  0  0  0  0
   48.6916   55.8645   31.4519 O   0  0  0  0  0  0  0  0  0  0  0  0
   48.8176   55.0994   33.5736 C   0  0  1  0  0  0  0  0  0  0  0  0
   48.0673   54.7812   34.7105 O   0  0  0  0  0  0  0  0  0  0  0  0
   48.9127   53.9117   32.5006 C   0  0  1  0  0  0  0  0  0  0  0  0
   47.6572   53.5339   31.9170 O   0  0  0  0  0  0  0  0  0  0  0  0
   49.7445   54.8399   31.6457 C   0  0  1  0  0  0  0  0  0  0  0  0
   45.7876   56.1351   30.2841 O   0  0  0  0  0  0  0  0  0  0  0  0
   49.8806   51.6197   27.7882 N   0  0  0  0  0  0  0  0  0  0  0  0
   49.3573   51.5057   29.0099 C   0  0  0  0  0  0  0  0  0  0  0  0
   49.3825   52.5125   29.8823 N   0  0  0  0  0  0  0  0  0  0  0  0
   50.0477   53.6436   29.6124 C   0  0  0  0  0  0  0  0  0  0  0  0
   50.6810   53.7791   28.3360 C   0  0  0  0  0  0  0  0  0  0  0  0
   50.5566   52.7000   27.4182 C   0  0  0  0  0  0  0  0  0  0  0  0
   51.1162   52.7571   26.1728 N   0  0  0  0  0  0  0  0  0  0  0  0
   51.2776   54.9870   28.3158 N   0  0  0  0  0  0  0  0  0  0  0  0
   51.0707   55.5960   29.4626 C   0  0  0  0  0  0  0  0  0  0  0  0
   50.3045   54.8301   30.3066 N   0  0  0  0  0  0  0  0  0  0  0  0
  2  1  1  6  0  0  0
  2  3  1  0  0  0  0
  2  5  1  0  0  0  0
  3  4  1  0  0  0  0
  3 17  1  0  0  0  0
  5  6  1  0  0  0  0
  7  6  1  6  0  0  0
  7  8  1  0  0  0  0
  7  9  1  0  0  0  0
 10  9  1  1  0  0  0
 10 11  1  0  0  0  0
 10 12  1  0  0  0  0
 11 16  1  0  0  0  0
 12 13  1  1  0  0  0
 12 14  1  0  0  0  0
 14 15  1  6  0  0  0
 14 16  1  0  0  0  0
 16 27  1  6  0  0  0
 18 19  2  0  0  0  0
 18 23  1  0  0  0  0
 19 20  1  0  0  0  0
 20 21  2  0  0  0  0
 21 22  1  0  0  0  0
 21 27  1  0  0  0  0
 22 23  2  0  0  0  0
 22 25  1  0  0  0  0
 23 24  1  0  0  0  0
 25 26  2  0  0  0  0
 26 27  1  0  0  0  0
M  END
>  <CHROM.1>
-52.68395326,-151.52613836,-67.23309724,-109.82437449,-83.49732746,56.87244497
-111.25154491,48.59963482,55.51287234,30.24820407,0.48722995,1.04916983,-1.52044921

>  <Name>
ligand

>  <RI>
0

>  <Rbt.Current_Directory>
/home/itssahil/PROJECTS/Mol_Feturizer/New_Systems/rnas/3IQN

>  <Rbt.Executable>
rbdock ($Id: //depot/dev/client3/rdock/2013.1/src/exe/rbdock.cxx#4 $)

>  <Rbt.Library>
libRbt.so (2013.1, Build901 2013/11/27)

>  <Rbt.Parameter_File>
/export/apps/rDock/src/rDock_2013.1_src/data/scripts/dock_solv.prm

>  <Rbt.Receptor>
prm/pocket_docking_5.prm

>  <SCORE>
-16.709

>  <SCORE.INTER>
-13.3388

>  <SCORE.INTER.CONST>
1

>  <SCORE.INTER.POLAR>
0

>  <SCORE.INTER.ROT>
7

>  <SCORE.INTER.SOLV>
5.85744

>  <SCORE.INTER.VDW>
-19.1117

>  <SCORE.INTER.norm>
-0.494031

>  <SCORE.INTRA>
-3.37367

>  <SCORE.INTRA.DIHEDRAL>
0.513068

>  <SCORE.INTRA.DIHEDRAL.0>
10.0365

>  <SCORE.INTRA.POLAR>
0

>  <SCORE.INTRA.POLAR.0>
0

>  <SCORE.INTRA.REPUL>
0

>  <SCORE.INTRA.REPUL.0>
0

>  <SCORE.INTRA.SOLV>
-0.389466

>  <SCORE.INTRA.SOLV.lig_0>
-48.6728

>  <SCORE.INTRA.VDW>
-3.43547

>  <SCORE.INTRA.VDW.0>
-1.10662

>  <SCORE.INTRA.norm>
-0.124951

>  <SCORE.RESTR>
0.00347147

>  <SCORE.RESTR.CAVITY>
0.00347147

>  <SCORE.RESTR.norm>
0.000128573

>  <SCORE.SYSTEM>
0

>  <SCORE.SYSTEM.CONST>
0

>  <SCORE.SYSTEM.DIHEDRAL>
0

>  <SCORE.SYSTEM.SOLV>
0

>  <SCORE.SYSTEM.norm>
0

>  <SCORE.heavy>
27

>  <SCORE.norm>
-0.618853

>  <RMSD>
5.318

$$$$
ligand
 OpenBabel11021811483D
libRbt.so/2013.1/901 2013/11/27
 27 29  0  0  0  0  0  0  0  0999 V2000
   44.6552   56.0434   29.9540 N   0  0  0  0  0  0  0  0  0  0  0  0
   45.9251   56.7718   30.0722 C   0  0  2  0  0  0  0  0  0  0  0  0
   46.9221   56.1414   29.1470 C   0  0  0  0  0  0  0  0  0  0  0  0
   46.9375   54.9293   29.0023 O   0  0  0  0  0  0  0  0  0  0  0  0
   46.4494   56.6993   31.5142 C   0  0  0  0  0  0  0  0  0  0  0  0
   47.7060   57.5574   31.6271 C   0  0  0  0  0  0  0  0  0  0  0  0
   48.2851   57.7742   33.3403 S   0  0  2  0  0  0  0  0  0  0  0  0
   49.7060   58.9024   33.2030 C   0  0  0  0  0  0  0  0  0  0  0  0
   49.1765   56.2855   33.9192 C   0  0  0  0  0  0  0  0  0  0  0  0
   48.2157   55.1661   33.6018 C   0  0  1  0  0  0  0  0  0  0  0  0
   48.6088   54.7377   32.3398 O   0  0  0  0  0  0  0  0  0  0  0  0
   48.2219   53.8499   34.3805 C   0  0  1  0  0  0  0  0  0  0  0  0
   47.3607   53.8737   35.4827 O   0  0  0  0  0  0  0  0  0  0  0  0
   47.7460   52.8734   33.2012 C   0  0  1  0  0  0  0  0  0  0  0  0
   46.5044   53.2446   32.5847 O   0  0  0  0  0  0  0  0  0  0  0  0
   48.9763   53.3054   32.4370 C   0  0  1  0  0  0  0  0  0  0  0  0
   47.7051   56.8459   28.5294 O   0  0  0  0  0  0  0  0  0  0  0  0
   47.1765   51.9173   27.9534 N   0  0  0  0  0  0  0  0  0  0  0  0
   46.5836   52.0238   29.1436 C   0  0  0  0  0  0  0  0  0  0  0  0
   47.2364   52.4669   30.2172 N   0  0  0  0  0  0  0  0  0  0  0  0
   48.5539   52.7062   30.1742 C   0  0  0  0  0  0  0  0  0  0  0  0
   49.2413   52.5389   28.9300 C   0  0  0  0  0  0  0  0  0  0  0  0
   48.4765   52.1352   27.8011 C   0  0  0  0  0  0  0  0  0  0  0  0
   49.0533   51.9702   26.5732 N   0  0  0  0  0  0  0  0  0  0  0  0
   50.5376   52.8324   29.1508 N   0  0  0  0  0  0  0  0  0  0  0  0
   50.7033   53.1573   30.4141 C   0  0  0  0  0  0  0  0  0  0  0  0
   49.5159   53.1158   31.1029 N   0  0  0  0  0  0  0  0  0  0  0  0
  2  1  1  1  0  0  0
  2  3  1  0  0  0  0
  2  5  1  0  0  0  0
  3  4  1  0  0  0  0
  3 17  1  0  0  0  0
  5  6  1  0  0  0  0
  7  6  1  6  0  0  0
  7  8  1  0  0  0  0
  7  9  1  0  0  0  0
 10  9  1  1  0  0  0
 10 11  1  0  0  0  0
 10 12  1  0  0  0  0
 11 16  1  0  0  0  0
 12 13  1  1  0  0  0
 12 14  1  0  0  0  0
 14 15  1  6  0  0  0
 14 16  1  0  0  0  0
 16 27  1  6  0  0  0
 18 19  2  0  0  0  0
 18 23  1  0  0  0  0
 19 20  1  0  0  0  0
 20 21  2  0  0  0  0
 21 22  1  0  0  0  0
 21 27  1  0  0  0  0
 22 23  2  0  0  0  0
 22 25  1  0  0  0  0
 23 24  1  0  0  0  0
 25 26  2  0  0  0  0
 26 27  1  0  0  0  0
M  END
>  <CHROM.1>
-37.84174739,-175.47275099,170.90887119,-176.54791700,-51.28223285,92.85047962
-90.43062691,47.99900992,54.65426282,31.11719790,1.63215197,-1.23222144,0.93210331

>  <Name>
ligand

>  <RI>
0

>  <Rbt.Current_Directory>
/home/itssahil/PROJECTS/Mol_Feturizer/New_Systems/rnas/3IQN

>  <Rbt.Executable>
rbdock ($Id: //depot/dev/client3/rdock/2013.1/src/exe/rbdock.cxx#4 $)

>  <Rbt.Library>
libRbt.so (2013.1, Build901 2013/11/27)

>  <Rbt.Parameter_File>
/export/apps/rDock/src/rDock_2013.1_src/data/scripts/dock_solv.prm

>  <Rbt.Receptor>
prm/pocket_docking_4.prm

>  <SCORE>
-16.6601

>  <SCORE.INTER>
-12.0862

>  <SCORE.INTER.CONST>
1

>  <SCORE.INTER.POLAR>
0

>  <SCORE.INTER.ROT>
7

>  <SCORE.INTER.SOLV>
8.82714

>  <SCORE.INTER.VDW>
-19.2665

>  <SCORE.INTER.norm>
-0.447635

>  <SCORE.INTRA>
-4.57391

>  <SCORE.INTRA.DIHEDRAL>
-2.60547

>  <SCORE.INTRA.DIHEDRAL.0>
10.0365

>  <SCORE.INTRA.POLAR>
0

>  <SCORE.INTRA.POLAR.0>
0

>  <SCORE.INTRA.REPUL>
0

>  <SCORE.INTRA.REPUL.0>
0

>  <SCORE.INTRA.SOLV>
-0.51224

>  <SCORE.INTRA.SOLV.lig_0>
-48.6728

>  <SCORE.INTRA.VDW>
-3.01505

>  <SCORE.INTRA.VDW.0>
-1.10662

>  <SCORE.INTRA.norm>
-0.169404

>  <SCORE.RESTR>
0

>  <SCORE.RESTR.CAVITY>
0

>  <SCORE.RESTR.norm>
0

>  <SCORE.SYSTEM>
0

>  <SCORE.SYSTEM.CONST>
0

>  <SCORE.SYSTEM.DIHEDRAL>
0

>  <SCORE.SYSTEM.SOLV>
0

>  <SCORE.SYSTEM.norm>
0

>  <SCORE.heavy>
27

>  <SCORE.norm>
-0.617039

>  <RMSD>
5.322

$$$$
ligand
 OpenBabel11021811483D
libRbt.so/2013.1/901 2013/11/27
 27 29  0  0  0  0  0  0  0  0999 V2000
   49.1000   57.9795   30.0758 N   0  0  0  0  0  0  0  0  0  0  0  0
   48.1783   58.4756   31.1062 C   0  0  2  0  0  0  0  0  0  0  0  0
   48.9806   58.8801   32.3062 C   0  0  0  0  0  0  0  0  0  0  0  0
   50.1969   58.9510   32.2302 O   0  0  0  0  0  0  0  0  0  0  0  0
   47.1819   57.3765   31.5044 C   0  0  0  0  0  0  0  0  0  0  0  0
   45.9812   57.4334   30.5646 C   0  0  0  0  0  0  0  0  0  0  0  0
   46.4218   57.2170   28.8106 S   0  0  2  0  0  0  0  0  0  0  0  0
   44.8277   57.2334   27.9337 C   0  0  0  0  0  0  0  0  0  0  0  0
   46.9009   55.4851   28.4689 C   0  0  0  0  0  0  0  0  0  0  0  0
   48.3336   55.4271   28.9391 C   0  0  1  0  0  0  0  0  0  0  0  0
   48.2310   55.0582   30.2748 O   0  0  0  0  0  0  0  0  0  0  0  0
   49.3155   54.3790   28.4133 C   0  0  1  0  0  0  0  0  0  0  0  0
   50.0179   54.8185   27.2863 O   0  0  0  0  0  0  0  0  0  0  0  0
   50.2213   54.2215   29.7268 C   0  0  1  0  0  0  0  0  0  0  0  0
   50.7926   55.4472   30.2073 O   0  0  0  0  0  0  0  0  0  0  0  0
   48.9710   53.7873   30.4564 C   0  0  1  0  0  0  0  0  0  0  0  0
   48.4114   59.1522   33.3516 O   0  0  0  0  0  0  0  0  0  0  0  0
   49.4966   56.0208   34.9290 N   0  0  0  0  0  0  0  0  0  0  0  0
   49.9268   56.3712   33.7159 C   0  0  0  0  0  0  0  0  0  0  0  0
   49.6317   55.6556   32.6314 N   0  0  0  0  0  0  0  0  0  0  0  0
   48.9936   54.4818   32.7312 C   0  0  0  0  0  0  0  0  0  0  0  0
   48.5737   54.0371   34.0253 C   0  0  0  0  0  0  0  0  0  0  0  0
   48.8518   54.8797   35.1364 C   0  0  0  0  0  0  0  0  0  0  0  0
   48.4689   54.5369   36.4027 N   0  0  0  0  0  0  0  0  0  0  0  0
   47.9690   52.8448   33.8576 N   0  0  0  0  0  0  0  0  0  0  0  0
   47.9869   52.5208   32.5834 C   0  0  0  0  0  0  0  0  0  0  0  0
   48.5912   53.4943   31.8264 N   0  0  0  0  0  0  0  0  0  0  0  0
  2  1  1  6  0  0  0
  2  3  1  0  0  0  0
  2  5  1  0  0  0  0
  3  4  1  0  0  0  0
  3 17  1  0  0  0  0
  5  6  1  0  0  0  0
  7  6  1  1  0  0  0
  7  8  1  0  0  0  0
  7  9  1  0  0  0  0
 10  9  1  6  0  0  0
 10 11  1  0  0  0  0
 10 12  1  0  0  0  0
 11 16  1  0  0  0  0
 12 13  1  6  0  0  0
 12 14  1  0  0  0  0
 14 15  1  1  0  0  0
 14 16  1  0  0  0  0
 16 27  1  1  0  0  0
 18 19  2  0  0  0  0
 18 23  1  0  0  0  0
 19 20  1  0  0  0  0
 20 21  2  0  0  0  0
 21 22  1  0  0  0  0
 21 27  1  0  0  0  0
 22 23  2  0  0  0  0
 22 25  1  0  0  0  0
 23 24  1  0  0  0  0
 25 26  2  0  0  0  0
 26 27  1  0  0  0  0
M  END
>  <CHROM.1>
10.77705171,-87.53445459,58.70988721,176.98496452,-80.73260041,89.88182887
-60.67202425,48.43983623,55.90187772,31.27243985,2.57107491,1.26146838,-2.29887810

>  <Name>
ligand

>  <RI>
0

>  <Rbt.Current_Directory>
/home/itssahil/PROJECTS/Mol_Feturizer/New_Systems/rnas/3IQN

>  <Rbt.Executable>
rbdock ($Id: //depot/dev/client3/rdock/2013.1/src/exe/rbdock.cxx#4 $)

>  <Rbt.Library>
libRbt.so (2013.1, Build901 2013/11/27)

>  <Rbt.Parameter_File>
/export/apps/rDock/src/rDock_2013.1_src/data/scripts/dock_solv.prm

>  <Rbt.Receptor>
prm/pocket_docking_2.prm

>  <SCORE>
-5.85639

>  <SCORE.INTER>
-6.6053

>  <SCORE.INTER.CONST>
1

>  <SCORE.INTER.POLAR>
0

>  <SCORE.INTER.ROT>
7

>  <SCORE.INTER.SOLV>
16

>  <SCORE.INTER.VDW>
-18.0035

>  <SCORE.INTER.norm>
-0.244641

>  <SCORE.INTRA>
-1.20253

>  <SCORE.INTRA.DIHEDRAL>
-1.15457

>  <SCORE.INTRA.DIHEDRAL.0>
10.0365

>  <SCORE.INTRA.POLAR>
0

>  <SCORE.INTRA.POLAR.0>
0

>  <SCORE.INTRA.REPUL>
0

>  <SCORE.INTRA.REPUL.0>
0

>  <SCORE.INTRA.SOLV>
5.48748

>  <SCORE.INTRA.SOLV.lig_0>
-48.6728

>  <SCORE.INTRA.VDW>
-3.36899

>  <SCORE.INTRA.VDW.0>
-1.10662

>  <SCORE.INTRA.norm>
-0.0445382

>  <SCORE.RESTR>
1.95144

>  <SCORE.RESTR.CAVITY>
1.95144

>  <SCORE.RESTR.norm>
0.0722755

>  <SCORE.SYSTEM>
0

>  <SCORE.SYSTEM.CONST>
0

>  <SCORE.SYSTEM.DIHEDRAL>
0

>  <SCORE.SYSTEM.SOLV>
0

>  <SCORE.SYSTEM.norm>
0

>  <SCORE.heavy>
27

>  <SCORE.norm>
-0.216903

>  <RMSD>
5.327

$$$$
ligand
 OpenBabel11021811483D
libRbt.so/2013.1/901 2013/11/27
 27 29  0  0  0  0  0  0  0  0999 V2000
   48.0362   60.0771   31.2135 N   0  0  0  0  0  0  0  0  0  0  0  0
   47.0103   59.0306   31.3114 C   0  0  2  0  0  0  0  0  0  0  0  0
   47.4097   58.0738   32.3942 C   0  0  0  0  0  0  0  0  0  0  0  0
   46.7180   57.0955   32.6283 O   0  0  0  0  0  0  0  0  0  0  0  0
   46.8911   58.2743   29.9798 C   0  0  0  0  0  0  0  0  0  0  0  0
   48.2731   57.7742   29.5698 C   0  0  0  0  0  0  0  0  0  0  0  0
   48.2934   56.9463   27.9475 S   0  0  2  0  0  0  0  0  0  0  0  0
   47.3026   58.0274   26.8705 C   0  0  0  0  0  0  0  0  0  0  0  0
   47.1937   55.4846   27.9491 C   0  0  0  0  0  0  0  0  0  0  0  0
   48.1274   54.3541   28.3061 C   0  0  1  0  0  0  0  0  0  0  0  0
   48.6849   54.7519   29.5152 O   0  0  0  0  0  0  0  0  0  0  0  0
   47.6100   52.9589   28.6592 C   0  0  1  0  0  0  0  0  0  0  0  0
   47.5098   52.1242   27.5411 O   0  0  0  0  0  0  0  0  0  0  0  0
   48.7607   52.5326   29.6912 C   0  0  1  0  0  0  0  0  0  0  0  0
   50.0926   52.6045   29.1617 O   0  0  0  0  0  0  0  0  0  0  0  0
   48.3573   53.7232   30.5302 C   0  0  1  0  0  0  0  0  0  0  0  0
   48.4351   58.2696   33.0274 O   0  0  0  0  0  0  0  0  0  0  0  0
   48.3524   52.8623   35.4827 N   0  0  0  0  0  0  0  0  0  0  0  0
   47.8241   52.1726   34.4705 C   0  0  0  0  0  0  0  0  0  0  0  0
   47.9847   52.5502   33.2028 N   0  0  0  0  0  0  0  0  0  0  0  0
   48.5796   53.7113   32.8983 C   0  0  0  0  0  0  0  0  0  0  0  0
   49.1014   54.5145   33.9619 C   0  0  0  0  0  0  0  0  0  0  0  0
   48.9655   54.0231   35.2894 C   0  0  0  0  0  0  0  0  0  0  0  0
   49.4522   54.7202   36.3594 N   0  0  0  0  0  0  0  0  0  0  0  0
   49.6370   55.6160   33.4006 N   0  0  0  0  0  0  0  0  0  0  0  0
   49.4848   55.5600   32.0959 C   0  0  0  0  0  0  0  0  0  0  0  0
   48.8527   54.4024   31.7135 N   0  0  0  0  0  0  0  0  0  0  0  0
  2  1  1  6  0  0  0
  2  3  1  0  0  0  0
  2  5  1  0  0  0  0
  3  4  1  0  0  0  0
  3 17  1  0  0  0  0
  5  6  1  0  0  0  0
  7  6  1  1  0  0  0
  7  8  1  0  0  0  0
  7  9  1  0  0  0  0
 10  9  1  1  0  0  0
 10 11  1  0  0  0  0
 10 12  1  0  0  0  0
 11 16  1  0  0  0  0
 12 13  1  6  0  0  0
 12 14  1  0  0  0  0
 14 15  1  6  0  0  0
 14 16  1  0  0  0  0
 16 27  1  1  0  0  0
 18 19  2  0  0  0  0
 18 23  1  0  0  0  0
 19 20  1  0  0  0  0
 20 21  2  0  0  0  0
 21 22  1  0  0  0  0
 21 27  1  0  0  0  0
 22 23  2  0  0  0  0
 22 25  1  0  0  0  0
 23 24  1  0  0  0  0
 25 26  2  0  0  0  0
 26 27  1  0  0  0  0
M  END
>  <CHROM.1>
-177.96866221,53.35401417,-176.35592840,44.89579191,-93.52569660,56.37880372
174.84626069,48.25115654,55.37315846,31.06411150,2.57487215,1.40538863,-2.14695991

>  <Name>
ligand

>  <RI>
0

>  <Rbt.Current_Directory>
/home/itssahil/PROJECTS/Mol_Feturizer/New_Systems/rnas/3IQN

>  <Rbt.Executable>
rbdock ($Id: //depot/dev/client3/rdock/2013.1/src/exe/rbdock.cxx#4 $)

>  <Rbt.Library>
libRbt.so (2013.1, Build901 2013/11/27)

>  <Rbt.Parameter_File>
/export/apps/rDock/src/rDock_2013.1_src/data/scripts/dock_solv.prm

>  <Rbt.Receptor>
prm/pocket_docking_2.prm

>  <SCORE>
-9.22547

>  <SCORE.INTER>
-6.66211

>  <SCORE.INTER.CONST>
1

>  <SCORE.INTER.POLAR>
0

>  <SCORE.INTER.ROT>
7

>  <SCORE.INTER.SOLV>
22.4585

>  <SCORE.INTER.VDW>
-20.1942

>  <SCORE.INTER.norm>
-0.246745

>  <SCORE.INTRA>
-3.07222

>  <SCORE.INTRA.DIHEDRAL>
-4.46757

>  <SCORE.INTRA.DIHEDRAL.0>
10.0365

>  <SCORE.INTRA.POLAR>
0

>  <SCORE.INTRA.POLAR.0>
0

>  <SCORE.INTRA.REPUL>
0

>  <SCORE.INTRA.REPUL.0>
0

>  <SCORE.INTRA.SOLV>
-0.236088

>  <SCORE.INTRA.SOLV.lig_0>
-48.6728

>  <SCORE.INTRA.VDW>
-0.720394

>  <SCORE.INTRA.VDW.0>
-1.10662

>  <SCORE.INTRA.norm>
-0.113786

>  <SCORE.RESTR>
0.508854

>  <SCORE.RESTR.CAVITY>
0.508854

>  <SCORE.RESTR.norm>
0.0188464

>  <SCORE.SYSTEM>
0

>  <SCORE.SYSTEM.CONST>
0

>  <SCORE.SYSTEM.DIHEDRAL>
0

>  <SCORE.SYSTEM.SOLV>
0

>  <SCORE.SYSTEM.norm>
0

>  <SCORE.heavy>
27

>  <SCORE.norm>
-0.341684

>  <RMSD>
5.332

$$$$
ligand
 OpenBabel11021811483D
libRbt.so/2013.1/901 2013/11/27
 27 29  0  0  0  0  0  0  0  0999 V2000
   49.4092   56.1507   29.1827 N   0  0  0  0  0  0  0  0  0  0  0  0
   48.4680   56.1452   30.3103 C   0  0  2  0  0  0  0  0  0  0  0  0
   47.2185   55.4358   29.8824 C   0  0  0  0  0  0  0  0  0  0  0  0
   47.0361   55.1814   28.7025 O   0  0  0  0  0  0  0  0  0  0  0  0
   48.1226   57.5836   30.7239 C   0  0  0  0  0  0  0  0  0  0  0  0
   47.4170   57.5532   32.0764 C   0  0  0  0  0  0  0  0  0  0  0  0
   48.5576   57.6593   33.4925 S   0  0  2  0  0  0  0  0  0  0  0  0
   49.8078   58.8785   32.9817 C   0  0  0  0  0  0  0  0  0  0  0  0
   49.6353   56.1835   33.5720 C   0  0  0  0  0  0  0  0  0  0  0  0
   48.6946   55.0969   34.0319 C   0  0  1  0  0  0  0  0  0  0  0  0
   48.2168   54.5473   32.8486 O   0  0  0  0  0  0  0  0  0  0  0  0
   49.1951   53.8493   34.7613 C   0  0  1  0  0  0  0  0  0  0  0  0
   49.2105   54.0094   36.1509 O   0  0  0  0  0  0  0  0  0  0  0  0
   48.0940   52.8089   34.2361 C   0  0  1  0  0  0  0  0  0  0  0  0
   46.7366   53.1973   34.4932 O   0  0  0  0  0  0  0  0  0  0  0  0
   48.5747   53.1094   32.8350 C   0  0  1  0  0  0  0  0  0  0  0  0
   46.3951   55.1013   30.7196 O   0  0  0  0  0  0  0  0  0  0  0  0
   50.7425   53.0370   28.3002 N   0  0  0  0  0  0  0  0  0  0  0  0
   51.2155   53.3962   29.4946 C   0  0  0  0  0  0  0  0  0  0  0  0
   50.4823   53.2903   30.6021 N   0  0  0  0  0  0  0  0  0  0  0  0
   49.1919   52.9350   30.5446 C   0  0  0  0  0  0  0  0  0  0  0  0
   48.6271   52.6058   29.2712 C   0  0  0  0  0  0  0  0  0  0  0  0
   49.4794   52.6659   28.1345 C   0  0  0  0  0  0  0  0  0  0  0  0
   49.0229   52.3500   26.8857 N   0  0  0  0  0  0  0  0  0  0  0  0
   47.3338   52.2917   29.4807 N   0  0  0  0  0  0  0  0  0  0  0  0
   47.0583   52.4043   30.7614 C   0  0  0  0  0  0  0  0  0  0  0  0
   48.1646   52.7835   31.4813 N   0  0  0  0  0  0  0  0  0  0  0  0
  2  1  1  6  0  0  0
  2  3  1  0  0  0  0
  2  5  1  0  0  0  0
  3  4  1  0  0  0  0
  3 17  1  0  0  0  0
  5  6  1  0  0  0  0
  7  6  1  6  0  0  0
  7  8  1  0  0  0  0
  7  9  1  0  0  0  0
 10  9  1  6  0  0  0
 10 11  1  0  0  0  0
 10 12  1  0  0  0  0
 11 16  1  0  0  0  0
 12 13  1  1  0  0  0
 12 14  1  0  0  0  0
 14 15  1  6  0  0  0
 14 16  1  0  0  0  0
 16 27  1  6  0  0  0
 18 19  2  0  0  0  0
 18 23  1  0  0  0  0
 19 20  1  0  0  0  0
 20 21  2  0  0  0  0
 21 22  1  0  0  0  0
 21 27  1  0  0  0  0
 22 23  2  0  0  0  0
 22 25  1  0  0  0  0
 23 24  1  0  0  0  0
 25 26  2  0  0  0  0
 26 27  1  0  0  0  0
M  END
>  <CHROM.1>
-12.15519098,-166.98619195,89.60625928,40.01244343,-72.34321838,91.52506906
91.03132789,48.56413931,54.65324210,31.49462436,-0.43858663,1.51156269,-0.06177154

>  <Name>
ligand

>  <RI>
0

>  <Rbt.Current_Directory>
/home/itssahil/PROJECTS/Mol_Feturizer/New_Systems/rnas/3IQN

>  <Rbt.Executable>
rbdock ($Id: //depot/dev/client3/rdock/2013.1/src/exe/rbdock.cxx#4 $)

>  <Rbt.Library>
libRbt.so (2013.1, Build901 2013/11/27)

>  <Rbt.Parameter_File>
/export/apps/rDock/src/rDock_2013.1_src/data/scripts/dock_solv.prm

>  <Rbt.Receptor>
prm/pocket_docking_3.prm

>  <SCORE>
-18.9129

>  <SCORE.INTER>
-14.4941

>  <SCORE.INTER.CONST>
1

>  <SCORE.INTER.POLAR>
0

>  <SCORE.INTER.ROT>
7

>  <SCORE.INTER.SOLV>
8.13911

>  <SCORE.INTER.VDW>
-20.6424

>  <SCORE.INTER.norm>
-0.536817

>  <SCORE.INTRA>
-4.41888

>  <SCORE.INTRA.DIHEDRAL>
-0.32584

>  <SCORE.INTRA.DIHEDRAL.0>
10.0365

>  <SCORE.INTRA.POLAR>
0

>  <SCORE.INTRA.POLAR.0>
0

>  <SCORE.INTRA.REPUL>
0

>  <SCORE.INTRA.REPUL.0>
0

>  <SCORE.INTRA.SOLV>
1.52426

>  <SCORE.INTRA.SOLV.lig_0>
-48.6728

>  <SCORE.INTRA.VDW>
-5.0181

>  <SCORE.INTRA.VDW.0>
-1.10662

>  <SCORE.INTRA.norm>
-0.163662

>  <SCORE.RESTR>
0

>  <SCORE.RESTR.CAVITY>
0

>  <SCORE.RESTR.norm>
0

>  <SCORE.SYSTEM>
0

>  <SCORE.SYSTEM.CONST>
0

>  <SCORE.SYSTEM.DIHEDRAL>
0

>  <SCORE.SYSTEM.SOLV>
0

>  <SCORE.SYSTEM.norm>
0

>  <SCORE.heavy>
27

>  <SCORE.norm>
-0.700479

>  <RMSD>
5.338

$$$$
ligand
 OpenBabel11021811483D
libRbt.so/2013.1/901 2013/11/27
 27 29  0  0  0  0  0  0  0  0999 V2000
   45.3263   55.7574   31.0656 N   0  0  0  0  0  0  0  0  0  0  0  0
   46.1007   56.8367   30.4390 C   0  0  2  0  0  0  0  0  0  0  0  0
   46.3840   56.4544   29.0174 C   0  0  0  0  0  0  0  0  0  0  0  0
   46.7823   55.3304   28.7566 O   0  0  0  0  0  0  0  0  0  0  0  0
   47.4266   57.0448   31.1860 C   0  0  0  0  0  0  0  0  0  0  0  0
   47.1255   57.5097   32.6078 C   0  0  0  0  0  0  0  0  0  0  0  0
   48.6196   57.7992   33.6083 S   0  0  2  0  0  0  0  0  0  0  0  0
   49.6497   58.8952   32.5846 C   0  0  0  0  0  0  0  0  0  0  0  0
   49.7030   56.3254   33.6016 C   0  0  0  0  0  0  0  0  0  0  0  0
   48.7876   55.2254   34.0804 C   0  0  1  0  0  0  0  0  0  0  0  0
   48.2868   54.6747   32.9071 O   0  0  0  0  0  0  0  0  0  0  0  0
   49.3217   53.9812   34.7914 C   0  0  1  0  0  0  0  0  0  0  0  0
   49.3702   54.1358   36.1809 O   0  0  0  0  0  0  0  0  0  0  0  0
   48.2205   52.9294   34.2896 C   0  0  1  0  0  0  0  0  0  0  0  0
   46.8654   53.2998   34.5826 O   0  0  0  0  0  0  0  0  0  0  0  0
   48.6619   53.2414   32.8782 C   0  0  1  0  0  0  0  0  0  0  0  0
   46.1996   57.2659   28.1239 O   0  0  0  0  0  0  0  0  0  0  0  0
   50.7839   52.9544   28.3303 N   0  0  0  0  0  0  0  0  0  0  0  0
   51.2875   53.3064   29.5143 C   0  0  0  0  0  0  0  0  0  0  0  0
   50.5585   53.2654   30.6288 N   0  0  0  0  0  0  0  0  0  0  0  0
   49.2485   52.9877   30.5871 C   0  0  0  0  0  0  0  0  0  0  0  0
   48.6544   52.6699   29.3243 C   0  0  0  0  0  0  0  0  0  0  0  0
   49.4993   52.6573   28.1806 C   0  0  0  0  0  0  0  0  0  0  0  0
   49.0144   52.3466   26.9413 N   0  0  0  0  0  0  0  0  0  0  0  0
   47.3463   52.4384   29.5489 N   0  0  0  0  0  0  0  0  0  0  0  0
   47.0887   52.5911   30.8292 C   0  0  0  0  0  0  0  0  0  0  0  0
   48.2217   52.9160   31.5339 N   0  0  0  0  0  0  0  0  0  0  0  0
  2  1  1  1  0  0  0
  2  3  1  0  0  0  0
  2  5  1  0  0  0  0
  3  4  1  0  0  0  0
  3 17  1  0  0  0  0
  5  6  1  0  0  0  0
  7  6  1  6  0  0  0
  7  8  1  0  0  0  0
  7  9  1  0  0  0  0
 10  9  1  6  0  0  0
 10 11  1  0  0  0  0
 10 12  1  0  0  0  0
 11 16  1  0  0  0  0
 12 13  1  1  0  0  0
 12 14  1  0  0  0  0
 14 15  1  6  0  0  0
 14 16  1  0  0  0  0
 16 27  1  6  0  0  0
 18 19  2  0  0  0  0
 18 23  1  0  0  0  0
 19 20  1  0  0  0  0
 20 21  2  0  0  0  0
 21 22  1  0  0  0  0
 21 27  1  0  0  0  0
 22 23  2  0  0  0  0
 22 25  1  0  0  0  0
 23 24  1  0  0  0  0
 25 26  2  0  0  0  0
 26 27  1  0  0  0  0
M  END
>  <CHROM.1>
-45.94378214,-63.90818708,-179.87259899,51.51490366,-55.16668157,93.31307192
95.51553206,48.30244923,54.82872869,31.49522398,1.59199833,-1.12550193,1.14816262

>  <Name>
ligand

>  <RI>
0

>  <Rbt.Current_Directory>
/home/itssahil/PROJECTS/Mol_Feturizer/New_Systems/rnas/3IQN

>  <Rbt.Executable>
rbdock ($Id: //depot/dev/client3/rdock/2013.1/src/exe/rbdock.cxx#4 $)

>  <Rbt.Library>
libRbt.so (2013.1, Build901 2013/11/27)

>  <Rbt.Parameter_File>
/export/apps/rDock/src/rDock_2013.1_src/data/scripts/dock_solv.prm

>  <Rbt.Receptor>
prm/pocket_docking_3.prm

>  <SCORE>
-20.5653

>  <SCORE.INTER>
-16.1301

>  <SCORE.INTER.CONST>
1

>  <SCORE.INTER.POLAR>
0

>  <SCORE.INTER.ROT>
7

>  <SCORE.INTER.SOLV>
8.15274

>  <SCORE.INTER.VDW>
-21.7376

>  <SCORE.INTER.norm>
-0.59741

>  <SCORE.INTRA>
-4.4352

>  <SCORE.INTRA.DIHEDRAL>
-3.67848

>  <SCORE.INTRA.DIHEDRAL.0>
10.0365

>  <SCORE.INTRA.POLAR>
0

>  <SCORE.INTRA.POLAR.0>
0

>  <SCORE.INTRA.REPUL>
0

>  <SCORE.INTRA.REPUL.0>
0

>  <SCORE.INTRA.SOLV>
0.382492

>  <SCORE.INTRA.SOLV.lig_0>
-48.6728

>  <SCORE.INTRA.VDW>
-2.78721

>  <SCORE.INTRA.VDW.0>
-1.10662

>  <SCORE.INTRA.norm>
-0.164267

>  <SCORE.RESTR>
0

>  <SCORE.RESTR.CAVITY>
0

>  <SCORE.RESTR.norm>
0

>  <SCORE.SYSTEM>
0

>  <SCORE.SYSTEM.CONST>
0

>  <SCORE.SYSTEM.DIHEDRAL>
0

>  <SCORE.SYSTEM.SOLV>
0

>  <SCORE.SYSTEM.norm>
0

>  <SCORE.heavy>
27

>  <SCORE.norm>
-0.761676

>  <RMSD>
5.344

$$$$
ligand
 OpenBabel11021811483D
libRbt.so/2013.1/901 2013/11/27
 27 29  0  0  0  0  0  0  0  0999 V2000
   47.4475   53.0960   30.1670 N   0  0  0  0  0  0  0  0  0  0  0  0
   47.7216   52.0826   29.1397 C   0  0  2  0  0  0  0  0  0  0  0  0
   49.1925   51.7930   29.1388 C   0  0  0  0  0  0  0  0  0  0  0  0
   49.9197   52.3306   29.9587 O   0  0  0  0  0  0  0  0  0  0  0  0
   47.3017   52.5993   27.7555 C   0  0  0  0  0  0  0  0  0  0  0  0
   48.0066   53.9259   27.4882 C   0  0  0  0  0  0  0  0  0  0  0  0
   47.1688   54.9541   26.2398 S   0  0  2  0  0  0  0  0  0  0  0  0
   48.2053   54.8018   24.7523 C   0  0  0  0  0  0  0  0  0  0  0  0
   47.4363   56.7322   26.5753 C   0  0  0  0  0  0  0  0  0  0  0  0
   46.6981   56.9505   27.8731 C   0  0  1  0  0  0  0  0  0  0  0  0
   47.4873   56.3058   28.8176 O   0  0  0  0  0  0  0  0  0  0  0  0
   46.5558   58.3388   28.4988 C   0  0  1  0  0  0  0  0  0  0  0  0
   45.3989   59.0023   28.0766 O   0  0  0  0  0  0  0  0  0  0  0  0
   46.5322   57.9031   30.0417 C   0  0  1  0  0  0  0  0  0  0  0  0
   45.5167   56.9455   30.3751 O   0  0  0  0  0  0  0  0  0  0  0  0
   47.9047   57.3082   29.8259 C   0  0  1  0  0  0  0  0  0  0  0  0
   49.6544   51.0073   28.3263 O   0  0  0  0  0  0  0  0  0  0  0  0
   48.3167   55.7270   34.5797 N   0  0  0  0  0  0  0  0  0  0  0  0
   47.4168   56.5164   33.9912 C   0  0  0  0  0  0  0  0  0  0  0  0
   47.4569   56.7765   32.6850 N   0  0  0  0  0  0  0  0  0  0  0  0
   48.4792   56.3556   31.9283 C   0  0  0  0  0  0  0  0  0  0  0  0
   49.5020   55.5609   32.5374 C   0  0  0  0  0  0  0  0  0  0  0  0
   49.3658   55.2540   33.9193 C   0  0  0  0  0  0  0  0  0  0  0  0
   50.2891   54.4863   34.5719 N   0  0  0  0  0  0  0  0  0  0  0  0
   50.4046   55.2742   31.5791 N   0  0  0  0  0  0  0  0  0  0  0  0
   50.0288   55.8247   30.4457 C   0  0  0  0  0  0  0  0  0  0  0  0
   48.8388   56.4961   30.5841 N   0  0  0  0  0  0  0  0  0  0  0  0
  2  1  1  1  0  0  0
  2  3  1  0  0  0  0
  2  5  1  0  0  0  0
  3  4  1  0  0  0  0
  3 17  1  0  0  0  0
  5  6  1  0  0  0  0
  7  6  1  1  0  0  0
  7  8  1  0  0  0  0
  7  9  1  0  0  0  0
 10  9  1  6  0  0  0
 10 11  1  0  0  0  0
 10 12  1  0  0  0  0
 11 16  1  0  0  0  0
 12 13  1  6  0  0  0
 12 14  1  0  0  0  0
 14 15  1  6  0  0  0
 14 16  1  0  0  0  0
 16 27  1  1  0  0  0
 18 19  2  0  0  0  0
 18 23  1  0  0  0  0
 19 20  1  0  0  0  0
 20 21  2  0  0  0  0
 21 22  1  0  0  0  0
 21 27  1  0  0  0  0
 22 23  2  0  0  0  0
 22 25  1  0  0  0  0
 23 24  1  0  0  0  0
 25 26  2  0  0  0  0
 26 27  1  0  0  0  0
M  END
>  <CHROM.1>
3.35414806,55.40958665,-157.93752787,-105.25729015,-66.45986710,71.64755182
-119.81425458,48.01333380,55.30985707,29.73512563,-1.08422539,1.06358705
-2.08736519

>  <Name>
ligand

>  <RI>
0

>  <Rbt.Current_Directory>
/home/itssahil/PROJECTS/Mol_Feturizer/New_Systems/rnas/3IQN

>  <Rbt.Executable>
rbdock ($Id: //depot/dev/client3/rdock/2013.1/src/exe/rbdock.cxx#4 $)

>  <Rbt.Library>
libRbt.so (2013.1, Build901 2013/11/27)

>  <Rbt.Parameter_File>
/export/apps/rDock/src/rDock_2013.1_src/data/scripts/dock_solv.prm

>  <Rbt.Receptor>
prm/pocket_docking_2.prm

>  <SCORE>
-1.51857

>  <SCORE.INTER>
-1.67232

>  <SCORE.INTER.CONST>
1

>  <SCORE.INTER.POLAR>
0

>  <SCORE.INTER.ROT>
7

>  <SCORE.INTER.SOLV>
18.9004

>  <SCORE.INTER.VDW>
-15.6817

>  <SCORE.INTER.norm>
-0.0619377

>  <SCORE.INTRA>
-1.4988

>  <SCORE.INTRA.DIHEDRAL>
-1.67812

>  <SCORE.INTRA.DIHEDRAL.0>
10.0365

>  <SCORE.INTRA.POLAR>
0

>  <SCORE.INTRA.POLAR.0>
0

>  <SCORE.INTRA.REPUL>
0

>  <SCORE.INTRA.REPUL.0>
0

>  <SCORE.INTRA.SOLV>
1.32021

>  <SCORE.INTRA.SOLV.lig_0>
-48.6728

>  <SCORE.INTRA.VDW>
-1.31985

>  <SCORE.INTRA.VDW.0>
-1.10662

>  <SCORE.INTRA.norm>
-0.0555111

>  <SCORE.RESTR>
1.65254

>  <SCORE.RESTR.CAVITY>
1.65254

>  <SCORE.RESTR.norm>
0.0612053

>  <SCORE.SYSTEM>
0

>  <SCORE.SYSTEM.CONST>
0

>  <SCORE.SYSTEM.DIHEDRAL>
0

>  <SCORE.SYSTEM.SOLV>
0

>  <SCORE.SYSTEM.norm>
0

>  <SCORE.heavy>
27

>  <SCORE.norm>
-0.0562435

>  <RMSD>
5.352

$$$$
ligand
 OpenBabel11021811483D
libRbt.so/2013.1/901 2013/11/27
 27 29  0  0  0  0  0  0  0  0999 V2000
   48.2682   52.2470   25.8595 N   0  0  0  0  0  0  0  0  0  0  0  0
   49.6854   52.0129   26.1664 C   0  0  2  0  0  0  0  0  0  0  0  0
   50.1802   50.8937   25.3004 C   0  0  0  0  0  0  0  0  0  0  0  0
   51.2774   50.9724   24.7711 O   0  0  0  0  0  0  0  0  0  0  0  0
   49.8548   51.6289   27.6440 C   0  0  0  0  0  0  0  0  0  0  0  0
   49.5788   52.8556   28.5084 C   0  0  0  0  0  0  0  0  0  0  0  0
   50.5749   54.3085   28.0454 S   0  0  2  0  0  0  0  0  0  0  0  0
   52.2944   53.7149   28.0850 C   0  0  0  0  0  0  0  0  0  0  0  0
   50.6684   55.5012   29.4291 C   0  0  0  0  0  0  0  0  0  0  0  0
   49.2971   56.1310   29.4314 C   0  0  1  0  0  0  0  0  0  0  0  0
   48.5226   55.2397   30.1639 O   0  0  0  0  0  0  0  0  0  0  0  0
   49.0120   57.4450   30.1602 C   0  0  1  0  0  0  0  0  0  0  0  0
   49.1959   58.5642   29.3414 O   0  0  0  0  0  0  0  0  0  0  0  0
   47.4829   57.1702   30.5566 C   0  0  1  0  0  0  0  0  0  0  0  0
   46.6271   56.8562   29.4483 O   0  0  0  0  0  0  0  0  0  0  0  0
   47.9692   55.9666   31.3306 C   0  0  1  0  0  0  0  0  0  0  0  0
   49.4888   49.9001   25.1410 O   0  0  0  0  0  0  0  0  0  0  0  0
   44.1867   55.3220   34.5781 N   0  0  0  0  0  0  0  0  0  0  0  0
   44.6806   56.4243   34.0121 C   0  0  0  0  0  0  0  0  0  0  0  0
   45.6709   56.3744   33.1220 N   0  0  0  0  0  0  0  0  0  0  0  0
   46.2984   55.2222   32.8512 C   0  0  0  0  0  0  0  0  0  0  0  0
   45.8416   54.0255   33.4899 C   0  0  0  0  0  0  0  0  0  0  0  0
   44.7324   54.1299   34.3737 C   0  0  0  0  0  0  0  0  0  0  0  0
   44.2238   53.0324   35.0096 N   0  0  0  0  0  0  0  0  0  0  0  0
   46.6298   53.0211   33.0598 N   0  0  0  0  0  0  0  0  0  0  0  0
   47.5263   53.4961   32.2235 C   0  0  0  0  0  0  0  0  0  0  0  0
   47.3710   54.8476   32.0356 N   0  0  0  0  0  0  0  0  0  0  0  0
  2  1  1  6  0  0  0
  2  3  1  0  0  0  0
  2  5  1  0  0  0  0
  3  4  1  0  0  0  0
  3 17  1  0  0  0  0
  5  6  1  0  0  0  0
  7  6  1  1  0  0  0
  7  8  1  0  0  0  0
  7  9  1  0  0  0  0
 10  9  1  1  0  0  0
 10 11  1  0  0  0  0
 10 12  1  0  0  0  0
 11 16  1  0  0  0  0
 12 13  1  6  0  0  0
 12 14  1  0  0  0  0
 14 15  1  6  0  0  0
 14 16  1  0  0  0  0
 16 27  1  6  0  0  0
 18 19  2  0  0  0  0
 18 23  1  0  0  0  0
 19 20  1  0  0  0  0
 20 21  2  0  0  0  0
 21 22  1  0  0  0  0
 21 27  1  0  0  0  0
 22 23  2  0  0  0  0
 22 25  1  0  0  0  0
 23 24  1  0  0  0  0
 25 26  2  0  0  0  0
 26 27  1  0  0  0  0
M  END
>  <CHROM.1>
137.73276376,-70.45613199,-53.78046849,-54.07774366,-74.37580097,83.78973416
-153.81172362,48.23364304,54.33198941,29.93930977,0.64113219,-0.86118355
-2.77821471

>  <Name>
ligand

>  <RI>
0

>  <Rbt.Current_Directory>
/home/itssahil/PROJECTS/Mol_Feturizer/New_Systems/rnas/3IQN

>  <Rbt.Executable>
rbdock ($Id: //depot/dev/client3/rdock/2013.1/src/exe/rbdock.cxx#4 $)

>  <Rbt.Library>
libRbt.so (2013.1, Build901 2013/11/27)

>  <Rbt.Parameter_File>
/export/apps/rDock/src/rDock_2013.1_src/data/scripts/dock_solv.prm

>  <Rbt.Receptor>
prm/pocket_docking_6.prm

>  <SCORE>
-12.99

>  <SCORE.INTER>
-9.79158

>  <SCORE.INTER.CONST>
1

>  <SCORE.INTER.POLAR>
0

>  <SCORE.INTER.ROT>
7

>  <SCORE.INTER.SOLV>
8.82492

>  <SCORE.INTER.VDW>
-17.736

>  <SCORE.INTER.norm>
-0.362651

>  <SCORE.INTRA>
-3.20105

>  <SCORE.INTRA.DIHEDRAL>
-4.02075

>  <SCORE.INTRA.DIHEDRAL.0>
10.0365

>  <SCORE.INTRA.POLAR>
0

>  <SCORE.INTRA.POLAR.0>
0

>  <SCORE.INTRA.REPUL>
0

>  <SCORE.INTRA.REPUL.0>
0

>  <SCORE.INTRA.SOLV>
0.171921

>  <SCORE.INTRA.SOLV.lig_0>
-48.6728

>  <SCORE.INTRA.VDW>
-1.27663

>  <SCORE.INTRA.VDW.0>
-1.10662

>  <SCORE.INTRA.norm>
-0.118557

>  <SCORE.RESTR>
0.00267747

>  <SCORE.RESTR.CAVITY>
0.00267747

>  <SCORE.RESTR.norm>
9.91655e-05

>  <SCORE.SYSTEM>
0

>  <SCORE.SYSTEM.CONST>
0

>  <SCORE.SYSTEM.DIHEDRAL>
0

>  <SCORE.SYSTEM.SOLV>
0

>  <SCORE.SYSTEM.norm>
0

>  <SCORE.heavy>
27

>  <SCORE.norm>
-0.481109

>  <RMSD>
5.353

$$$$
ligand
 OpenBabel11021811483D
libRbt.so/2013.1/901 2013/11/27
 27 29  0  0  0  0  0  0  0  0999 V2000
   46.0990   60.5747   30.9685 N   0  0  0  0  0  0  0  0  0  0  0  0
   46.9496   59.4052   31.2257 C   0  0  2  0  0  0  0  0  0  0  0  0
   47.3569   58.8154   29.9090 C   0  0  0  0  0  0  0  0  0  0  0  0
   48.5307   58.5590   29.6933 O   0  0  0  0  0  0  0  0  0  0  0  0
   46.1800   58.3546   32.0400 C   0  0  0  0  0  0  0  0  0  0  0  0
   47.1233   57.2046   32.3805 C   0  0  0  0  0  0  0  0  0  0  0  0
   48.3659   57.6343   33.6408 S   0  0  2  0  0  0  0  0  0  0  0  0
   49.6873   58.4725   32.7125 C   0  0  0  0  0  0  0  0  0  0  0  0
   49.3013   56.1521   34.1644 C   0  0  0  0  0  0  0  0  0  0  0  0
   48.3481   55.0218   33.8634 C   0  0  1  0  0  0  0  0  0  0  0  0
   48.6625   54.6594   32.5593 O   0  0  0  0  0  0  0  0  0  0  0  0
   48.4405   53.6736   34.5796 C   0  0  1  0  0  0  0  0  0  0  0  0
   47.6581   53.6260   35.7382 O   0  0  0  0  0  0  0  0  0  0  0  0
   47.9073   52.7367   33.3928 C   0  0  1  0  0  0  0  0  0  0  0  0
   46.6171   53.1002   32.8803 O   0  0  0  0  0  0  0  0  0  0  0  0
   49.0704   53.2349   32.5662 C   0  0  1  0  0  0  0  0  0  0  0  0
   46.5088   58.5793   29.0629 O   0  0  0  0  0  0  0  0  0  0  0  0
   46.9729   52.0956   28.1423 N   0  0  0  0  0  0  0  0  0  0  0  0
   46.4602   52.1371   29.3731 C   0  0  0  0  0  0  0  0  0  0  0  0
   47.1844   52.5204   30.4238 N   0  0  0  0  0  0  0  0  0  0  0  0
   48.4972   52.7607   30.3070 C   0  0  0  0  0  0  0  0  0  0  0  0
   49.1003   52.6613   29.0127 C   0  0  0  0  0  0  0  0  0  0  0  0
   48.2609   52.3206   27.9166 C   0  0  0  0  0  0  0  0  0  0  0  0
   48.7547   52.2226   26.6460 N   0  0  0  0  0  0  0  0  0  0  0  0
   50.4096   52.9414   29.1631 N   0  0  0  0  0  0  0  0  0  0  0  0
   50.6596   53.1965   30.4285 C   0  0  0  0  0  0  0  0  0  0  0  0
   49.5201   53.1182   31.1910 N   0  0  0  0  0  0  0  0  0  0  0  0
  2  1  1  6  0  0  0
  2  3  1  0  0  0  0
  2  5  1  0  0  0  0
  3  4  1  0  0  0  0
  3 17  1  0  0  0  0
  5  6  1  0  0  0  0
  7  6  1  6  0  0  0
  7  8  1  0  0  0  0
  7  9  1  0  0  0  0
 10  9  1  1  0  0  0
 10 11  1  0  0  0  0
 10 12  1  0  0  0  0
 11 16  1  0  0  0  0
 12 13  1  1  0  0  0
 12 14  1  0  0  0  0
 14 15  1  6  0  0  0
 14 16  1  0  0  0  0
 16 27  1  6  0  0  0
 18 19  2  0  0  0  0
 18 23  1  0  0  0  0
 19 20  1  0  0  0  0
 20 21  2  0  0  0  0
 21 22  1  0  0  0  0
 21 27  1  0  0  0  0
 22 23  2  0  0  0  0
 22 25  1  0  0  0  0
 23 24  1  0  0  0  0
 25 26  2  0  0  0  0
 26 27  1  0  0  0  0
M  END
>  <CHROM.1>
130.61821662,-175.68045612,72.18426471,-82.74506746,-24.76622346,90.24116233
-88.69413033,48.09146064,55.22104547,31.42199386,2.37237517,-1.38210267,1.15885747

>  <Name>
ligand

>  <RI>
0

>  <Rbt.Current_Directory>
/home/itssahil/PROJECTS/Mol_Feturizer/New_Systems/rnas/3IQN

>  <Rbt.Executable>
rbdock ($Id: //depot/dev/client3/rdock/2013.1/src/exe/rbdock.cxx#4 $)

>  <Rbt.Library>
libRbt.so (2013.1, Build901 2013/11/27)

>  <Rbt.Parameter_File>
/export/apps/rDock/src/rDock_2013.1_src/data/scripts/dock_solv.prm

>  <Rbt.Receptor>
prm/pocket_docking_3.prm

>  <SCORE>
-17.4641

>  <SCORE.INTER>
-16.8513

>  <SCORE.INTER.CONST>
1

>  <SCORE.INTER.POLAR>
0

>  <SCORE.INTER.ROT>
7

>  <SCORE.INTER.SOLV>
15.7809

>  <SCORE.INTER.VDW>
-24.7612

>  <SCORE.INTER.norm>
-0.624122

>  <SCORE.INTRA>
-0.612815

>  <SCORE.INTRA.DIHEDRAL>
0.485943

>  <SCORE.INTRA.DIHEDRAL.0>
10.0365

>  <SCORE.INTRA.POLAR>
0

>  <SCORE.INTRA.POLAR.0>
0

>  <SCORE.INTRA.REPUL>
0

>  <SCORE.INTRA.REPUL.0>
0

>  <SCORE.INTRA.SOLV>
-0.463338

>  <SCORE.INTRA.SOLV.lig_0>
-48.6728

>  <SCORE.INTRA.VDW>
-0.624118

>  <SCORE.INTRA.VDW.0>
-1.10662

>  <SCORE.INTRA.norm>
-0.0226969

>  <SCORE.RESTR>
0

>  <SCORE.RESTR.CAVITY>
0

>  <SCORE.RESTR.norm>
0

>  <SCORE.SYSTEM>
0

>  <SCORE.SYSTEM.CONST>
0

>  <SCORE.SYSTEM.DIHEDRAL>
0

>  <SCORE.SYSTEM.SOLV>
0

>  <SCORE.SYSTEM.norm>
0

>  <SCORE.heavy>
27

>  <SCORE.norm>
-0.646819

>  <RMSD>
5.364

$$$$
ligand
 OpenBabel11021811483D
libRbt.so/2013.1/901 2013/11/27
 27 29  0  0  0  0  0  0  0  0999 V2000
   50.0562   53.2954   29.8524 N   0  0  0  0  0  0  0  0  0  0  0  0
   49.1447   53.8038   28.8189 C   0  0  2  0  0  0  0  0  0  0  0  0
   48.6301   52.6406   28.0255 C   0  0  0  0  0  0  0  0  0  0  0  0
   47.4612   52.6119   27.6748 O   0  0  0  0  0  0  0  0  0  0  0  0
   49.8851   54.7722   27.8843 C   0  0  0  0  0  0  0  0  0  0  0  0
   48.8587   55.5925   27.1085 C   0  0  0  0  0  0  0  0  0  0  0  0
   47.9085   56.7420   28.1541 S   0  0  2  0  0  0  0  0  0  0  0  0
   47.2589   57.9841   26.9941 C   0  0  0  0  0  0  0  0  0  0  0  0
   49.0274   57.8261   29.1127 C   0  0  0  0  0  0  0  0  0  0  0  0
   48.1913   58.2088   30.3092 C   0  0  1  0  0  0  0  0  0  0  0  0
   47.7574   56.9898   30.8158 O   0  0  0  0  0  0  0  0  0  0  0  0
   48.8067   58.8490   31.5543 C   0  0  1  0  0  0  0  0  0  0  0  0
   48.8163   60.2464   31.4909 O   0  0  0  0  0  0  0  0  0  0  0  0
   47.8005   58.2521   32.6507 C   0  0  1  0  0  0  0  0  0  0  0  0
   46.4152   58.5357   32.4054 O   0  0  0  0  0  0  0  0  0  0  0  0
   48.2433   56.8756   32.2111 C   0  0  1  0  0  0  0  0  0  0  0  0
   49.3878   51.7333   27.7199 O   0  0  0  0  0  0  0  0  0  0  0  0
   48.8739   53.5842   35.9577 N   0  0  0  0  0  0  0  0  0  0  0  0
   49.3147   54.8335   35.8022 C   0  0  0  0  0  0  0  0  0  0  0  0
   48.9871   55.5675   34.7396 N   0  0  0  0  0  0  0  0  0  0  0  0
   48.3013   55.0366   33.7185 C   0  0  0  0  0  0  0  0  0  0  0  0
   47.8670   53.6764   33.8173 C   0  0  0  0  0  0  0  0  0  0  0  0
   48.1831   52.9663   35.0082 C   0  0  0  0  0  0  0  0  0  0  0  0
   47.7899   51.6700   35.1891 N   0  0  0  0  0  0  0  0  0  0  0  0
   47.2130   53.3853   32.6760 N   0  0  0  0  0  0  0  0  0  0  0  0
   47.2137   54.4397   31.8905 C   0  0  0  0  0  0  0  0  0  0  0  0
   47.8557   55.5023   32.4774 N   0  0  0  0  0  0  0  0  0  0  0  0
  2  1  1  1  0  0  0
  2  3  1  0  0  0  0
  2  5  1  0  0  0  0
  3  4  1  0  0  0  0
  3 17  1  0  0  0  0
  5  6  1  0  0  0  0
  7  6  1  6  0  0  0
  7  8  1  0  0  0  0
  7  9  1  0  0  0  0
 10  9  1  6  0  0  0
 10 11  1  0  0  0  0
 10 12  1  0  0  0  0
 11 16  1  0  0  0  0
 12 13  1  6  0  0  0
 12 14  1  0  0  0  0
 14 15  1  6  0  0  0
 14 16  1  0  0  0  0
 16 27  1  1  0  0  0
 18 19  2  0  0  0  0
 18 23  1  0  0  0  0
 19 20  1  0  0  0  0
 20 21  2  0  0  0  0
 21 22  1  0  0  0  0
 21 27  1  0  0  0  0
 22 23  2  0  0  0  0
 22 25  1  0  0  0  0
 23 24  1  0  0  0  0
 25 26  2  0  0  0  0
 26 27  1  0  0  0  0
M  END
>  <CHROM.1>
140.04931490,-163.07279983,67.50826492,159.44330930,-154.79746704,52.61262547
174.34318915,48.31177884,55.50074507,31.02161046,-1.34471210,-1.47073473
2.02942812

>  <Name>
ligand

>  <RI>
0

>  <Rbt.Current_Directory>
/home/itssahil/PROJECTS/Mol_Feturizer/New_Systems/rnas/3IQN

>  <Rbt.Executable>
rbdock ($Id: //depot/dev/client3/rdock/2013.1/src/exe/rbdock.cxx#4 $)

>  <Rbt.Library>
libRbt.so (2013.1, Build901 2013/11/27)

>  <Rbt.Parameter_File>
/export/apps/rDock/src/rDock_2013.1_src/data/scripts/dock_solv.prm

>  <Rbt.Receptor>
prm/pocket_docking_2.prm

>  <SCORE>
-8.69705

>  <SCORE.INTER>
-6.92357

>  <SCORE.INTER.CONST>
1

>  <SCORE.INTER.POLAR>
0

>  <SCORE.INTER.ROT>
7

>  <SCORE.INTER.SOLV>
19.9093

>  <SCORE.INTER.VDW>
-19.5188

>  <SCORE.INTER.norm>
-0.256428

>  <SCORE.INTRA>
-2.95244

>  <SCORE.INTRA.DIHEDRAL>
-2.66085

>  <SCORE.INTRA.DIHEDRAL.0>
10.0365

>  <SCORE.INTRA.POLAR>
0

>  <SCORE.INTRA.POLAR.0>
0

>  <SCORE.INTRA.REPUL>
0

>  <SCORE.INTRA.REPUL.0>
0

>  <SCORE.INTRA.SOLV>
-0.615983

>  <SCORE.INTRA.SOLV.lig_0>
-48.6728

>  <SCORE.INTRA.VDW>
-1.31402

>  <SCORE.INTRA.VDW.0>
-1.10662

>  <SCORE.INTRA.norm>
-0.10935

>  <SCORE.RESTR>
1.17896

>  <SCORE.RESTR.CAVITY>
1.17896

>  <SCORE.RESTR.norm>
0.043665

>  <SCORE.SYSTEM>
0

>  <SCORE.SYSTEM.CONST>
0

>  <SCORE.SYSTEM.DIHEDRAL>
0

>  <SCORE.SYSTEM.SOLV>
0

>  <SCORE.SYSTEM.norm>
0

>  <SCORE.heavy>
27

>  <SCORE.norm>
-0.322113

>  <RMSD>
5.367

$$$$
ligand
 OpenBabel11021811483D
libRbt.so/2013.1/901 2013/11/27
 27 29  0  0  0  0  0  0  0  0999 V2000
   46.4189   53.3545   27.3962 N   0  0  0  0  0  0  0  0  0  0  0  0
   46.6733   54.2143   26.2329 C   0  0  2  0  0  0  0  0  0  0  0  0
   46.9207   53.3394   25.0408 C   0  0  0  0  0  0  0  0  0  0  0  0
   47.5705   53.7634   24.0984 O   0  0  0  0  0  0  0  0  0  0  0  0
   47.9045   55.0983   26.4821 C   0  0  0  0  0  0  0  0  0  0  0  0
   47.7291   55.8269   27.8113 C   0  0  0  0  0  0  0  0  0  0  0  0
   49.1802   56.8166   28.2931 S   0  0  2  0  0  0  0  0  0  0  0  0
   50.5746   55.6504   28.2161 C   0  0  0  0  0  0  0  0  0  0  0  0
   49.1865   57.1274   30.0957 C   0  0  0  0  0  0  0  0  0  0  0  0
   48.1492   58.2109   30.2599 C   0  0  1  0  0  0  0  0  0  0  0  0
   46.9406   57.5345   30.1486 O   0  0  0  0  0  0  0  0  0  0  0  0
   47.9569   58.9524   31.5837 C   0  0  1  0  0  0  0  0  0  0  0  0
   48.7421   60.1067   31.6718 O   0  0  0  0  0  0  0  0  0  0  0  0
   46.3838   59.2400   31.4689 C   0  0  1  0  0  0  0  0  0  0  0  0
   45.9915   59.9428   30.2808 O   0  0  0  0  0  0  0  0  0  0  0  0
   46.1822   57.7435   31.4044 C   0  0  1  0  0  0  0  0  0  0  0  0
   46.4835   52.1995   25.0251 O   0  0  0  0  0  0  0  0  0  0  0  0
   43.4237   54.5619   34.1497 N   0  0  0  0  0  0  0  0  0  0  0  0
   44.4580   55.3373   34.4788 C   0  0  0  0  0  0  0  0  0  0  0  0
   45.0265   56.1616   33.5998 N   0  0  0  0  0  0  0  0  0  0  0  0
   44.6622   56.1542   32.3105 C   0  0  0  0  0  0  0  0  0  0  0  0
   43.5997   55.2861   31.9028 C   0  0  0  0  0  0  0  0  0  0  0  0
   42.9816   54.4837   32.9010 C   0  0  0  0  0  0  0  0  0  0  0  0
   41.9487   53.6416   32.5980 N   0  0  0  0  0  0  0  0  0  0  0  0
   43.4317   55.4608   30.5775 N   0  0  0  0  0  0  0  0  0  0  0  0
   44.2962   56.3499   30.1406 C   0  0  0  0  0  0  0  0  0  0  0  0
   45.0788   56.8324   31.1607 N   0  0  0  0  0  0  0  0  0  0  0  0
  2  1  1  1  0  0  0
  2  3  1  0  0  0  0
  2  5  1  0  0  0  0
  3  4  1  0  0  0  0
  3 17  1  0  0  0  0
  5  6  1  0  0  0  0
  7  6  1  1  0  0  0
  7  8  1  0  0  0  0
  7  9  1  0  0  0  0
 10  9  1  1  0  0  0
 10 11  1  0  0  0  0
 10 12  1  0  0  0  0
 11 16  1  0  0  0  0
 12 13  1  6  0  0  0
 12 14  1  0  0  0  0
 14 15  1  6  0  0  0
 14 16  1  0  0  0  0
 16 27  1  6  0  0  0
 18 19  2  0  0  0  0
 18 23  1  0  0  0  0
 19 20  1  0  0  0  0
 20 21  2  0  0  0  0
 21 22  1  0  0  0  0
 21 27  1  0  0  0  0
 22 23  2  0  0  0  0
 22 25  1  0  0  0  0
 23 24  1  0  0  0  0
 25 26  2  0  0  0  0
 26 27  1  0  0  0  0
M  END
>  <CHROM.1>
-155.66803670,-52.26954276,175.57688395,-53.26544046,-76.70189361,76.60990900
142.32800051,46.43313806,56.10953857,29.81017115,0.96709747,-0.68018587,-2.25725061

>  <Name>
ligand

>  <RI>
0

>  <Rbt.Current_Directory>
/home/itssahil/PROJECTS/Mol_Feturizer/New_Systems/rnas/3IQN

>  <Rbt.Executable>
rbdock ($Id: //depot/dev/client3/rdock/2013.1/src/exe/rbdock.cxx#4 $)

>  <Rbt.Library>
libRbt.so (2013.1, Build901 2013/11/27)

>  <Rbt.Parameter_File>
/export/apps/rDock/src/rDock_2013.1_src/data/scripts/dock_solv.prm

>  <Rbt.Receptor>
prm/pocket_docking_7.prm

>  <SCORE>
-15.9567

>  <SCORE.INTER>
-13.4938

>  <SCORE.INTER.CONST>
1

>  <SCORE.INTER.POLAR>
0

>  <SCORE.INTER.ROT>
7

>  <SCORE.INTER.SOLV>
9.03758

>  <SCORE.INTER.VDW>
-20.275

>  <SCORE.INTER.norm>
-0.49977

>  <SCORE.INTRA>
-2.46294

>  <SCORE.INTRA.DIHEDRAL>
-4.67552

>  <SCORE.INTRA.DIHEDRAL.0>
10.0365

>  <SCORE.INTRA.POLAR>
0

>  <SCORE.INTRA.POLAR.0>
0

>  <SCORE.INTRA.REPUL>
0

>  <SCORE.INTRA.REPUL.0>
0

>  <SCORE.INTRA.SOLV>
-0.292297

>  <SCORE.INTRA.SOLV.lig_0>
-48.6728

>  <SCORE.INTRA.VDW>
0.0209648

>  <SCORE.INTRA.VDW.0>
-1.10662

>  <SCORE.INTRA.norm>
-0.0912201

>  <SCORE.RESTR>
0

>  <SCORE.RESTR.CAVITY>
0

>  <SCORE.RESTR.norm>
0

>  <SCORE.SYSTEM>
0

>  <SCORE.SYSTEM.CONST>
0

>  <SCORE.SYSTEM.DIHEDRAL>
0

>  <SCORE.SYSTEM.SOLV>
0

>  <SCORE.SYSTEM.norm>
0

>  <SCORE.heavy>
27

>  <SCORE.norm>
-0.59099

>  <RMSD>
5.367

$$$$
ligand
 OpenBabel11021811483D
libRbt.so/2013.1/901 2013/11/27
 27 29  0  0  0  0  0  0  0  0999 V2000
   48.3344   55.0525   24.3631 N   0  0  0  0  0  0  0  0  0  0  0  0
   48.2190   55.1963   25.8202 C   0  0  2  0  0  0  0  0  0  0  0  0
   47.4922   54.0010   26.3593 C   0  0  0  0  0  0  0  0  0  0  0  0
   46.4678   53.6159   25.8184 O   0  0  0  0  0  0  0  0  0  0  0  0
   47.4364   56.4708   26.1702 C   0  0  0  0  0  0  0  0  0  0  0  0
   47.4737   56.6745   27.6819 C   0  0  0  0  0  0  0  0  0  0  0  0
   49.0669   57.3158   28.2885 S   0  0  2  0  0  0  0  0  0  0  0  0
   50.2060   55.9027   28.1627 C   0  0  0  0  0  0  0  0  0  0  0  0
   49.0485   57.4874   30.1095 C   0  0  0  0  0  0  0  0  0  0  0  0
   47.9592   58.5044   30.3466 C   0  0  1  0  0  0  0  0  0  0  0  0
   46.7856   57.7727   30.2122 O   0  0  0  0  0  0  0  0  0  0  0  0
   47.7487   59.1605   31.7119 C   0  0  1  0  0  0  0  0  0  0  0  0
   48.4745   60.3478   31.8550 O   0  0  0  0  0  0  0  0  0  0  0  0
   46.1613   59.3712   31.6325 C   0  0  1  0  0  0  0  0  0  0  0  0
   45.7155   60.1170   30.4903 O   0  0  0  0  0  0  0  0  0  0  0  0
   46.0363   57.8720   31.4868 C   0  0  1  0  0  0  0  0  0  0  0  0
   47.9377   53.4079   27.3291 O   0  0  0  0  0  0  0  0  0  0  0  0
   43.4220   54.4693   34.1051 N   0  0  0  0  0  0  0  0  0  0  0  0
   44.4175   55.2805   34.4663 C   0  0  0  0  0  0  0  0  0  0  0  0
   44.9493   56.1611   33.6196 N   0  0  0  0  0  0  0  0  0  0  0  0
   44.5900   56.1820   32.3291 C   0  0  0  0  0  0  0  0  0  0  0  0
   43.5711   55.2798   31.8860 C   0  0  0  0  0  0  0  0  0  0  0  0
   42.9882   54.4146   32.8524 C   0  0  0  0  0  0  0  0  0  0  0  0
   41.9972   53.5361   32.5149 N   0  0  0  0  0  0  0  0  0  0  0  0
   43.3993   55.4930   30.5668 N   0  0  0  0  0  0  0  0  0  0  0  0
   44.2223   56.4367   30.1656 C   0  0  0  0  0  0  0  0  0  0  0  0
   44.9780   56.9192   31.2058 N   0  0  0  0  0  0  0  0  0  0  0  0
  2  1  1  6  0  0  0
  2  3  1  0  0  0  0
  2  5  1  0  0  0  0
  3  4  1  0  0  0  0
  3 17  1  0  0  0  0
  5  6  1  0  0  0  0
  7  6  1  1  0  0  0
  7  8  1  0  0  0  0
  7  9  1  0  0  0  0
 10  9  1  1  0  0  0
 10 11  1  0  0  0  0
 10 12  1  0  0  0  0
 11 16  1  0  0  0  0
 12 13  1  6  0  0  0
 12 14  1  0  0  0  0
 14 15  1  6  0  0  0
 14 16  1  0  0  0  0
 16 27  1  6  0  0  0
 18 19  2  0  0  0  0
 18 23  1  0  0  0  0
 19 20  1  0  0  0  0
 20 21  2  0  0  0  0
 21 22  1  0  0  0  0
 21 27  1  0  0  0  0
 22 23  2  0  0  0  0
 22 25  1  0  0  0  0
 23 24  1  0  0  0  0
 25 26  2  0  0  0  0
 26 27  1  0  0  0  0
M  END
>  <CHROM.1>
-46.80829458,-173.53381028,76.21798187,-73.17978448,-62.34211620,78.31460066
143.90156773,46.46445991,56.45922615,29.90564625,0.67106670,-0.74948534,-2.32451595

>  <Name>
ligand

>  <RI>
0

>  <Rbt.Current_Directory>
/home/itssahil/PROJECTS/Mol_Feturizer/New_Systems/rnas/3IQN

>  <Rbt.Executable>
rbdock ($Id: //depot/dev/client3/rdock/2013.1/src/exe/rbdock.cxx#4 $)

>  <Rbt.Library>
libRbt.so (2013.1, Build901 2013/11/27)

>  <Rbt.Parameter_File>
/export/apps/rDock/src/rDock_2013.1_src/data/scripts/dock_solv.prm

>  <Rbt.Receptor>
prm/pocket_docking_6.prm

>  <SCORE>
-17.9272

>  <SCORE.INTER>
-14.3026

>  <SCORE.INTER.CONST>
1

>  <SCORE.INTER.POLAR>
0

>  <SCORE.INTER.ROT>
7

>  <SCORE.INTER.SOLV>
11.927

>  <SCORE.INTER.VDW>
-21.7774

>  <SCORE.INTER.norm>
-0.529725

>  <SCORE.INTRA>
-3.62459

>  <SCORE.INTRA.DIHEDRAL>
-4.55321

>  <SCORE.INTRA.DIHEDRAL.0>
10.0365

>  <SCORE.INTRA.POLAR>
0

>  <SCORE.INTRA.POLAR.0>
0

>  <SCORE.INTRA.REPUL>
0

>  <SCORE.INTRA.REPUL.0>
0

>  <SCORE.INTRA.SOLV>
-0.670693

>  <SCORE.INTRA.SOLV.lig_0>
-48.6728

>  <SCORE.INTRA.VDW>
-1.01264

>  <SCORE.INTRA.VDW.0>
-1.10662

>  <SCORE.INTRA.norm>
-0.134244

>  <SCORE.RESTR>
0

>  <SCORE.RESTR.CAVITY>
0

>  <SCORE.RESTR.norm>
0

>  <SCORE.SYSTEM>
0

>  <SCORE.SYSTEM.CONST>
0

>  <SCORE.SYSTEM.DIHEDRAL>
0

>  <SCORE.SYSTEM.SOLV>
0

>  <SCORE.SYSTEM.norm>
0

>  <SCORE.heavy>
27

>  <SCORE.norm>
-0.663969

>  <RMSD>
5.383

$$$$
ligand
 OpenBabel11021811483D
libRbt.so/2013.1/901 2013/11/27
 27 29  0  0  0  0  0  0  0  0999 V2000
   45.0548   56.8262   29.1526 N   0  0  0  0  0  0  0  0  0  0  0  0
   46.4102   57.2248   29.5542 C   0  0  2  0  0  0  0  0  0  0  0  0
   47.3867   56.2582   28.9545 C   0  0  0  0  0  0  0  0  0  0  0  0
   48.5227   56.6220   28.6951 O   0  0  0  0  0  0  0  0  0  0  0  0
   46.5419   57.2008   31.0844 C   0  0  0  0  0  0  0  0  0  0  0  0
   47.9235   57.7211   31.4699 C   0  0  0  0  0  0  0  0  0  0  0  0
   48.1939   57.7974   33.2695 S   0  0  2  0  0  0  0  0  0  0  0  0
   49.7932   58.6448   33.4557 C   0  0  0  0  0  0  0  0  0  0  0  0
   48.6776   56.1596   33.9249 C   0  0  0  0  0  0  0  0  0  0  0  0
   47.5775   55.2537   33.4284 C   0  0  1  0  0  0  0  0  0  0  0  0
   48.0600   54.7780   32.2153 O   0  0  0  0  0  0  0  0  0  0  0  0
   47.2210   53.9487   34.1417 C   0  0  1  0  0  0  0  0  0  0  0  0
   46.2302   54.1213   35.1141 O   0  0  0  0  0  0  0  0  0  0  0  0
   46.7434   53.1031   32.8660 C   0  0  1  0  0  0  0  0  0  0  0  0
   45.6972   53.7187   32.1005 O   0  0  0  0  0  0  0  0  0  0  0  0
   48.1306   53.3002   32.2991 C   0  0  1  0  0  0  0  0  0  0  0  0
   47.0451   55.1053   28.7426 O   0  0  0  0  0  0  0  0  0  0  0  0
   46.7800   51.9540   27.6481 N   0  0  0  0  0  0  0  0  0  0  0  0
   46.0572   52.1408   28.7536 C   0  0  0  0  0  0  0  0  0  0  0  0
   46.6096   52.5547   29.8932 N   0  0  0  0  0  0  0  0  0  0  0  0
   47.9382   52.6807   30.0108 C   0  0  0  0  0  0  0  0  0  0  0  0
   48.7557   52.4240   28.8643 C   0  0  0  0  0  0  0  0  0  0  0  0
   48.1029   52.0574   27.6553 C   0  0  0  0  0  0  0  0  0  0  0  0
   48.8092   51.8126   26.5113 N   0  0  0  0  0  0  0  0  0  0  0  0
   50.0358   52.6126   29.2401 N   0  0  0  0  0  0  0  0  0  0  0  0
   50.0730   52.9547   30.5091 C   0  0  0  0  0  0  0  0  0  0  0  0
   48.8111   53.0314   31.0455 N   0  0  0  0  0  0  0  0  0  0  0  0
  2  1  1  1  0  0  0
  2  3  1  0  0  0  0
  2  5  1  0  0  0  0
  3  4  1  0  0  0  0
  3 17  1  0  0  0  0
  5  6  1  0  0  0  0
  7  6  1  6  0  0  0
  7  8  1  0  0  0  0
  7  9  1  0  0  0  0
 10  9  1  1  0  0  0
 10 11  1  0  0  0  0
 10 12  1  0  0  0  0
 11 16  1  0  0  0  0
 12 13  1  1  0  0  0
 12 14  1  0  0  0  0
 14 15  1  6  0  0  0
 14 16  1  0  0  0  0
 16 27  1  6  0  0  0
 18 19  2  0  0  0  0
 18 23  1  0  0  0  0
 19 20  1  0  0  0  0
 20 21  2  0  0  0  0
 21 22  1  0  0  0  0
 21 27  1  0  0  0  0
 22 23  2  0  0  0  0
 22 25  1  0  0  0  0
 23 24  1  0  0  0  0
 25 26  2  0  0  0  0
 26 27  1  0  0  0  0
M  END
>  <CHROM.1>
151.66147444,-175.70902815,178.10751908,-172.64396516,-53.67771696,91.89132167
-97.36446410,47.68287862,54.73394657,30.93057695,0.71752653,-1.57079633,0.00000000

>  <Name>
ligand

>  <RI>
0

>  <Rbt.Current_Directory>
/home/itssahil/PROJECTS/Mol_Feturizer/New_Systems/rnas/3IQN

>  <Rbt.Executable>
rbdock ($Id: //depot/dev/client3/rdock/2013.1/src/exe/rbdock.cxx#4 $)

>  <Rbt.Library>
libRbt.so (2013.1, Build901 2013/11/27)

>  <Rbt.Parameter_File>
/export/apps/rDock/src/rDock_2013.1_src/data/scripts/dock_solv.prm

>  <Rbt.Receptor>
prm/pocket_docking_5.prm

>  <SCORE>
-15.9972

>  <SCORE.INTER>
-10.7564

>  <SCORE.INTER.CONST>
1

>  <SCORE.INTER.POLAR>
0

>  <SCORE.INTER.ROT>
7

>  <SCORE.INTER.SOLV>
9.53123

>  <SCORE.INTER.VDW>
-18.6147

>  <SCORE.INTER.norm>
-0.398386

>  <SCORE.INTRA>
-5.24075

>  <SCORE.INTRA.DIHEDRAL>
-2.9971

>  <SCORE.INTRA.DIHEDRAL.0>
10.0365

>  <SCORE.INTRA.POLAR>
0

>  <SCORE.INTRA.POLAR.0>
0

>  <SCORE.INTRA.REPUL>
0

>  <SCORE.INTRA.REPUL.0>
0

>  <SCORE.INTRA.SOLV>
-0.57739

>  <SCORE.INTRA.SOLV.lig_0>
-48.6728

>  <SCORE.INTRA.VDW>
-3.4535

>  <SCORE.INTRA.VDW.0>
-1.10662

>  <SCORE.INTRA.norm>
-0.194102

>  <SCORE.RESTR>
0

>  <SCORE.RESTR.CAVITY>
0

>  <SCORE.RESTR.norm>
0

>  <SCORE.SYSTEM>
0

>  <SCORE.SYSTEM.CONST>
0

>  <SCORE.SYSTEM.DIHEDRAL>
0

>  <SCORE.SYSTEM.SOLV>
0

>  <SCORE.SYSTEM.norm>
0

>  <SCORE.heavy>
27

>  <SCORE.norm>
-0.592488

>  <RMSD>
5.390

$$$$
ligand
 OpenBabel11021811483D
libRbt.so/2013.1/901 2013/11/27
 27 29  0  0  0  0  0  0  0  0999 V2000
   44.4495   55.5032   30.8079 N   0  0  0  0  0  0  0  0  0  0  0  0
   45.5243   56.5040   30.7823 C   0  0  2  0  0  0  0  0  0  0  0  0
   46.4003   56.2299   29.5970 C   0  0  0  0  0  0  0  0  0  0  0  0
   46.7123   55.0820   29.3225 O   0  0  0  0  0  0  0  0  0  0  0  0
   46.3620   56.4201   32.0670 C   0  0  0  0  0  0  0  0  0  0  0  0
   47.4976   57.4358   31.9840 C   0  0  0  0  0  0  0  0  0  0  0  0
   48.4284   57.6124   33.5396 S   0  0  2  0  0  0  0  0  0  0  0  0
   49.6465   58.9198   33.1973 C   0  0  0  0  0  0  0  0  0  0  0  0
   49.5872   56.2155   33.7668 C   0  0  0  0  0  0  0  0  0  0  0  0
   48.6862   55.0938   34.2219 C   0  0  1  0  0  0  0  0  0  0  0  0
   48.1844   54.5684   33.0375 O   0  0  0  0  0  0  0  0  0  0  0  0
   49.2375   53.8372   34.8973 C   0  0  1  0  0  0  0  0  0  0  0  0
   49.2925   53.9562   36.2900 O   0  0  0  0  0  0  0  0  0  0  0  0
   48.1445   52.7871   34.3744 C   0  0  1  0  0  0  0  0  0  0  0  0
   46.7873   53.1354   34.6844 O   0  0  0  0  0  0  0  0  0  0  0  0
   48.5744   53.1404   32.9692 C   0  0  1  0  0  0  0  0  0  0  0  0
   46.7855   57.1565   28.9015 O   0  0  0  0  0  0  0  0  0  0  0  0
   50.6528   53.0742   28.3927 N   0  0  0  0  0  0  0  0  0  0  0  0
   51.1582   53.4032   29.5826 C   0  0  0  0  0  0  0  0  0  0  0  0
   50.4435   53.3013   30.7025 N   0  0  0  0  0  0  0  0  0  0  0  0
   49.1429   52.9822   30.6650 C   0  0  0  0  0  0  0  0  0  0  0  0
   48.5452   52.6869   29.3984 C   0  0  0  0  0  0  0  0  0  0  0  0
   49.3771   52.7401   28.2463 C   0  0  0  0  0  0  0  0  0  0  0  0
   48.8885   52.4548   27.0023 N   0  0  0  0  0  0  0  0  0  0  0  0
   47.2479   52.4052   29.6285 N   0  0  0  0  0  0  0  0  0  0  0  0
   47.0000   52.5069   30.9157 C   0  0  0  0  0  0  0  0  0  0  0  0
   48.1298   52.8454   31.6192 N   0  0  0  0  0  0  0  0  0  0  0  0
  2  1  1  1  0  0  0
  2  3  1  0  0  0  0
  2  5  1  0  0  0  0
  3  4  1  0  0  0  0
  3 17  1  0  0  0  0
  5  6  1  0  0  0  0
  7  6  1  6  0  0  0
  7  8  1  0  0  0  0
  7  9  1  0  0  0  0
 10  9  1  6  0  0  0
 10 11  1  0  0  0  0
 10 12  1  0  0  0  0
 11 16  1  0  0  0  0
 12 13  1  1  0  0  0
 12 14  1  0  0  0  0
 14 15  1  6  0  0  0
 14 16  1  0  0  0  0
 16 27  1  6  0  0  0
 18 19  2  0  0  0  0
 18 23  1  0  0  0  0
 19 20  1  0  0  0  0
 20 21  2  0  0  0  0
 21 22  1  0  0  0  0
 21 27  1  0  0  0  0
 22 23  2  0  0  0  0
 22 25  1  0  0  0  0
 23 24  1  0  0  0  0
 25 26  2  0  0  0  0
 26 27  1  0  0  0  0
M  END
>  <CHROM.1>
-42.30598384,177.92513152,171.71557299,-177.27725863,-77.28680859,83.91147664
94.14649378,48.16906211,54.71677117,31.65601521,1.51423345,1.07915494,-1.97980344

>  <Name>
ligand

>  <RI>
0

>  <Rbt.Current_Directory>
/home/itssahil/PROJECTS/Mol_Feturizer/New_Systems/rnas/3IQN

>  <Rbt.Executable>
rbdock ($Id: //depot/dev/client3/rdock/2013.1/src/exe/rbdock.cxx#4 $)

>  <Rbt.Library>
libRbt.so (2013.1, Build901 2013/11/27)

>  <Rbt.Parameter_File>
/export/apps/rDock/src/rDock_2013.1_src/data/scripts/dock_solv.prm

>  <Rbt.Receptor>
prm/pocket_docking_4.prm

>  <SCORE>
-19.7606

>  <SCORE.INTER>
-14.5986

>  <SCORE.INTER.CONST>
1

>  <SCORE.INTER.POLAR>
0

>  <SCORE.INTER.ROT>
7

>  <SCORE.INTER.SOLV>
8.44491

>  <SCORE.INTER.VDW>
-20.8141

>  <SCORE.INTER.norm>
-0.54069

>  <SCORE.INTRA>
-5.16201

>  <SCORE.INTRA.DIHEDRAL>
-4.28227

>  <SCORE.INTRA.DIHEDRAL.0>
10.0365

>  <SCORE.INTRA.POLAR>
0

>  <SCORE.INTRA.POLAR.0>
0

>  <SCORE.INTRA.REPUL>
0

>  <SCORE.INTRA.REPUL.0>
0

>  <SCORE.INTRA.SOLV>
-0.882956

>  <SCORE.INTRA.SOLV.lig_0>
-48.6728

>  <SCORE.INTRA.VDW>
-2.5794

>  <SCORE.INTRA.VDW.0>
-1.10662

>  <SCORE.INTRA.norm>
-0.191186

>  <SCORE.RESTR>
0

>  <SCORE.RESTR.CAVITY>
0

>  <SCORE.RESTR.norm>
0

>  <SCORE.SYSTEM>
0

>  <SCORE.SYSTEM.CONST>
0

>  <SCORE.SYSTEM.DIHEDRAL>
0

>  <SCORE.SYSTEM.SOLV>
0

>  <SCORE.SYSTEM.norm>
0

>  <SCORE.heavy>
27

>  <SCORE.norm>
-0.731876

>  <RMSD>
5.400

$$$$
ligand
 OpenBabel11021811483D
libRbt.so/2013.1/901 2013/11/27
 27 29  0  0  0  0  0  0  0  0999 V2000
   47.3513   52.5152   27.7460 N   0  0  0  0  0  0  0  0  0  0  0  0
   48.3422   53.2505   28.5427 C   0  0  2  0  0  0  0  0  0  0  0  0
   49.2546   52.2584   29.1990 C   0  0  0  0  0  0  0  0  0  0  0  0
   49.1435   51.0691   28.9474 O   0  0  0  0  0  0  0  0  0  0  0  0
   47.6420   54.0916   29.6205 C   0  0  0  0  0  0  0  0  0  0  0  0
   46.8802   55.2274   28.9439 C   0  0  0  0  0  0  0  0  0  0  0  0
   47.9427   56.6234   28.4545 S   0  0  2  0  0  0  0  0  0  0  0  0
   49.1561   55.8950   27.3111 C   0  0  0  0  0  0  0  0  0  0  0  0
   49.0855   57.0773   29.8087 C   0  0  0  0  0  0  0  0  0  0  0  0
   48.2559   58.0074   30.6594 C   0  0  1  0  0  0  0  0  0  0  0  0
   47.4349   57.1523   31.3843 O   0  0  0  0  0  0  0  0  0  0  0  0
   48.8741   58.8484   31.7773 C   0  0  1  0  0  0  0  0  0  0  0  0
   49.2895   60.1086   31.3344 O   0  0  0  0  0  0  0  0  0  0  0  0
   47.6154   58.8872   32.7697 C   0  0  1  0  0  0  0  0  0  0  0  0
   46.4086   59.3947   32.1820 O   0  0  0  0  0  0  0  0  0  0  0  0
   47.6967   57.3790   32.8251 C   0  0  1  0  0  0  0  0  0  0  0  0
   50.1165   52.6471   29.9717 O   0  0  0  0  0  0  0  0  0  0  0  0
   48.4625   53.5872   36.0351 N   0  0  0  0  0  0  0  0  0  0  0  0
   49.2909   54.5208   35.5643 C   0  0  0  0  0  0  0  0  0  0  0  0
   48.8711   55.4858   34.7470 N   0  0  0  0  0  0  0  0  0  0  0  0
   47.6220   55.4855   34.2625 C   0  0  0  0  0  0  0  0  0  0  0  0
   46.7200   54.4603   34.6915 C   0  0  0  0  0  0  0  0  0  0  0  0
   47.2043   53.5007   35.6226 C   0  0  0  0  0  0  0  0  0  0  0  0
   46.4021   52.5005   36.0956 N   0  0  0  0  0  0  0  0  0  0  0  0
   45.5470   54.6772   34.0653 N   0  0  0  0  0  0  0  0  0  0  0  0
   45.6532   55.7351   33.2918 C   0  0  0  0  0  0  0  0  0  0  0  0
   46.9045   56.2946   33.3758 N   0  0  0  0  0  0  0  0  0  0  0  0
  2  1  1  1  0  0  0
  2  3  1  0  0  0  0
  2  5  1  0  0  0  0
  3  4  1  0  0  0  0
  3 17  1  0  0  0  0
  5  6  1  0  0  0  0
  7  6  1  1  0  0  0
  7  8  1  0  0  0  0
  7  9  1  0  0  0  0
 10  9  1  1  0  0  0
 10 11  1  0  0  0  0
 10 12  1  0  0  0  0
 11 16  1  0  0  0  0
 12 13  1  6  0  0  0
 12 14  1  0  0  0  0
 14 15  1  6  0  0  0
 14 16  1  0  0  0  0
 16 27  1  1  0  0  0
 18 19  2  0  0  0  0
 18 23  1  0  0  0  0
 19 20  1  0  0  0  0
 20 21  2  0  0  0  0
 21 22  1  0  0  0  0
 21 27  1  0  0  0  0
 22 23  2  0  0  0  0
 22 25  1  0  0  0  0
 23 24  1  0  0  0  0
 25 26  2  0  0  0  0
 26 27  1  0  0  0  0
M  END
>  <CHROM.1>
4.76485568,-69.04556297,-79.11523774,59.37222896,-84.92411264,78.40540814
127.79260705,47.92049693,55.51588520,31.57487913,-0.14043646,-1.39231812
2.90850334

>  <Name>
ligand

>  <RI>
0

>  <Rbt.Current_Directory>
/home/itssahil/PROJECTS/Mol_Feturizer/New_Systems/rnas/3IQN

>  <Rbt.Executable>
rbdock ($Id: //depot/dev/client3/rdock/2013.1/src/exe/rbdock.cxx#4 $)

>  <Rbt.Library>
libRbt.so (2013.1, Build901 2013/11/27)

>  <Rbt.Parameter_File>
/export/apps/rDock/src/rDock_2013.1_src/data/scripts/dock_solv.prm

>  <Rbt.Receptor>
prm/pocket_docking_4.prm

>  <SCORE>
-11.8094

>  <SCORE.INTER>
-9.8177

>  <SCORE.INTER.CONST>
1

>  <SCORE.INTER.POLAR>
0

>  <SCORE.INTER.ROT>
7

>  <SCORE.INTER.SOLV>
13.0441

>  <SCORE.INTER.VDW>
-19.1598

>  <SCORE.INTER.norm>
-0.363618

>  <SCORE.INTRA>
-2.00035

>  <SCORE.INTRA.DIHEDRAL>
-3.01989

>  <SCORE.INTRA.DIHEDRAL.0>
10.0365

>  <SCORE.INTRA.POLAR>
0

>  <SCORE.INTRA.POLAR.0>
0

>  <SCORE.INTRA.REPUL>
0

>  <SCORE.INTRA.REPUL.0>
0

>  <SCORE.INTRA.SOLV>
0.593187

>  <SCORE.INTRA.SOLV.lig_0>
-48.6728

>  <SCORE.INTRA.VDW>
-0.787001

>  <SCORE.INTRA.VDW.0>
-1.10662

>  <SCORE.INTRA.norm>
-0.0740872

>  <SCORE.RESTR>
0.00860575

>  <SCORE.RESTR.CAVITY>
0.00860575

>  <SCORE.RESTR.norm>
0.000318732

>  <SCORE.SYSTEM>
0

>  <SCORE.SYSTEM.CONST>
0

>  <SCORE.SYSTEM.DIHEDRAL>
0

>  <SCORE.SYSTEM.SOLV>
0

>  <SCORE.SYSTEM.norm>
0

>  <SCORE.heavy>
27

>  <SCORE.norm>
-0.437387

>  <RMSD>
5.410

$$$$
ligand
 OpenBabel11021811483D
libRbt.so/2013.1/901 2013/11/27
 27 29  0  0  0  0  0  0  0  0999 V2000
   46.5026   55.7937   28.5198 N   0  0  0  0  0  0  0  0  0  0  0  0
   46.6734   57.2276   28.2515 C   0  0  2  0  0  0  0  0  0  0  0  0
   47.5567   57.3840   27.0503 C   0  0  0  0  0  0  0  0  0  0  0  0
   48.6800   56.9060   27.0538 O   0  0  0  0  0  0  0  0  0  0  0  0
   47.3233   57.9222   29.4575 C   0  0  0  0  0  0  0  0  0  0  0  0
   46.3584   57.8680   30.6383 C   0  0  0  0  0  0  0  0  0  0  0  0
   47.0603   58.5370   32.1801 S   0  0  2  0  0  0  0  0  0  0  0  0
   47.5759   60.2283   31.7512 C   0  0  0  0  0  0  0  0  0  0  0  0
   48.7133   57.8245   32.5056 C   0  0  0  0  0  0  0  0  0  0  0  0
   48.4612   56.3376   32.4549 C   0  0  1  0  0  0  0  0  0  0  0  0
   48.9150   55.9657   31.1953 O   0  0  0  0  0  0  0  0  0  0  0  0
   49.2220   55.3575   33.3491 C   0  0  1  0  0  0  0  0  0  0  0  0
   48.5710   55.1232   34.5649 O   0  0  0  0  0  0  0  0  0  0  0  0
   49.2344   54.0947   32.3612 C   0  0  1  0  0  0  0  0  0  0  0  0
   47.9370   53.6754   31.9135 O   0  0  0  0  0  0  0  0  0  0  0  0
   49.9864   54.9579   31.3745 C   0  0  1  0  0  0  0  0  0  0  0  0
   47.1419   57.9765   26.0666 O   0  0  0  0  0  0  0  0  0  0  0  0
   49.7564   51.4920   27.7409 N   0  0  0  0  0  0  0  0  0  0  0  0
   49.3350   51.4677   29.0063 C   0  0  0  0  0  0  0  0  0  0  0  0
   49.4467   52.5283   29.8050 N   0  0  0  0  0  0  0  0  0  0  0  0
   50.1029   53.6264   29.4070 C   0  0  0  0  0  0  0  0  0  0  0  0
   50.6296   53.6664   28.0767 C   0  0  0  0  0  0  0  0  0  0  0  0
   50.4142   52.5326   27.2459 C   0  0  0  0  0  0  0  0  0  0  0  0
   50.8691   52.4979   25.9577 N   0  0  0  0  0  0  0  0  0  0  0  0
   51.2392   54.8587   27.9276 N   0  0  0  0  0  0  0  0  0  0  0  0
   51.1368   55.5448   29.0446 C   0  0  0  0  0  0  0  0  0  0  0  0
   50.4330   54.8503   29.9975 N   0  0  0  0  0  0  0  0  0  0  0  0
  2  1  1  1  0  0  0
  2  3  1  0  0  0  0
  2  5  1  0  0  0  0
  3  4  1  0  0  0  0
  3 17  1  0  0  0  0
  5  6  1  0  0  0  0
  7  6  1  6  0  0  0
  7  8  1  0  0  0  0
  7  9  1  0  0  0  0
 10  9  1  1  0  0  0
 10 11  1  0  0  0  0
 10 12  1  0  0  0  0
 11 16  1  0  0  0  0
 12 13  1  1  0  0  0
 12 14  1  0  0  0  0
 14 15  1  6  0  0  0
 14 16  1  0  0  0  0
 16 27  1  6  0  0  0
 18 19  2  0  0  0  0
 18 23  1  0  0  0  0
 19 20  1  0  0  0  0
 20 21  2  0  0  0  0
 21 22  1  0  0  0  0
 21 27  1  0  0  0  0
 22 23  2  0  0  0  0
 22 25  1  0  0  0  0
 23 24  1  0  0  0  0
 25 26  2  0  0  0  0
 26 27  1  0  0  0  0
M  END
>  <CHROM.1>
-58.13890119,-65.90659518,175.21970737,56.13784824,-53.96083635,101.20566354
-110.05236936,48.73064754,55.62698537,29.95880451,2.52946062,-1.08637915
1.58009259

>  <Name>
ligand

>  <RI>
0

>  <Rbt.Current_Directory>
/home/itssahil/PROJECTS/Mol_Feturizer/New_Systems/rnas/3IQN

>  <Rbt.Executable>
rbdock ($Id: //depot/dev/client3/rdock/2013.1/src/exe/rbdock.cxx#4 $)

>  <Rbt.Library>
libRbt.so (2013.1, Build901 2013/11/27)

>  <Rbt.Parameter_File>
/export/apps/rDock/src/rDock_2013.1_src/data/scripts/dock_solv.prm

>  <Rbt.Receptor>
prm/pocket_docking_6.prm

>  <SCORE>
-18.8092

>  <SCORE.INTER>
-15.5171

>  <SCORE.INTER.CONST>
1

>  <SCORE.INTER.POLAR>
0

>  <SCORE.INTER.ROT>
7

>  <SCORE.INTER.SOLV>
6.1684

>  <SCORE.INTER.VDW>
-20.6675

>  <SCORE.INTER.norm>
-0.574708

>  <SCORE.INTRA>
-3.30933

>  <SCORE.INTRA.DIHEDRAL>
-2.3345

>  <SCORE.INTRA.DIHEDRAL.0>
10.0365

>  <SCORE.INTRA.POLAR>
0

>  <SCORE.INTRA.POLAR.0>
0

>  <SCORE.INTRA.REPUL>
0

>  <SCORE.INTRA.REPUL.0>
0

>  <SCORE.INTRA.SOLV>
0.50725

>  <SCORE.INTRA.SOLV.lig_0>
-48.6728

>  <SCORE.INTRA.VDW>
-2.3957

>  <SCORE.INTRA.VDW.0>
-1.10662

>  <SCORE.INTRA.norm>
-0.122568

>  <SCORE.RESTR>
0.0172374

>  <SCORE.RESTR.CAVITY>
0.0172374

>  <SCORE.RESTR.norm>
0.000638424

>  <SCORE.SYSTEM>
0

>  <SCORE.SYSTEM.CONST>
0

>  <SCORE.SYSTEM.DIHEDRAL>
0

>  <SCORE.SYSTEM.SOLV>
0

>  <SCORE.SYSTEM.norm>
0

>  <SCORE.heavy>
27

>  <SCORE.norm>
-0.696637

>  <RMSD>
5.414

$$$$
ligand
 OpenBabel11021811483D
libRbt.so/2013.1/901 2013/11/27
 27 29  0  0  0  0  0  0  0  0999 V2000
   50.2642   52.6616   30.9834 N   0  0  0  0  0  0  0  0  0  0  0  0
   49.4659   53.2363   29.8926 C   0  0  2  0  0  0  0  0  0  0  0  0
   48.7636   52.1204   29.1791 C   0  0  0  0  0  0  0  0  0  0  0  0
   49.3548   51.0777   28.9479 O   0  0  0  0  0  0  0  0  0  0  0  0
   50.3735   53.9836   28.9040 C   0  0  0  0  0  0  0  0  0  0  0  0
   49.5086   54.8662   28.0089 C   0  0  0  0  0  0  0  0  0  0  0  0
   48.4609   56.0332   28.9352 S   0  0  2  0  0  0  0  0  0  0  0  0
   48.1830   57.4124   27.7815 C   0  0  0  0  0  0  0  0  0  0  0  0
   49.4398   56.9275   30.1953 C   0  0  0  0  0  0  0  0  0  0  0  0
   48.4158   57.8169   30.8566 C   0  0  1  0  0  0  0  0  0  0  0  0
   47.6620   56.9407   31.6277 O   0  0  0  0  0  0  0  0  0  0  0  0
   48.8083   58.8686   31.8953 C   0  0  1  0  0  0  0  0  0  0  0  0
   49.0802   60.1151   31.3215 O   0  0  0  0  0  0  0  0  0  0  0  0
   47.4738   58.8357   32.7832 C   0  0  1  0  0  0  0  0  0  0  0  0
   46.2644   59.0821   32.0509 O   0  0  0  0  0  0  0  0  0  0  0  0
   47.7608   57.3744   33.0412 C   0  0  1  0  0  0  0  0  0  0  0  0
   47.5967   52.2543   28.8459 O   0  0  0  0  0  0  0  0  0  0  0  0
   49.1006   53.4423   35.8717 N   0  0  0  0  0  0  0  0  0  0  0  0
   49.8286   54.4060   35.3054 C   0  0  0  0  0  0  0  0  0  0  0  0
   49.2664   55.4043   34.6252 N   0  0  0  0  0  0  0  0  0  0  0  0
   47.9504   55.4139   34.3745 C   0  0  0  0  0  0  0  0  0  0  0  0
   47.1426   54.3599   34.9086 C   0  0  0  0  0  0  0  0  0  0  0  0
   47.7888   53.3623   35.6892 C   0  0  0  0  0  0  0  0  0  0  0  0
   47.0870   52.3323   36.2498 N   0  0  0  0  0  0  0  0  0  0  0  0
   45.8753   54.5940   34.5156 N   0  0  0  0  0  0  0  0  0  0  0  0
   45.8381   55.6886   33.7881 C   0  0  0  0  0  0  0  0  0  0  0  0
   47.0831   56.2567   33.6723 N   0  0  0  0  0  0  0  0  0  0  0  0
  2  1  1  1  0  0  0
  2  3  1  0  0  0  0
  2  5  1  0  0  0  0
  3  4  1  0  0  0  0
  3 17  1  0  0  0  0
  5  6  1  0  0  0  0
  7  6  1  6  0  0  0
  7  8  1  0  0  0  0
  7  9  1  0  0  0  0
 10  9  1  1  0  0  0
 10 11  1  0  0  0  0
 10 12  1  0  0  0  0
 11 16  1  0  0  0  0
 12 13  1  6  0  0  0
 12 14  1  0  0  0  0
 14 15  1  6  0  0  0
 14 16  1  0  0  0  0
 16 27  1  1  0  0  0
 18 19  2  0  0  0  0
 18 23  1  0  0  0  0
 19 20  1  0  0  0  0
 20 21  2  0  0  0  0
 21 22  1  0  0  0  0
 21 27  1  0  0  0  0
 22 23  2  0  0  0  0
 22 25  1  0  0  0  0
 23 24  1  0  0  0  0
 25 26  2  0  0  0  0
 26 27  1  0  0  0  0
M  END
>  <CHROM.1>
-41.57789368,-165.14174802,56.05852954,153.85229509,-179.34722451,73.36606017
108.07531862,48.30169890,55.42662392,31.76528469,-0.55541292,-1.31456363
2.55933307

>  <Name>
ligand

>  <RI>
0

>  <Rbt.Current_Directory>
/home/itssahil/PROJECTS/Mol_Feturizer/New_Systems/rnas/3IQN

>  <Rbt.Executable>
rbdock ($Id: //depot/dev/client3/rdock/2013.1/src/exe/rbdock.cxx#4 $)

>  <Rbt.Library>
libRbt.so (2013.1, Build901 2013/11/27)

>  <Rbt.Parameter_File>
/export/apps/rDock/src/rDock_2013.1_src/data/scripts/dock_solv.prm

>  <Rbt.Receptor>
prm/pocket_docking_4.prm

>  <SCORE>
-15.3902

>  <SCORE.INTER>
-11.6957

>  <SCORE.INTER.CONST>
1

>  <SCORE.INTER.POLAR>
0

>  <SCORE.INTER.ROT>
7

>  <SCORE.INTER.SOLV>
18.8743

>  <SCORE.INTER.VDW>
-22.3552

>  <SCORE.INTER.norm>
-0.433174

>  <SCORE.INTRA>
-3.70953

>  <SCORE.INTRA.DIHEDRAL>
-4.39147

>  <SCORE.INTRA.DIHEDRAL.0>
10.0365

>  <SCORE.INTRA.POLAR>
0

>  <SCORE.INTRA.POLAR.0>
0

>  <SCORE.INTRA.REPUL>
0

>  <SCORE.INTRA.REPUL.0>
0

>  <SCORE.INTRA.SOLV>
-0.627038

>  <SCORE.INTRA.SOLV.lig_0>
-48.6728

>  <SCORE.INTRA.VDW>
-1.20027

>  <SCORE.INTRA.VDW.0>
-1.10662

>  <SCORE.INTRA.norm>
-0.13739

>  <SCORE.RESTR>
0.015065

>  <SCORE.RESTR.CAVITY>
0.015065

>  <SCORE.RESTR.norm>
0.000557964

>  <SCORE.SYSTEM>
0

>  <SCORE.SYSTEM.CONST>
0

>  <SCORE.SYSTEM.DIHEDRAL>
0

>  <SCORE.SYSTEM.SOLV>
0

>  <SCORE.SYSTEM.norm>
0

>  <SCORE.heavy>
27

>  <SCORE.norm>
-0.570006

>  <RMSD>
5.417

$$$$
ligand
 OpenBabel11021811483D
libRbt.so/2013.1/901 2013/11/27
 27 29  0  0  0  0  0  0  0  0999 V2000
   45.9534   56.2945   30.0168 N   0  0  0  0  0  0  0  0  0  0  0  0
   46.1577   57.5746   30.7074 C   0  0  2  0  0  0  0  0  0  0  0  0
   46.1188   58.6748   29.6898 C   0  0  0  0  0  0  0  0  0  0  0  0
   46.2568   58.4140   28.5052 O   0  0  0  0  0  0  0  0  0  0  0  0
   47.5187   57.5853   31.4195 C   0  0  0  0  0  0  0  0  0  0  0  0
   47.2884   57.5307   32.9269 C   0  0  0  0  0  0  0  0  0  0  0  0
   48.8295   57.5529   33.8975 S   0  0  2  0  0  0  0  0  0  0  0  0
   49.8860   58.7674   33.0495 C   0  0  0  0  0  0  0  0  0  0  0  0
   49.8254   56.0536   33.5718 C   0  0  0  0  0  0  0  0  0  0  0  0
   48.7796   54.9817   33.3859 C   0  0  1  0  0  0  0  0  0  0  0  0
   48.9391   54.5868   32.0632 O   0  0  0  0  0  0  0  0  0  0  0  0
   48.8609   53.6380   34.1117 C   0  0  1  0  0  0  0  0  0  0  0  0
   48.1971   53.6515   35.3429 O   0  0  0  0  0  0  0  0  0  0  0  0
   48.1554   52.7237   32.9995 C   0  0  1  0  0  0  0  0  0  0  0  0
   46.8449   53.1616   32.6118 O   0  0  0  0  0  0  0  0  0  0  0  0
   49.2580   53.1398   32.0533 C   0  0  1  0  0  0  0  0  0  0  0  0
   45.9331   59.8266   30.0499 O   0  0  0  0  0  0  0  0  0  0  0  0
   46.6847   51.9662   27.8977 N   0  0  0  0  0  0  0  0  0  0  0  0
   46.3034   52.0487   29.1733 C   0  0  0  0  0  0  0  0  0  0  0  0
   47.1423   52.4336   30.1343 N   0  0  0  0  0  0  0  0  0  0  0  0
   48.4417   52.6338   29.8772 C   0  0  0  0  0  0  0  0  0  0  0  0
   48.9048   52.4895   28.5306 C   0  0  0  0  0  0  0  0  0  0  0  0
   47.9479   52.1495   27.5352 C   0  0  0  0  0  0  0  0  0  0  0  0
   48.3048   52.0102   26.2234 N   0  0  0  0  0  0  0  0  0  0  0  0
   50.2295   52.7353   28.5387 N   0  0  0  0  0  0  0  0  0  0  0  0
   50.6158   53.0103   29.7650 C   0  0  0  0  0  0  0  0  0  0  0  0
   49.5597   52.9809   30.6424 N   0  0  0  0  0  0  0  0  0  0  0  0
  2  1  1  6  0  0  0
  2  3  1  0  0  0  0
  2  5  1  0  0  0  0
  3  4  1  0  0  0  0
  3 17  1  0  0  0  0
  5  6  1  0  0  0  0
  7  6  1  6  0  0  0
  7  8  1  0  0  0  0
  7  9  1  0  0  0  0
 10  9  1  1  0  0  0
 10 11  1  0  0  0  0
 10 12  1  0  0  0  0
 11 16  1  0  0  0  0
 12 13  1  1  0  0  0
 12 14  1  0  0  0  0
 14 15  1  6  0  0  0
 14 16  1  0  0  0  0
 16 27  1  6  0  0  0
 18 19  2  0  0  0  0
 18 23  1  0  0  0  0
 19 20  1  0  0  0  0
 20 21  2  0  0  0  0
 21 22  1  0  0  0  0
 21 27  1  0  0  0  0
 22 23  2  0  0  0  0
 22 25  1  0  0  0  0
 23 24  1  0  0  0  0
 25 26  2  0  0  0  0
 26 27  1  0  0  0  0
M  END
>  <CHROM.1>
-17.30752201,-109.75108976,-179.47008584,40.81361605,-35.45932826,115.73358879
-90.74435682,48.05267776,54.97634290,31.11363584,1.69380051,-1.14086287,0.71546409

>  <Name>
ligand

>  <RI>
0

>  <Rbt.Current_Directory>
/home/itssahil/PROJECTS/Mol_Feturizer/New_Systems/rnas/3IQN

>  <Rbt.Executable>
rbdock ($Id: //depot/dev/client3/rdock/2013.1/src/exe/rbdock.cxx#4 $)

>  <Rbt.Library>
libRbt.so (2013.1, Build901 2013/11/27)

>  <Rbt.Parameter_File>
/export/apps/rDock/src/rDock_2013.1_src/data/scripts/dock_solv.prm

>  <Rbt.Receptor>
prm/pocket_docking_3.prm

>  <SCORE>
-13.1328

>  <SCORE.INTER>
-15.3525

>  <SCORE.INTER.CONST>
1

>  <SCORE.INTER.POLAR>
0

>  <SCORE.INTER.ROT>
7

>  <SCORE.INTER.SOLV>
9.86823

>  <SCORE.INTER.VDW>
-21.7911

>  <SCORE.INTER.norm>
-0.568612

>  <SCORE.INTRA>
2.19617

>  <SCORE.INTRA.DIHEDRAL>
6.27109

>  <SCORE.INTRA.DIHEDRAL.0>
10.0365

>  <SCORE.INTRA.POLAR>
0

>  <SCORE.INTRA.POLAR.0>
0

>  <SCORE.INTRA.REPUL>
0

>  <SCORE.INTRA.REPUL.0>
0

>  <SCORE.INTRA.SOLV>
-0.11156

>  <SCORE.INTRA.SOLV.lig_0>
-48.6728

>  <SCORE.INTRA.VDW>
-0.883594

>  <SCORE.INTRA.VDW.0>
-1.10662

>  <SCORE.INTRA.norm>
0.0813396

>  <SCORE.RESTR>
0.0235612

>  <SCORE.RESTR.CAVITY>
0.0235612

>  <SCORE.RESTR.norm>
0.000872636

>  <SCORE.SYSTEM>
0

>  <SCORE.SYSTEM.CONST>
0

>  <SCORE.SYSTEM.DIHEDRAL>
0

>  <SCORE.SYSTEM.SOLV>
0

>  <SCORE.SYSTEM.norm>
0

>  <SCORE.heavy>
27

>  <SCORE.norm>
-0.4864

>  <RMSD>
5.425

$$$$
ligand
 OpenBabel11021811483D
libRbt.so/2013.1/901 2013/11/27
 27 29  0  0  0  0  0  0  0  0999 V2000
   45.8595   58.2352   29.3837 N   0  0  0  0  0  0  0  0  0  0  0  0
   46.7146   57.0511   29.5384 C   0  0  2  0  0  0  0  0  0  0  0  0
   46.0155   55.8767   28.9224 C   0  0  0  0  0  0  0  0  0  0  0  0
   46.5501   54.7793   28.9254 O   0  0  0  0  0  0  0  0  0  0  0  0
   46.9719   56.7697   31.0263 C   0  0  0  0  0  0  0  0  0  0  0  0
   47.8352   57.8899   31.5992 C   0  0  0  0  0  0  0  0  0  0  0  0
   48.4256   57.5584   33.2901 S   0  0  2  0  0  0  0  0  0  0  0  0
   49.7024   58.8209   33.5839 C   0  0  0  0  0  0  0  0  0  0  0  0
   49.4972   56.0763   33.3263 C   0  0  0  0  0  0  0  0  0  0  0  0
   48.5486   54.9781   33.7400 C   0  0  1  0  0  0  0  0  0  0  0  0
   48.1266   54.4309   32.5345 O   0  0  0  0  0  0  0  0  0  0  0  0
   49.0300   53.7310   34.4830 C   0  0  1  0  0  0  0  0  0  0  0  0
   48.9851   53.8829   35.8728 O   0  0  0  0  0  0  0  0  0  0  0  0
   47.9624   52.6832   33.9058 C   0  0  1  0  0  0  0  0  0  0  0  0
   46.5916   53.0570   34.1074 O   0  0  0  0  0  0  0  0  0  0  0  0
   48.4989   52.9966   32.5281 C   0  0  1  0  0  0  0  0  0  0  0  0
   44.9058   56.0205   28.4337 O   0  0  0  0  0  0  0  0  0  0  0  0
   50.8522   52.9890   28.0861 N   0  0  0  0  0  0  0  0  0  0  0  0
   51.2704   53.3462   29.3014 C   0  0  0  0  0  0  0  0  0  0  0  0
   50.4939   53.2215   30.3770 N   0  0  0  0  0  0  0  0  0  0  0  0
   49.2123   52.8481   30.2639 C   0  0  0  0  0  0  0  0  0  0  0  0
   48.7052   52.5203   28.9661 C   0  0  0  0  0  0  0  0  0  0  0  0
   49.6025   52.6010   27.8659 C   0  0  0  0  0  0  0  0  0  0  0  0
   49.2025   52.2879   26.5972 N   0  0  0  0  0  0  0  0  0  0  0  0
   47.4091   52.1861   29.1199 N   0  0  0  0  0  0  0  0  0  0  0  0
   47.0796   52.2852   30.3890 C   0  0  0  0  0  0  0  0  0  0  0  0
   48.1497   52.6749   31.1564 N   0  0  0  0  0  0  0  0  0  0  0  0
  2  1  1  1  0  0  0
  2  3  1  0  0  0  0
  2  5  1  0  0  0  0
  3  4  1  0  0  0  0
  3 17  1  0  0  0  0
  5  6  1  0  0  0  0
  7  6  1  6  0  0  0
  7  8  1  0  0  0  0
  7  9  1  0  0  0  0
 10  9  1  6  0  0  0
 10 11  1  0  0  0  0
 10 12  1  0  0  0  0
 11 16  1  0  0  0  0
 12 13  1  1  0  0  0
 12 14  1  0  0  0  0
 14 15  1  6  0  0  0
 14 16  1  0  0  0  0
 16 27  1  6  0  0  0
 18 19  2  0  0  0  0
 18 23  1  0  0  0  0
 19 20  1  0  0  0  0
 20 21  2  0  0  0  0
 21 22  1  0  0  0  0
 21 27  1  0  0  0  0
 22 23  2  0  0  0  0
 22 25  1  0  0  0  0
 23 24  1  0  0  0  0
 25 26  2  0  0  0  0
 26 27  1  0  0  0  0
M  END
>  <CHROM.1>
179.42174904,-67.78618277,-171.33512146,167.57080040,-96.46320430,94.22102034
90.73750688,48.20009188,54.70333531,31.17871592,1.61633306,-1.11580978,1.09214821

>  <Name>
ligand

>  <RI>
0

>  <Rbt.Current_Directory>
/home/itssahil/PROJECTS/Mol_Feturizer/New_Systems/rnas/3IQN

>  <Rbt.Executable>
rbdock ($Id: //depot/dev/client3/rdock/2013.1/src/exe/rbdock.cxx#4 $)

>  <Rbt.Library>
libRbt.so (2013.1, Build901 2013/11/27)

>  <Rbt.Parameter_File>
/export/apps/rDock/src/rDock_2013.1_src/data/scripts/dock_solv.prm

>  <Rbt.Receptor>
prm/pocket_docking_3.prm

>  <SCORE>
-14.9981

>  <SCORE.INTER>
-11.5866

>  <SCORE.INTER.CONST>
1

>  <SCORE.INTER.POLAR>
0

>  <SCORE.INTER.ROT>
7

>  <SCORE.INTER.SOLV>
10.1405

>  <SCORE.INTER.VDW>
-19.3712

>  <SCORE.INTER.norm>
-0.429133

>  <SCORE.INTRA>
-3.41155

>  <SCORE.INTRA.DIHEDRAL>
-0.950762

>  <SCORE.INTRA.DIHEDRAL.0>
10.0365

>  <SCORE.INTRA.POLAR>
0

>  <SCORE.INTRA.POLAR.0>
0

>  <SCORE.INTRA.REPUL>
0

>  <SCORE.INTRA.REPUL.0>
0

>  <SCORE.INTRA.SOLV>
-0.400316

>  <SCORE.INTRA.SOLV.lig_0>
-48.6728

>  <SCORE.INTRA.VDW>
-2.73601

>  <SCORE.INTRA.VDW.0>
-1.10662

>  <SCORE.INTRA.norm>
-0.126354

>  <SCORE.RESTR>
0

>  <SCORE.RESTR.CAVITY>
0

>  <SCORE.RESTR.norm>
0

>  <SCORE.SYSTEM>
0

>  <SCORE.SYSTEM.CONST>
0

>  <SCORE.SYSTEM.DIHEDRAL>
0

>  <SCORE.SYSTEM.SOLV>
0

>  <SCORE.SYSTEM.norm>
0

>  <SCORE.heavy>
27

>  <SCORE.norm>
-0.555487

>  <RMSD>
5.427

$$$$
ligand
 OpenBabel11021811483D
libRbt.so/2013.1/901 2013/11/27
 27 29  0  0  0  0  0  0  0  0999 V2000
   51.3377   53.7115   23.3581 N   0  0  0  0  0  0  0  0  0  0  0  0
   50.0640   53.4765   24.0508 C   0  0  2  0  0  0  0  0  0  0  0  0
   48.9712   54.1511   23.2773 C   0  0  0  0  0  0  0  0  0  0  0  0
   49.1378   55.2811   22.8467 O   0  0  0  0  0  0  0  0  0  0  0  0
   50.1155   54.0550   25.4728 C   0  0  0  0  0  0  0  0  0  0  0  0
   51.1256   53.2590   26.2940 C   0  0  0  0  0  0  0  0  0  0  0  0
   50.4229   51.7598   27.0532 S   0  0  2  0  0  0  0  0  0  0  0  0
   49.7551   50.8088   25.6532 C   0  0  0  0  0  0  0  0  0  0  0  0
   48.8464   52.1372   27.9006 C   0  0  0  0  0  0  0  0  0  0  0  0
   49.2353   53.2143   28.8833 C   0  0  1  0  0  0  0  0  0  0  0  0
   48.0785   53.4222   29.6245 O   0  0  0  0  0  0  0  0  0  0  0  0
   50.2604   52.9665   29.9910 C   0  0  1  0  0  0  0  0  0  0  0  0
   51.5656   53.2760   29.5940 O   0  0  0  0  0  0  0  0  0  0  0  0
   49.6611   53.9610   31.0966 C   0  0  1  0  0  0  0  0  0  0  0  0
   49.5110   55.3191   30.6579 O   0  0  0  0  0  0  0  0  0  0  0  0
   48.3902   53.1445   31.0463 C   0  0  1  0  0  0  0  0  0  0  0  0
   47.9236   53.5599   23.0680 O   0  0  0  0  0  0  0  0  0  0  0  0
   46.2724   52.5510   35.5664 N   0  0  0  0  0  0  0  0  0  0  0  0
   47.5349   52.4041   35.1614 C   0  0  0  0  0  0  0  0  0  0  0  0
   47.9063   52.6647   33.9086 N   0  0  0  0  0  0  0  0  0  0  0  0
   47.0006   52.9659   32.9684 C   0  0  0  0  0  0  0  0  0  0  0  0
   45.6246   53.0676   33.3489 C   0  0  0  0  0  0  0  0  0  0  0  0
   45.2989   52.8512   34.7161 C   0  0  0  0  0  0  0  0  0  0  0  0
   44.0115   52.9471   35.1646 N   0  0  0  0  0  0  0  0  0  0  0  0
   44.9273   53.3712   32.2367 N   0  0  0  0  0  0  0  0  0  0  0  0
   45.7502   53.4583   31.2149 C   0  0  0  0  0  0  0  0  0  0  0  0
   47.0502   53.2348   31.5970 N   0  0  0  0  0  0  0  0  0  0  0  0
  2  1  1  6  0  0  0
  2  3  1  0  0  0  0
  2  5  1  0  0  0  0
  3  4  1  0  0  0  0
  3 17  1  0  0  0  0
  5  6  1  0  0  0  0
  7  6  1  6  0  0  0
  7  8  1  0  0  0  0
  7  9  1  0  0  0  0
 10  9  1  6  0  0  0
 10 11  1  0  0  0  0
 10 12  1  0  0  0  0
 11 16  1  0  0  0  0
 12 13  1  6  0  0  0
 12 14  1  0  0  0  0
 14 15  1  6  0  0  0
 14 16  1  0  0  0  0
 16 27  1  1  0  0  0
 18 19  2  0  0  0  0
 18 23  1  0  0  0  0
 19 20  1  0  0  0  0
 20 21  2  0  0  0  0
 21 22  1  0  0  0  0
 21 27  1  0  0  0  0
 22 23  2  0  0  0  0
 22 25  1  0  0  0  0
 23 24  1  0  0  0  0
 25 26  2  0  0  0  0
 26 27  1  0  0  0  0
M  END
>  <CHROM.1>
-44.03324596,-66.81968199,-85.62791362,56.92916529,-56.96622180,-174.46760299
177.89142069,48.52030432,53.17372658,29.22580048,-1.19672795,-0.15670580
1.68035739

>  <Name>
ligand

>  <RI>
0

>  <Rbt.Current_Directory>
/home/itssahil/PROJECTS/Mol_Feturizer/New_Systems/rnas/3IQN

>  <Rbt.Executable>
rbdock ($Id: //depot/dev/client3/rdock/2013.1/src/exe/rbdock.cxx#4 $)

>  <Rbt.Library>
libRbt.so (2013.1, Build901 2013/11/27)

>  <Rbt.Parameter_File>
/export/apps/rDock/src/rDock_2013.1_src/data/scripts/dock_solv.prm

>  <Rbt.Receptor>
prm/pocket_docking_8.prm

>  <SCORE>
-13.9807

>  <SCORE.INTER>
-11.2142

>  <SCORE.INTER.CONST>
1

>  <SCORE.INTER.POLAR>
0

>  <SCORE.INTER.ROT>
7

>  <SCORE.INTER.SOLV>
8.07814

>  <SCORE.INTER.VDW>
-18.4355

>  <SCORE.INTER.norm>
-0.415342

>  <SCORE.INTRA>
-2.76649

>  <SCORE.INTRA.DIHEDRAL>
-4.26594

>  <SCORE.INTRA.DIHEDRAL.0>
10.0365

>  <SCORE.INTRA.POLAR>
0

>  <SCORE.INTRA.POLAR.0>
0

>  <SCORE.INTRA.REPUL>
0

>  <SCORE.INTRA.REPUL.0>
0

>  <SCORE.INTRA.SOLV>
0.675591

>  <SCORE.INTRA.SOLV.lig_0>
-48.6728

>  <SCORE.INTRA.VDW>
-0.971315

>  <SCORE.INTRA.VDW.0>
-1.10662

>  <SCORE.INTRA.norm>
-0.102463

>  <SCORE.RESTR>
0

>  <SCORE.RESTR.CAVITY>
0

>  <SCORE.RESTR.norm>
0

>  <SCORE.SYSTEM>
0

>  <SCORE.SYSTEM.CONST>
0

>  <SCORE.SYSTEM.DIHEDRAL>
0

>  <SCORE.SYSTEM.SOLV>
0

>  <SCORE.SYSTEM.norm>
0

>  <SCORE.heavy>
27

>  <SCORE.norm>
-0.517804

>  <RMSD>
5.448

$$$$
ligand
 OpenBabel11021811483D
libRbt.so/2013.1/901 2013/11/27
 27 29  0  0  0  0  0  0  0  0999 V2000
   44.5741   56.9342   31.2244 N   0  0  0  0  0  0  0  0  0  0  0  0
   45.8548   57.5152   31.6481 C   0  0  2  0  0  0  0  0  0  0  0  0
   45.9507   58.9062   31.0973 C   0  0  0  0  0  0  0  0  0  0  0  0
   46.0129   59.8594   31.8573 O   0  0  0  0  0  0  0  0  0  0  0  0
   47.0243   56.6733   31.1163 C   0  0  0  0  0  0  0  0  0  0  0  0
   48.3366   57.3328   31.5302 C   0  0  0  0  0  0  0  0  0  0  0  0
   48.4936   57.5702   33.3292 S   0  0  2  0  0  0  0  0  0  0  0  0
   49.8715   58.7434   33.5167 C   0  0  0  0  0  0  0  0  0  0  0  0
   49.2714   56.1117   34.1126 C   0  0  0  0  0  0  0  0  0  0  0  0
   48.3117   54.9943   33.7846 C   0  0  1  0  0  0  0  0  0  0  0  0
   48.6403   54.6453   32.4804 O   0  0  0  0  0  0  0  0  0  0  0  0
   48.3817   53.6365   34.4850 C   0  0  1  0  0  0  0  0  0  0  0  0
   47.5833   53.5821   35.6323 O   0  0  0  0  0  0  0  0  0  0  0  0
   47.8558   52.7196   33.2794 C   0  0  1  0  0  0  0  0  0  0  0  0
   46.5761   53.1018   32.7544 O   0  0  0  0  0  0  0  0  0  0  0  0
   49.0347   53.2169   32.4749 C   0  0  1  0  0  0  0  0  0  0  0  0
   45.9820   59.0782   29.8889 O   0  0  0  0  0  0  0  0  0  0  0  0
   47.0001   52.0892   28.0187 N   0  0  0  0  0  0  0  0  0  0  0  0
   46.4723   52.1184   29.2435 C   0  0  0  0  0  0  0  0  0  0  0  0
   47.1805   52.5007   30.3053 N   0  0  0  0  0  0  0  0  0  0  0  0
   48.4926   52.7529   30.2059 C   0  0  0  0  0  0  0  0  0  0  0  0
   49.1120   52.6670   28.9184 C   0  0  0  0  0  0  0  0  0  0  0  0
   48.2888   52.3265   27.8100 C   0  0  0  0  0  0  0  0  0  0  0  0
   48.7986   52.2410   26.5449 N   0  0  0  0  0  0  0  0  0  0  0  0
   50.4170   52.9571   29.0864 N   0  0  0  0  0  0  0  0  0  0  0  0
   50.6496   53.2060   30.3563 C   0  0  0  0  0  0  0  0  0  0  0  0
   49.5018   53.1131   31.1045 N   0  0  0  0  0  0  0  0  0  0  0  0
  2  1  1  6  0  0  0
  2  3  1  0  0  0  0
  2  5  1  0  0  0  0
  3  4  1  0  0  0  0
  3 17  1  0  0  0  0
  5  6  1  0  0  0  0
  7  6  1  6  0  0  0
  7  8  1  0  0  0  0
  7  9  1  0  0  0  0
 10  9  1  1  0  0  0
 10 11  1  0  0  0  0
 10 12  1  0  0  0  0
 11 16  1  0  0  0  0
 12 13  1  1  0  0  0
 12 14  1  0  0  0  0
 14 15  1  6  0  0  0
 14 16  1  0  0  0  0
 16 27  1  6  0  0  0
 18 19  2  0  0  0  0
 18 23  1  0  0  0  0
 19 20  1  0  0  0  0
 20 21  2  0  0  0  0
 21 22  1  0  0  0  0
 21 27  1  0  0  0  0
 22 23  2  0  0  0  0
 22 25  1  0  0  0  0
 23 24  1  0  0  0  0
 25 26  2  0  0  0  0
 26 27  1  0  0  0  0
M  END
>  <CHROM.1>
117.12759383,177.91684236,56.66327859,-165.08872098,-60.60804920,80.53235517
-89.78073298,47.91404861,55.04614473,31.48514008,2.02328815,-1.14663289,0.94380696

>  <Name>
ligand

>  <RI>
0

>  <Rbt.Current_Directory>
/home/itssahil/PROJECTS/Mol_Feturizer/New_Systems/rnas/3IQN

>  <Rbt.Executable>
rbdock ($Id: //depot/dev/client3/rdock/2013.1/src/exe/rbdock.cxx#4 $)

>  <Rbt.Library>
libRbt.so (2013.1, Build901 2013/11/27)

>  <Rbt.Parameter_File>
/export/apps/rDock/src/rDock_2013.1_src/data/scripts/dock_solv.prm

>  <Rbt.Receptor>
prm/pocket_docking_3.prm

>  <SCORE>
-18.0693

>  <SCORE.INTER>
-14.3913

>  <SCORE.INTER.CONST>
1

>  <SCORE.INTER.POLAR>
0

>  <SCORE.INTER.ROT>
7

>  <SCORE.INTER.SOLV>
11.366

>  <SCORE.INTER.VDW>
-21.6495

>  <SCORE.INTER.norm>
-0.53301

>  <SCORE.INTRA>
-3.67806

>  <SCORE.INTRA.DIHEDRAL>
-4.06808

>  <SCORE.INTRA.DIHEDRAL.0>
10.0365

>  <SCORE.INTRA.POLAR>
0

>  <SCORE.INTRA.POLAR.0>
0

>  <SCORE.INTRA.REPUL>
0

>  <SCORE.INTRA.REPUL.0>
0

>  <SCORE.INTRA.SOLV>
-0.409691

>  <SCORE.INTRA.SOLV.lig_0>
-48.6728

>  <SCORE.INTRA.VDW>
-1.43917

>  <SCORE.INTRA.VDW.0>
-1.10662

>  <SCORE.INTRA.norm>
-0.136224

>  <SCORE.RESTR>
0

>  <SCORE.RESTR.CAVITY>
0

>  <SCORE.RESTR.norm>
0

>  <SCORE.SYSTEM>
0

>  <SCORE.SYSTEM.CONST>
0

>  <SCORE.SYSTEM.DIHEDRAL>
0

>  <SCORE.SYSTEM.SOLV>
0

>  <SCORE.SYSTEM.norm>
0

>  <SCORE.heavy>
27

>  <SCORE.norm>
-0.669235

>  <RMSD>
5.451

$$$$
ligand
 OpenBabel11021811483D
libRbt.so/2013.1/901 2013/11/27
 27 29  0  0  0  0  0  0  0  0999 V2000
   48.8512   59.7145   32.2232 N   0  0  0  0  0  0  0  0  0  0  0  0
   47.7472   59.1354   31.4466 C   0  0  2  0  0  0  0  0  0  0  0  0
   46.4863   59.8677   31.7948 C   0  0  0  0  0  0  0  0  0  0  0  0
   46.4623   61.0878   31.7646 O   0  0  0  0  0  0  0  0  0  0  0  0
   47.5823   57.6457   31.7830 C   0  0  0  0  0  0  0  0  0  0  0  0
   46.6022   57.0211   30.7943 C   0  0  0  0  0  0  0  0  0  0  0  0
   47.0017   57.3772   29.0534 S   0  0  2  0  0  0  0  0  0  0  0  0
   45.4763   58.0987   28.3729 C   0  0  0  0  0  0  0  0  0  0  0  0
   47.0371   55.8379   28.0658 C   0  0  0  0  0  0  0  0  0  0  0  0
   48.3651   55.2242   28.4358 C   0  0  1  0  0  0  0  0  0  0  0  0
   48.2233   54.9101   29.7819 O   0  0  0  0  0  0  0  0  0  0  0  0
   48.8240   53.8830   27.8617 C   0  0  1  0  0  0  0  0  0  0  0  0
   49.5594   54.0277   26.6806 O   0  0  0  0  0  0  0  0  0  0  0  0
   49.6896   53.3731   29.1113 C   0  0  1  0  0  0  0  0  0  0  0  0
   50.7237   54.2765   29.5284 O   0  0  0  0  0  0  0  0  0  0  0  0
   48.4242   53.4499   29.9343 C   0  0  1  0  0  0  0  0  0  0  0  0
   45.4831   59.2386   32.0924 O   0  0  0  0  0  0  0  0  0  0  0  0
   49.6516   55.7193   34.2484 N   0  0  0  0  0  0  0  0  0  0  0  0
   50.0859   55.9086   33.0014 C   0  0  0  0  0  0  0  0  0  0  0  0
   49.5869   55.2258   31.9718 N   0  0  0  0  0  0  0  0  0  0  0  0
   48.7135   54.2281   32.1632 C   0  0  0  0  0  0  0  0  0  0  0  0
   48.2726   53.9485   33.4959 C   0  0  0  0  0  0  0  0  0  0  0  0
   48.7843   54.7600   34.5456 C   0  0  0  0  0  0  0  0  0  0  0  0
   48.4003   54.5701   35.8433 N   0  0  0  0  0  0  0  0  0  0  0  0
   47.4141   52.9128   33.4202 N   0  0  0  0  0  0  0  0  0  0  0  0
   47.2961   52.5335   32.1668 C   0  0  0  0  0  0  0  0  0  0  0  0
   48.0595   53.3127   31.3325 N   0  0  0  0  0  0  0  0  0  0  0  0
  2  1  1  1  0  0  0
  2  3  1  0  0  0  0
  2  5  1  0  0  0  0
  3  4  1  0  0  0  0
  3 17  1  0  0  0  0
  5  6  1  0  0  0  0
  7  6  1  1  0  0  0
  7  8  1  0  0  0  0
  7  9  1  0  0  0  0
 10  9  1  6  0  0  0
 10 11  1  0  0  0  0
 10 12  1  0  0  0  0
 11 16  1  0  0  0  0
 12 13  1  6  0  0  0
 12 14  1  0  0  0  0
 14 15  1  1  0  0  0
 14 16  1  0  0  0  0
 16 27  1  1  0  0  0
 18 19  2  0  0  0  0
 18 23  1  0  0  0  0
 19 20  1  0  0  0  0
 20 21  2  0  0  0  0
 21 22  1  0  0  0  0
 21 27  1  0  0  0  0
 22 23  2  0  0  0  0
 22 25  1  0  0  0  0
 23 24  1  0  0  0  0
 25 26  2  0  0  0  0
 26 27  1  0  0  0  0
M  END
>  <CHROM.1>
50.36501682,-170.22150634,50.53305891,-125.73386199,-77.21033080,65.70224656
-50.08086293,48.03385429,55.95516662,30.98075303,-2.90919287,1.18643613,-1.72548454

>  <Name>
ligand

>  <RI>
0

>  <Rbt.Current_Directory>
/home/itssahil/PROJECTS/Mol_Feturizer/New_Systems/rnas/3IQN

>  <Rbt.Executable>
rbdock ($Id: //depot/dev/client3/rdock/2013.1/src/exe/rbdock.cxx#4 $)

>  <Rbt.Library>
libRbt.so (2013.1, Build901 2013/11/27)

>  <Rbt.Parameter_File>
/export/apps/rDock/src/rDock_2013.1_src/data/scripts/dock_solv.prm

>  <Rbt.Receptor>
prm/pocket_docking_2.prm

>  <SCORE>
-4.82034

>  <SCORE.INTER>
-4.86864

>  <SCORE.INTER.CONST>
1

>  <SCORE.INTER.POLAR>
0

>  <SCORE.INTER.ROT>
7

>  <SCORE.INTER.SOLV>
17.1666

>  <SCORE.INTER.VDW>
-17.2346

>  <SCORE.INTER.norm>
-0.18032

>  <SCORE.INTRA>
-0.777803

>  <SCORE.INTRA.DIHEDRAL>
-1.37121

>  <SCORE.INTRA.DIHEDRAL.0>
10.0365

>  <SCORE.INTRA.POLAR>
0

>  <SCORE.INTRA.POLAR.0>
0

>  <SCORE.INTRA.REPUL>
0

>  <SCORE.INTRA.REPUL.0>
0

>  <SCORE.INTRA.SOLV>
-0.484302

>  <SCORE.INTRA.SOLV.lig_0>
-48.6728

>  <SCORE.INTRA.VDW>
0.149954

>  <SCORE.INTRA.VDW.0>
-1.10662

>  <SCORE.INTRA.norm>
-0.0288075

>  <SCORE.RESTR>
0.826097

>  <SCORE.RESTR.CAVITY>
0.826097

>  <SCORE.RESTR.norm>
0.0305962

>  <SCORE.SYSTEM>
0

>  <SCORE.SYSTEM.CONST>
0

>  <SCORE.SYSTEM.DIHEDRAL>
0

>  <SCORE.SYSTEM.SOLV>
0

>  <SCORE.SYSTEM.norm>
0

>  <SCORE.heavy>
27

>  <SCORE.norm>
-0.178531

>  <RMSD>
5.461

$$$$
ligand
 OpenBabel11021811483D
libRbt.so/2013.1/901 2013/11/27
 27 29  0  0  0  0  0  0  0  0999 V2000
   49.4205   54.1570   30.6966 N   0  0  0  0  0  0  0  0  0  0  0  0
   48.0466   54.6235   30.4683 C   0  0  2  0  0  0  0  0  0  0  0  0
   47.1117   53.7447   31.2436 C   0  0  0  0  0  0  0  0  0  0  0  0
   47.5478   52.7860   31.8609 O   0  0  0  0  0  0  0  0  0  0  0  0
   47.6987   54.5469   28.9742 C   0  0  0  0  0  0  0  0  0  0  0  0
   46.5103   55.4626   28.6957 C   0  0  0  0  0  0  0  0  0  0  0  0
   46.9909   57.1089   28.0823 S   0  0  2  0  0  0  0  0  0  0  0  0
   48.1613   56.7693   26.7314 C   0  0  0  0  0  0  0  0  0  0  0  0
   48.1461   57.9240   29.2429 C   0  0  0  0  0  0  0  0  0  0  0  0
   47.2229   58.5972   30.2286 C   0  0  1  0  0  0  0  0  0  0  0  0
   46.8136   57.5630   31.0613 O   0  0  0  0  0  0  0  0  0  0  0  0
   47.7329   59.6180   31.2469 C   0  0  1  0  0  0  0  0  0  0  0  0
   47.6844   60.9297   30.7631 O   0  0  0  0  0  0  0  0  0  0  0  0
   46.6896   59.3185   32.4269 C   0  0  1  0  0  0  0  0  0  0  0  0
   45.3105   59.4309   32.0459 O   0  0  0  0  0  0  0  0  0  0  0  0
   47.2187   57.9029   32.4456 C   0  0  1  0  0  0  0  0  0  0  0  0
   45.9183   54.0016   31.2668 O   0  0  0  0  0  0  0  0  0  0  0  0
   49.7186   54.2318   34.7999 N   0  0  0  0  0  0  0  0  0  0  0  0
   50.1490   55.3396   34.1941 C   0  0  0  0  0  0  0  0  0  0  0  0
   49.3052   56.2258   33.6668 N   0  0  0  0  0  0  0  0  0  0  0  0
   47.9896   55.9789   33.6124 C   0  0  0  0  0  0  0  0  0  0  0  0
   47.4943   54.7678   34.1926 C   0  0  0  0  0  0  0  0  0  0  0  0
   48.4349   53.8959   34.8068 C   0  0  0  0  0  0  0  0  0  0  0  0
   48.0418   52.7286   35.3990 N   0  0  0  0  0  0  0  0  0  0  0  0
   46.1602   54.7550   34.0046 N   0  0  0  0  0  0  0  0  0  0  0  0
   45.7991   55.8424   33.3598 C   0  0  0  0  0  0  0  0  0  0  0  0
   46.8769   56.6523   33.0984 N   0  0  0  0  0  0  0  0  0  0  0  0
  2  1  1  6  0  0  0
  2  3  1  0  0  0  0
  2  5  1  0  0  0  0
  3  4  1  0  0  0  0
  3 17  1  0  0  0  0
  5  6  1  0  0  0  0
  7  6  1  1  0  0  0
  7  8  1  0  0  0  0
  7  9  1  0  0  0  0
 10  9  1  6  0  0  0
 10 11  1  0  0  0  0
 10 12  1  0  0  0  0
 11 16  1  0  0  0  0
 12 13  1  6  0  0  0
 12 14  1  0  0  0  0
 14 15  1  6  0  0  0
 14 16  1  0  0  0  0
 16 27  1  1  0  0  0
 18 19  2  0  0  0  0
 18 23  1  0  0  0  0
 19 20  1  0  0  0  0
 20 21  2  0  0  0  0
 21 22  1  0  0  0  0
 21 27  1  0  0  0  0
 22 23  2  0  0  0  0
 22 25  1  0  0  0  0
 23 24  1  0  0  0  0
 25 26  2  0  0  0  0
 26 27  1  0  0  0  0
M  END
>  <CHROM.1>
-3.66421239,-160.24270528,96.19991652,49.42017444,-86.29123210,78.29248039
115.31396534,47.50880354,56.18891994,31.55590322,-0.44134116,1.40545039,-1.97814179

>  <Name>
ligand

>  <RI>
0

>  <Rbt.Current_Directory>
/home/itssahil/PROJECTS/Mol_Feturizer/New_Systems/rnas/3IQN

>  <Rbt.Executable>
rbdock ($Id: //depot/dev/client3/rdock/2013.1/src/exe/rbdock.cxx#4 $)

>  <Rbt.Library>
libRbt.so (2013.1, Build901 2013/11/27)

>  <Rbt.Parameter_File>
/export/apps/rDock/src/rDock_2013.1_src/data/scripts/dock_solv.prm

>  <Rbt.Receptor>
prm/pocket_docking_3.prm

>  <SCORE>
-9.29715

>  <SCORE.INTER>
-5.30771

>  <SCORE.INTER.CONST>
1

>  <SCORE.INTER.POLAR>
0

>  <SCORE.INTER.ROT>
7

>  <SCORE.INTER.SOLV>
13.6313

>  <SCORE.INTER.VDW>
-16.3489

>  <SCORE.INTER.norm>
-0.196582

>  <SCORE.INTRA>
-4.05887

>  <SCORE.INTRA.DIHEDRAL>
0.45458

>  <SCORE.INTRA.DIHEDRAL.0>
10.0365

>  <SCORE.INTRA.POLAR>
0

>  <SCORE.INTRA.POLAR.0>
0

>  <SCORE.INTRA.REPUL>
0

>  <SCORE.INTRA.REPUL.0>
0

>  <SCORE.INTRA.SOLV>
0.497769

>  <SCORE.INTRA.SOLV.lig_0>
-48.6728

>  <SCORE.INTRA.VDW>
-4.53505

>  <SCORE.INTRA.VDW.0>
-1.10662

>  <SCORE.INTRA.norm>
-0.150329

>  <SCORE.RESTR>
0.0694419

>  <SCORE.RESTR.CAVITY>
0.0694419

>  <SCORE.RESTR.norm>
0.00257192

>  <SCORE.SYSTEM>
0

>  <SCORE.SYSTEM.CONST>
0

>  <SCORE.SYSTEM.DIHEDRAL>
0

>  <SCORE.SYSTEM.SOLV>
0

>  <SCORE.SYSTEM.norm>
0

>  <SCORE.heavy>
27

>  <SCORE.norm>
-0.344339

>  <RMSD>
5.483

$$$$
ligand
 OpenBabel11021811483D
libRbt.so/2013.1/901 2013/11/27
 27 29  0  0  0  0  0  0  0  0999 V2000
   48.2314   56.2238   29.2271 N   0  0  0  0  0  0  0  0  0  0  0  0
   47.6920   56.2463   30.5930 C   0  0  2  0  0  0  0  0  0  0  0  0
   46.3357   55.6078   30.5786 C   0  0  0  0  0  0  0  0  0  0  0  0
   45.8665   55.1510   31.6088 O   0  0  0  0  0  0  0  0  0  0  0  0
   47.5703   57.6930   31.0946 C   0  0  0  0  0  0  0  0  0  0  0  0
   47.2531   57.6738   32.5870 C   0  0  0  0  0  0  0  0  0  0  0  0
   48.7358   57.7028   33.6444 S   0  0  2  0  0  0  0  0  0  0  0  0
   49.8541   58.8851   32.8307 C   0  0  0  0  0  0  0  0  0  0  0  0
   49.7306   56.1854   33.4121 C   0  0  0  0  0  0  0  0  0  0  0  0
   48.8081   55.0939   33.8965 C   0  0  1  0  0  0  0  0  0  0  0  0
   48.2986   54.5449   32.7261 O   0  0  0  0  0  0  0  0  0  0  0  0
   49.3347   53.8467   34.6081 C   0  0  1  0  0  0  0  0  0  0  0  0
   49.3896   54.0037   35.9970 O   0  0  0  0  0  0  0  0  0  0  0  0
   48.2233   52.8028   34.1124 C   0  0  1  0  0  0  0  0  0  0  0  0
   46.8723   53.1848   34.4096 O   0  0  0  0  0  0  0  0  0  0  0  0
   48.6620   53.1085   32.6988 C   0  0  1  0  0  0  0  0  0  0  0  0
   45.6992   55.5615   29.5377 O   0  0  0  0  0  0  0  0  0  0  0  0
   50.7486   52.8666   28.1319 N   0  0  0  0  0  0  0  0  0  0  0  0
   51.2581   53.2192   29.3132 C   0  0  0  0  0  0  0  0  0  0  0  0
   50.5390   53.1648   30.4336 N   0  0  0  0  0  0  0  0  0  0  0  0
   49.2321   52.8720   30.4017 C   0  0  0  0  0  0  0  0  0  0  0  0
   48.6311   52.5529   29.1425 C   0  0  0  0  0  0  0  0  0  0  0  0
   49.4664   52.5553   27.9916 C   0  0  0  0  0  0  0  0  0  0  0  0
   48.9746   52.2444   26.7550 N   0  0  0  0  0  0  0  0  0  0  0  0
   47.3276   52.3051   29.3770 N   0  0  0  0  0  0  0  0  0  0  0  0
   47.0791   52.4491   30.6601 C   0  0  0  0  0  0  0  0  0  0  0  0
   48.2143   52.7840   31.3567 N   0  0  0  0  0  0  0  0  0  0  0  0
  2  1  1  6  0  0  0
  2  3  1  0  0  0  0
  2  5  1  0  0  0  0
  3  4  1  0  0  0  0
  3 17  1  0  0  0  0
  5  6  1  0  0  0  0
  7  6  1  6  0  0  0
  7  8  1  0  0  0  0
  7  9  1  0  0  0  0
 10  9  1  6  0  0  0
 10 11  1  0  0  0  0
 10 12  1  0  0  0  0
 11 16  1  0  0  0  0
 12 13  1  1  0  0  0
 12 14  1  0  0  0  0
 14 15  1  6  0  0  0
 14 16  1  0  0  0  0
 16 27  1  6  0  0  0
 18 19  2  0  0  0  0
 18 23  1  0  0  0  0
 19 20  1  0  0  0  0
 20 21  2  0  0  0  0
 21 22  1  0  0  0  0
 21 27  1  0  0  0  0
 22 23  2  0  0  0  0
 22 25  1  0  0  0  0
 23 24  1  0  0  0  0
 25 26  2  0  0  0  0
 26 27  1  0  0  0  0
M  END
>  <CHROM.1>
158.02147313,-169.82835634,90.72581937,40.67163742,-63.68181735,101.03240525
94.29392596,48.42338592,54.66810789,31.55085798,1.27901106,1.32479976,-1.90222748

>  <Name>
ligand

>  <RI>
0

>  <Rbt.Current_Directory>
/home/itssahil/PROJECTS/Mol_Feturizer/New_Systems/rnas/3IQN

>  <Rbt.Executable>
rbdock ($Id: //depot/dev/client3/rdock/2013.1/src/exe/rbdock.cxx#4 $)

>  <Rbt.Library>
libRbt.so (2013.1, Build901 2013/11/27)

>  <Rbt.Parameter_File>
/export/apps/rDock/src/rDock_2013.1_src/data/scripts/dock_solv.prm

>  <Rbt.Receptor>
prm/pocket_docking_5.prm

>  <SCORE>
-18.251

>  <SCORE.INTER>
-14.7688

>  <SCORE.INTER.CONST>
1

>  <SCORE.INTER.POLAR>
0

>  <SCORE.INTER.ROT>
7

>  <SCORE.INTER.SOLV>
7.82886

>  <SCORE.INTER.VDW>
-20.7221

>  <SCORE.INTER.norm>
-0.546991

>  <SCORE.INTRA>
-3.52509

>  <SCORE.INTRA.DIHEDRAL>
0.522094

>  <SCORE.INTRA.DIHEDRAL.0>
10.0365

>  <SCORE.INTRA.POLAR>
0

>  <SCORE.INTRA.POLAR.0>
0

>  <SCORE.INTRA.REPUL>
0

>  <SCORE.INTRA.REPUL.0>
0

>  <SCORE.INTRA.SOLV>
0.242769

>  <SCORE.INTRA.SOLV.lig_0>
-48.6728

>  <SCORE.INTRA.VDW>
-3.90752

>  <SCORE.INTRA.VDW.0>
-1.10662

>  <SCORE.INTRA.norm>
-0.130559

>  <SCORE.RESTR>
0.0428642

>  <SCORE.RESTR.CAVITY>
0.0428642

>  <SCORE.RESTR.norm>
0.00158756

>  <SCORE.SYSTEM>
0

>  <SCORE.SYSTEM.CONST>
0

>  <SCORE.SYSTEM.DIHEDRAL>
0

>  <SCORE.SYSTEM.SOLV>
0

>  <SCORE.SYSTEM.norm>
0

>  <SCORE.heavy>
27

>  <SCORE.norm>
-0.675962

>  <RMSD>
5.487

$$$$
ligand
 OpenBabel11021811483D
libRbt.so/2013.1/901 2013/11/27
 27 29  0  0  0  0  0  0  0  0999 V2000
   43.8754   55.5451   33.1113 N   0  0  0  0  0  0  0  0  0  0  0  0
   44.9216   56.3297   32.4427 C   0  0  2  0  0  0  0  0  0  0  0  0
   45.3867   55.5706   31.2365 C   0  0  0  0  0  0  0  0  0  0  0  0
   45.6073   56.1626   30.1920 O   0  0  0  0  0  0  0  0  0  0  0  0
   46.1075   56.5562   33.3924 C   0  0  0  0  0  0  0  0  0  0  0  0
   47.1341   57.4461   32.6979 C   0  0  0  0  0  0  0  0  0  0  0  0
   48.6412   57.7204   33.6832 S   0  0  2  0  0  0  0  0  0  0  0  0
   49.6656   58.8178   32.6552 C   0  0  0  0  0  0  0  0  0  0  0  0
   49.7162   56.2407   33.6538 C   0  0  0  0  0  0  0  0  0  0  0  0
   48.7980   55.1410   34.1278 C   0  0  1  0  0  0  0  0  0  0  0  0
   48.2763   54.6134   32.9530 O   0  0  0  0  0  0  0  0  0  0  0  0
   49.3310   53.8811   34.8115 C   0  0  1  0  0  0  0  0  0  0  0  0
   49.4001   54.0131   36.2024 O   0  0  0  0  0  0  0  0  0  0  0  0
   48.2140   52.8468   34.3085 C   0  0  1  0  0  0  0  0  0  0  0  0
   46.8662   53.2239   34.6261 O   0  0  0  0  0  0  0  0  0  0  0  0
   48.6385   53.1776   32.8962 C   0  0  1  0  0  0  0  0  0  0  0  0
   45.5580   54.3639   31.3093 O   0  0  0  0  0  0  0  0  0  0  0  0
   50.1193   54.2668   28.2176 N   0  0  0  0  0  0  0  0  0  0  0  0
   50.6093   54.6349   29.4024 C   0  0  0  0  0  0  0  0  0  0  0  0
   50.0935   54.1871   30.5464 N   0  0  0  0  0  0  0  0  0  0  0  0
   48.9783   53.4448   30.5572 C   0  0  0  0  0  0  0  0  0  0  0  0
   48.3823   53.0838   29.3070 C   0  0  0  0  0  0  0  0  0  0  0  0
   49.0208   53.5295   28.1170 C   0  0  0  0  0  0  0  0  0  0  0  0
   48.5261   53.2131   26.8830 N   0  0  0  0  0  0  0  0  0  0  0  0
   47.2862   52.3521   29.5871 N   0  0  0  0  0  0  0  0  0  0  0  0
   47.1572   52.2392   30.8907 C   0  0  0  0  0  0  0  0  0  0  0  0
   48.1770   52.8774   31.5531 N   0  0  0  0  0  0  0  0  0  0  0  0
  2  1  1  1  0  0  0
  2  3  1  0  0  0  0
  2  5  1  0  0  0  0
  3  4  1  0  0  0  0
  3 17  1  0  0  0  0
  5  6  1  0  0  0  0
  7  6  1  6  0  0  0
  7  8  1  0  0  0  0
  7  9  1  0  0  0  0
 10  9  1  6  0  0  0
 10 11  1  0  0  0  0
 10 12  1  0  0  0  0
 11 16  1  0  0  0  0
 12 13  1  1  0  0  0
 12 14  1  0  0  0  0
 14 15  1  6  0  0  0
 14 16  1  0  0  0  0
 16 27  1  6  0  0  0
 18 19  2  0  0  0  0
 18 23  1  0  0  0  0
 19 20  1  0  0  0  0
 20 21  2  0  0  0  0
 21 22  1  0  0  0  0
 21 27  1  0  0  0  0
 22 23  2  0  0  0  0
 22 25  1  0  0  0  0
 23 24  1  0  0  0  0
 25 26  2  0  0  0  0
 26 27  1  0  0  0  0
M  END
>  <CHROM.1>
138.87666713,-176.47473507,-176.79816423,-179.02679880,-54.84914845,92.77493313
71.51420346,47.95021835,54.82861434,31.98242403,1.70837865,-0.42961424,1.16525208

>  <Name>
ligand

>  <RI>
0

>  <Rbt.Current_Directory>
/home/itssahil/PROJECTS/Mol_Feturizer/New_Systems/rnas/3IQN

>  <Rbt.Executable>
rbdock ($Id: //depot/dev/client3/rdock/2013.1/src/exe/rbdock.cxx#4 $)

>  <Rbt.Library>
libRbt.so (2013.1, Build901 2013/11/27)

>  <Rbt.Parameter_File>
/export/apps/rDock/src/rDock_2013.1_src/data/scripts/dock_solv.prm

>  <Rbt.Receptor>
prm/pocket_docking_5.prm

>  <SCORE>
-20.4991

>  <SCORE.INTER>
-15.5658

>  <SCORE.INTER.CONST>
1

>  <SCORE.INTER.POLAR>
0

>  <SCORE.INTER.ROT>
7

>  <SCORE.INTER.SOLV>
9.63389

>  <SCORE.INTER.VDW>
-21.8552

>  <SCORE.INTER.norm>
-0.576511

>  <SCORE.INTRA>
-4.93336

>  <SCORE.INTRA.DIHEDRAL>
-3.51335

>  <SCORE.INTRA.DIHEDRAL.0>
10.0365

>  <SCORE.INTRA.POLAR>
0

>  <SCORE.INTRA.POLAR.0>
0

>  <SCORE.INTRA.REPUL>
0

>  <SCORE.INTRA.REPUL.0>
0

>  <SCORE.INTRA.SOLV>
-0.493503

>  <SCORE.INTRA.SOLV.lig_0>
-48.6728

>  <SCORE.INTRA.VDW>
-2.92993

>  <SCORE.INTRA.VDW.0>
-1.10662

>  <SCORE.INTRA.norm>
-0.182717

>  <SCORE.RESTR>
0

>  <SCORE.RESTR.CAVITY>
0

>  <SCORE.RESTR.norm>
0

>  <SCORE.SYSTEM>
0

>  <SCORE.SYSTEM.CONST>
0

>  <SCORE.SYSTEM.DIHEDRAL>
0

>  <SCORE.SYSTEM.SOLV>
0

>  <SCORE.SYSTEM.norm>
0

>  <SCORE.heavy>
27

>  <SCORE.norm>
-0.759228

>  <RMSD>
5.497

$$$$
ligand
 OpenBabel11021811483D
libRbt.so/2013.1/901 2013/11/27
 27 29  0  0  0  0  0  0  0  0999 V2000
   44.7911   51.9276   28.0018 N   0  0  0  0  0  0  0  0  0  0  0  0
   45.8671   52.7975   27.5090 C   0  0  2  0  0  0  0  0  0  0  0  0
   47.1765   52.0977   27.7171 C   0  0  0  0  0  0  0  0  0  0  0  0
   47.8440   51.7554   26.7541 O   0  0  0  0  0  0  0  0  0  0  0  0
   45.8712   54.1279   28.2768 C   0  0  0  0  0  0  0  0  0  0  0  0
   46.6524   55.1615   27.4708 C   0  0  0  0  0  0  0  0  0  0  0  0
   46.7277   56.7974   28.2680 S   0  0  2  0  0  0  0  0  0  0  0  0
   47.4706   57.8840   27.0119 C   0  0  0  0  0  0  0  0  0  0  0  0
   48.0726   56.8564   29.5065 C   0  0  0  0  0  0  0  0  0  0  0  0
   47.6285   57.9540   30.4420 C   0  0  1  0  0  0  0  0  0  0  0  0
   46.6606   57.3464   31.2324 O   0  0  0  0  0  0  0  0  0  0  0  0
   48.5609   58.5369   31.5049 C   0  0  1  0  0  0  0  0  0  0  0  0
   49.2854   59.6387   31.0381 O   0  0  0  0  0  0  0  0  0  0  0  0
   47.4606   58.9010   32.6128 C   0  0  1  0  0  0  0  0  0  0  0  0
   46.4076   59.7581   32.1478 O   0  0  0  0  0  0  0  0  0  0  0  0
   47.1027   57.4329   32.6442 C   0  0  1  0  0  0  0  0  0  0  0  0
   47.5770   51.8870   28.8511 O   0  0  0  0  0  0  0  0  0  0  0  0
   47.0056   53.4962   35.7685 N   0  0  0  0  0  0  0  0  0  0  0  0
   48.0261   54.1679   35.2328 C   0  0  0  0  0  0  0  0  0  0  0  0
   47.8360   55.2337   34.4561 N   0  0  0  0  0  0  0  0  0  0  0  0
   46.6046   55.6014   34.0775 C   0  0  0  0  0  0  0  0  0  0  0  0
   45.4843   54.8640   34.5775 C   0  0  0  0  0  0  0  0  0  0  0  0
   45.7466   53.7820   35.4623 C   0  0  0  0  0  0  0  0  0  0  0  0
   44.7322   53.0391   35.9978 N   0  0  0  0  0  0  0  0  0  0  0  0
   44.3762   55.4220   34.0521 N   0  0  0  0  0  0  0  0  0  0  0  0
   44.7185   56.4261   33.2754 C   0  0  0  0  0  0  0  0  0  0  0  0
   46.0801   56.6043   33.2562 N   0  0  0  0  0  0  0  0  0  0  0  0
  2  1  1  1  0  0  0
  2  3  1  0  0  0  0
  2  5  1  0  0  0  0
  3  4  1  0  0  0  0
  3 17  1  0  0  0  0
  5  6  1  0  0  0  0
  7  6  1  6  0  0  0
  7  8  1  0  0  0  0
  7  9  1  0  0  0  0
 10  9  1  6  0  0  0
 10 11  1  0  0  0  0
 10 12  1  0  0  0  0
 11 16  1  0  0  0  0
 12 13  1  6  0  0  0
 12 14  1  0  0  0  0
 14 15  1  6  0  0  0
 14 16  1  0  0  0  0
 16 27  1  1  0  0  0
 18 19  2  0  0  0  0
 18 23  1  0  0  0  0
 19 20  1  0  0  0  0
 20 21  2  0  0  0  0
 21 22  1  0  0  0  0
 21 27  1  0  0  0  0
 22 23  2  0  0  0  0
 22 25  1  0  0  0  0
 23 24  1  0  0  0  0
 25 26  2  0  0  0  0
 26 27  1  0  0  0  0
M  END
>  <CHROM.1>
114.51939066,-161.41908308,179.67897125,-171.56729460,-156.03799973,78.06937120
128.67544706,46.76085985,55.62719255,31.12877101,1.29057137,-1.31458047,-2.06509686

>  <Name>
ligand

>  <RI>
0

>  <Rbt.Current_Directory>
/home/itssahil/PROJECTS/Mol_Feturizer/New_Systems/rnas/3IQN

>  <Rbt.Executable>
rbdock ($Id: //depot/dev/client3/rdock/2013.1/src/exe/rbdock.cxx#4 $)

>  <Rbt.Library>
libRbt.so (2013.1, Build901 2013/11/27)

>  <Rbt.Parameter_File>
/export/apps/rDock/src/rDock_2013.1_src/data/scripts/dock_solv.prm

>  <Rbt.Receptor>
prm/pocket_docking_5.prm

>  <SCORE>
-13.2419

>  <SCORE.INTER>
-10.4638

>  <SCORE.INTER.CONST>
1

>  <SCORE.INTER.POLAR>
0

>  <SCORE.INTER.ROT>
7

>  <SCORE.INTER.SOLV>
15.7097

>  <SCORE.INTER.VDW>
-20.4791

>  <SCORE.INTER.norm>
-0.387548

>  <SCORE.INTRA>
-2.77808

>  <SCORE.INTRA.DIHEDRAL>
-1.62772

>  <SCORE.INTRA.DIHEDRAL.0>
10.0365

>  <SCORE.INTRA.POLAR>
0

>  <SCORE.INTRA.POLAR.0>
0

>  <SCORE.INTRA.REPUL>
0

>  <SCORE.INTRA.REPUL.0>
0

>  <SCORE.INTRA.SOLV>
-1.21506

>  <SCORE.INTRA.SOLV.lig_0>
-48.6728

>  <SCORE.INTRA.VDW>
-1.35669

>  <SCORE.INTRA.VDW.0>
-1.10662

>  <SCORE.INTRA.norm>
-0.102892

>  <SCORE.RESTR>
0

>  <SCORE.RESTR.CAVITY>
0

>  <SCORE.RESTR.norm>
0

>  <SCORE.SYSTEM>
0

>  <SCORE.SYSTEM.CONST>
0

>  <SCORE.SYSTEM.DIHEDRAL>
0

>  <SCORE.SYSTEM.SOLV>
0

>  <SCORE.SYSTEM.norm>
0

>  <SCORE.heavy>
27

>  <SCORE.norm>
-0.49044

>  <RMSD>
5.512

$$$$
ligand
 OpenBabel11021811483D
libRbt.so/2013.1/901 2013/11/27
 27 29  0  0  0  0  0  0  0  0999 V2000
   44.4799   56.4206   31.6508 N   0  0  0  0  0  0  0  0  0  0  0  0
   45.7633   57.0839   31.9161 C   0  0  2  0  0  0  0  0  0  0  0  0
   45.7172   58.4609   31.3251 C   0  0  0  0  0  0  0  0  0  0  0  0
   45.7847   58.6071   30.1150 O   0  0  0  0  0  0  0  0  0  0  0  0
   46.9147   56.2924   31.2781 C   0  0  0  0  0  0  0  0  0  0  0  0
   48.2163   57.0624   31.4816 C   0  0  0  0  0  0  0  0  0  0  0  0
   48.6001   57.3890   33.2318 S   0  0  2  0  0  0  0  0  0  0  0  0
   49.8164   58.7414   33.1881 C   0  0  0  0  0  0  0  0  0  0  0  0
   49.6768   56.0787   33.9174 C   0  0  0  0  0  0  0  0  0  0  0  0
   48.6953   55.0073   34.3245 C   0  0  1  0  0  0  0  0  0  0  0  0
   48.2001   54.5327   33.1160 O   0  0  0  0  0  0  0  0  0  0  0  0
   49.1474   53.7086   34.9938 C   0  0  1  0  0  0  0  0  0  0  0  0
   49.1654   53.8016   36.3895 O   0  0  0  0  0  0  0  0  0  0  0  0
   48.0096   52.7361   34.4190 C   0  0  1  0  0  0  0  0  0  0  0  0
   46.6670   53.1620   34.6935 O   0  0  0  0  0  0  0  0  0  0  0  0
   48.5044   53.0848   33.0341 C   0  0  1  0  0  0  0  0  0  0  0  0
   45.5965   59.4305   32.0573 O   0  0  0  0  0  0  0  0  0  0  0  0
   50.6976   53.0669   28.5110 N   0  0  0  0  0  0  0  0  0  0  0  0
   51.1824   53.3484   29.7215 C   0  0  0  0  0  0  0  0  0  0  0  0
   50.4360   53.2417   30.8200 N   0  0  0  0  0  0  0  0  0  0  0  0
   49.1271   52.9668   30.7415 C   0  0  0  0  0  0  0  0  0  0  0  0
   48.5532   52.7240   29.4530 C   0  0  0  0  0  0  0  0  0  0  0  0
   49.4159   52.7790   28.3239 C   0  0  0  0  0  0  0  0  0  0  0  0
   48.9507   52.5419   27.0610 N   0  0  0  0  0  0  0  0  0  0  0  0
   47.2419   52.4796   29.6430 N   0  0  0  0  0  0  0  0  0  0  0  0
   46.9641   52.5564   30.9258 C   0  0  0  0  0  0  0  0  0  0  0  0
   48.0857   52.8392   31.6661 N   0  0  0  0  0  0  0  0  0  0  0  0
  2  1  1  6  0  0  0
  2  3  1  0  0  0  0
  2  5  1  0  0  0  0
  3  4  1  0  0  0  0
  3 17  1  0  0  0  0
  5  6  1  0  0  0  0
  7  6  1  6  0  0  0
  7  8  1  0  0  0  0
  7  9  1  0  0  0  0
 10  9  1  6  0  0  0
 10 11  1  0  0  0  0
 10 12  1  0  0  0  0
 11 16  1  0  0  0  0
 12 13  1  1  0  0  0
 12 14  1  0  0  0  0
 14 15  1  6  0  0  0
 14 16  1  0  0  0  0
 16 27  1  6  0  0  0
 18 19  2  0  0  0  0
 18 23  1  0  0  0  0
 19 20  1  0  0  0  0
 20 21  2  0  0  0  0
 21 22  1  0  0  0  0
 21 27  1  0  0  0  0
 22 23  2  0  0  0  0
 22 25  1  0  0  0  0
 23 24  1  0  0  0  0
 25 26  2  0  0  0  0
 26 27  1  0  0  0  0
M  END
>  <CHROM.1>
-73.40382098,175.75524258,57.78513222,-161.52608872,-84.58786139,68.57370932
92.40876739,48.12325049,55.01465604,31.91417902,2.48120606,-1.09597106,1.36619768

>  <Name>
ligand

>  <RI>
0

>  <Rbt.Current_Directory>
/home/itssahil/PROJECTS/Mol_Feturizer/New_Systems/rnas/3IQN

>  <Rbt.Executable>
rbdock ($Id: //depot/dev/client3/rdock/2013.1/src/exe/rbdock.cxx#4 $)

>  <Rbt.Library>
libRbt.so (2013.1, Build901 2013/11/27)

>  <Rbt.Parameter_File>
/export/apps/rDock/src/rDock_2013.1_src/data/scripts/dock_solv.prm

>  <Rbt.Receptor>
prm/pocket_docking_3.prm

>  <SCORE>
-20.1593

>  <SCORE.INTER>
-16.0202

>  <SCORE.INTER.CONST>
1

>  <SCORE.INTER.POLAR>
0

>  <SCORE.INTER.ROT>
7

>  <SCORE.INTER.SOLV>
10.3427

>  <SCORE.INTER.VDW>
-22.3943

>  <SCORE.INTER.norm>
-0.59334

>  <SCORE.INTRA>
-4.13908

>  <SCORE.INTRA.DIHEDRAL>
-3.94085

>  <SCORE.INTRA.DIHEDRAL.0>
10.0365

>  <SCORE.INTRA.POLAR>
0

>  <SCORE.INTRA.POLAR.0>
0

>  <SCORE.INTRA.REPUL>
0

>  <SCORE.INTRA.REPUL.0>
0

>  <SCORE.INTRA.SOLV>
-0.741481

>  <SCORE.INTRA.SOLV.lig_0>
-48.6728

>  <SCORE.INTRA.VDW>
-1.79792

>  <SCORE.INTRA.VDW.0>
-1.10662

>  <SCORE.INTRA.norm>
-0.153299

>  <SCORE.RESTR>
0

>  <SCORE.RESTR.CAVITY>
0

>  <SCORE.RESTR.norm>
0

>  <SCORE.SYSTEM>
0

>  <SCORE.SYSTEM.CONST>
0

>  <SCORE.SYSTEM.DIHEDRAL>
0

>  <SCORE.SYSTEM.SOLV>
0

>  <SCORE.SYSTEM.norm>
0

>  <SCORE.heavy>
27

>  <SCORE.norm>
-0.746639

>  <RMSD>
5.517

$$$$
ligand
 OpenBabel11021811483D
libRbt.so/2013.1/901 2013/11/27
 27 29  0  0  0  0  0  0  0  0999 V2000
   45.2708   56.8697   28.9955 N   0  0  0  0  0  0  0  0  0  0  0  0
   46.3767   57.6727   29.5336 C   0  0  2  0  0  0  0  0  0  0  0  0
   47.6103   57.3780   28.7344 C   0  0  0  0  0  0  0  0  0  0  0  0
   47.9255   56.2213   28.5046 O   0  0  0  0  0  0  0  0  0  0  0  0
   46.6258   57.3178   31.0072 C   0  0  0  0  0  0  0  0  0  0  0  0
   47.7319   58.2166   31.5521 C   0  0  0  0  0  0  0  0  0  0  0  0
   48.3398   57.7065   33.1915 S   0  0  2  0  0  0  0  0  0  0  0  0
   49.8943   58.6267   33.4090 C   0  0  0  0  0  0  0  0  0  0  0  0
   49.0329   56.0148   33.1311 C   0  0  0  0  0  0  0  0  0  0  0  0
   47.8194   55.1403   33.3311 C   0  0  1  0  0  0  0  0  0  0  0  0
   47.6374   54.5352   32.0936 O   0  0  0  0  0  0  0  0  0  0  0  0
   47.8428   53.9246   34.2587 C   0  0  1  0  0  0  0  0  0  0  0  0
   47.4600   54.2395   35.5668 O   0  0  0  0  0  0  0  0  0  0  0  0
   46.7893   53.0059   33.4734 C   0  0  1  0  0  0  0  0  0  0  0  0
   45.5099   53.6186   33.2562 O   0  0  0  0  0  0  0  0  0  0  0  0
   47.7212   53.0682   32.2852 C   0  0  1  0  0  0  0  0  0  0  0  0
   48.2866   58.2985   28.3030 O   0  0  0  0  0  0  0  0  0  0  0  0
   50.9919   52.9342   28.4703 N   0  0  0  0  0  0  0  0  0  0  0  0
   51.1189   53.3794   29.7213 C   0  0  0  0  0  0  0  0  0  0  0  0
   50.1303   53.2751   30.6085 N   0  0  0  0  0  0  0  0  0  0  0  0
   48.9199   52.8307   30.2446 C   0  0  0  0  0  0  0  0  0  0  0  0
   48.7233   52.4056   28.8920 C   0  0  0  0  0  0  0  0  0  0  0  0
   49.8368   52.4710   28.0099 C   0  0  0  0  0  0  0  0  0  0  0  0
   49.7376   52.0676   26.7080 N   0  0  0  0  0  0  0  0  0  0  0  0
   47.4387   52.0144   28.7824 N   0  0  0  0  0  0  0  0  0  0  0  0
   46.8348   52.1670   29.9403 C   0  0  0  0  0  0  0  0  0  0  0  0
   47.6945   52.6532   30.8945 N   0  0  0  0  0  0  0  0  0  0  0  0
  2  1  1  6  0  0  0
  2  3  1  0  0  0  0
  2  5  1  0  0  0  0
  3  4  1  0  0  0  0
  3 17  1  0  0  0  0
  5  6  1  0  0  0  0
  7  6  1  6  0  0  0
  7  8  1  0  0  0  0
  7  9  1  0  0  0  0
 10  9  1  6  0  0  0
 10 11  1  0  0  0  0
 10 12  1  0  0  0  0
 11 16  1  0  0  0  0
 12 13  1  1  0  0  0
 12 14  1  0  0  0  0
 14 15  1  6  0  0  0
 14 16  1  0  0  0  0
 16 27  1  6  0  0  0
 18 19  2  0  0  0  0
 18 23  1  0  0  0  0
 19 20  1  0  0  0  0
 20 21  2  0  0  0  0
 21 22  1  0  0  0  0
 21 27  1  0  0  0  0
 22 23  2  0  0  0  0
 22 25  1  0  0  0  0
 23 24  1  0  0  0  0
 25 26  2  0  0  0  0
 26 27  1  0  0  0  0
M  END
>  <CHROM.1>
-47.93171790,-177.24296173,-169.51198316,165.59147015,-85.74804341,110.30857240
77.38508277,48.10583013,54.94899165,31.00811206,-2.98313955,-1.35037836,2.55357897

>  <Name>
ligand

>  <RI>
0

>  <Rbt.Current_Directory>
/home/itssahil/PROJECTS/Mol_Feturizer/New_Systems/rnas/3IQN

>  <Rbt.Executable>
rbdock ($Id: //depot/dev/client3/rdock/2013.1/src/exe/rbdock.cxx#4 $)

>  <Rbt.Library>
libRbt.so (2013.1, Build901 2013/11/27)

>  <Rbt.Parameter_File>
/export/apps/rDock/src/rDock_2013.1_src/data/scripts/dock_solv.prm

>  <Rbt.Receptor>
prm/pocket_docking_4.prm

>  <SCORE>
-16.417

>  <SCORE.INTER>
-13.1684

>  <SCORE.INTER.CONST>
1

>  <SCORE.INTER.POLAR>
0

>  <SCORE.INTER.ROT>
7

>  <SCORE.INTER.SOLV>
8.06128

>  <SCORE.INTER.VDW>
-19.7327

>  <SCORE.INTER.norm>
-0.487719

>  <SCORE.INTRA>
-3.24863

>  <SCORE.INTRA.DIHEDRAL>
-0.538586

>  <SCORE.INTRA.DIHEDRAL.0>
10.0365

>  <SCORE.INTRA.POLAR>
0

>  <SCORE.INTRA.POLAR.0>
0

>  <SCORE.INTRA.REPUL>
0

>  <SCORE.INTRA.REPUL.0>
0

>  <SCORE.INTRA.SOLV>
-1.03502

>  <SCORE.INTRA.SOLV.lig_0>
-48.6728

>  <SCORE.INTRA.VDW>
-2.46183

>  <SCORE.INTRA.VDW.0>
-1.10662

>  <SCORE.INTRA.norm>
-0.12032

>  <SCORE.RESTR>
0

>  <SCORE.RESTR.CAVITY>
0

>  <SCORE.RESTR.norm>
0

>  <SCORE.SYSTEM>
0

>  <SCORE.SYSTEM.CONST>
0

>  <SCORE.SYSTEM.DIHEDRAL>
0

>  <SCORE.SYSTEM.SOLV>
0

>  <SCORE.SYSTEM.norm>
0

>  <SCORE.heavy>
27

>  <SCORE.norm>
-0.608039

>  <RMSD>
5.534

$$$$
ligand
 OpenBabel11021811483D
libRbt.so/2013.1/901 2013/11/27
 27 29  0  0  0  0  0  0  0  0999 V2000
   46.5124   56.5828   28.5742 N   0  0  0  0  0  0  0  0  0  0  0  0
   47.6334   56.8838   27.6742 C   0  0  2  0  0  0  0  0  0  0  0  0
   47.7872   55.7461   26.7101 C   0  0  0  0  0  0  0  0  0  0  0  0
   47.9535   55.9726   25.5222 O   0  0  0  0  0  0  0  0  0  0  0  0
   48.9319   57.0520   28.4774 C   0  0  0  0  0  0  0  0  0  0  0  0
   48.8414   58.3332   29.3011 C   0  0  0  0  0  0  0  0  0  0  0  0
   47.8889   58.1398   30.8415 S   0  0  2  0  0  0  0  0  0  0  0  0
   47.7667   59.8245   31.5176 C   0  0  0  0  0  0  0  0  0  0  0  0
   48.9207   57.3949   32.1554 C   0  0  0  0  0  0  0  0  0  0  0  0
   48.6160   55.9218   32.0363 C   0  0  1  0  0  0  0  0  0  0  0  0
   49.1136   55.5790   30.7851 O   0  0  0  0  0  0  0  0  0  0  0  0
   49.2973   54.8806   32.9254 C   0  0  1  0  0  0  0  0  0  0  0  0
   48.5823   54.6275   34.1008 O   0  0  0  0  0  0  0  0  0  0  0  0
   49.3085   53.6554   31.8913 C   0  0  1  0  0  0  0  0  0  0  0  0
   48.0185   53.3037   31.3700 O   0  0  0  0  0  0  0  0  0  0  0  0
   50.1372   54.5242   30.9734 C   0  0  1  0  0  0  0  0  0  0  0  0
   47.7610   54.5966   27.1208 O   0  0  0  0  0  0  0  0  0  0  0  0
   49.7666   51.3056   27.1299 N   0  0  0  0  0  0  0  0  0  0  0  0
   49.2791   51.2527   28.3705 C   0  0  0  0  0  0  0  0  0  0  0  0
   49.4499   52.2510   29.2363 N   0  0  0  0  0  0  0  0  0  0  0  0
   50.2283   53.2993   28.9365 C   0  0  0  0  0  0  0  0  0  0  0  0
   50.8255   53.3611   27.6372 C   0  0  0  0  0  0  0  0  0  0  0  0
   50.5462   52.3021   26.7301 C   0  0  0  0  0  0  0  0  0  0  0  0
   51.0625   52.2945   25.4648 N   0  0  0  0  0  0  0  0  0  0  0  0
   51.5535   54.4938   27.5891 N   0  0  0  0  0  0  0  0  0  0  0  0
   51.4591   55.1234   28.7395 C   0  0  0  0  0  0  0  0  0  0  0  0
   50.6429   54.4499   29.6148 N   0  0  0  0  0  0  0  0  0  0  0  0
  2  1  1  1  0  0  0
  2  3  1  0  0  0  0
  2  5  1  0  0  0  0
  3  4  1  0  0  0  0
  3 17  1  0  0  0  0
  5  6  1  0  0  0  0
  7  6  1  6  0  0  0
  7  8  1  0  0  0  0
  7  9  1  0  0  0  0
 10  9  1  1  0  0  0
 10 11  1  0  0  0  0
 10 12  1  0  0  0  0
 11 16  1  0  0  0  0
 12 13  1  1  0  0  0
 12 14  1  0  0  0  0
 14 15  1  6  0  0  0
 14 16  1  0  0  0  0
 16 27  1  6  0  0  0
 18 19  2  0  0  0  0
 18 23  1  0  0  0  0
 19 20  1  0  0  0  0
 20 21  2  0  0  0  0
 21 22  1  0  0  0  0
 21 27  1  0  0  0  0
 22 23  2  0  0  0  0
 22 25  1  0  0  0  0
 23 24  1  0  0  0  0
 25 26  2  0  0  0  0
 26 27  1  0  0  0  0
M  END
>  <CHROM.1>
134.89853824,-69.10169265,80.67777280,-173.47093633,-93.89461401,65.06224630
-106.44244564,49.07106363,55.13068036,29.42273757,2.38589034,-1.18665228
1.55213804

>  <Name>
ligand

>  <RI>
0

>  <Rbt.Current_Directory>
/home/itssahil/PROJECTS/Mol_Feturizer/New_Systems/rnas/3IQN

>  <Rbt.Executable>
rbdock ($Id: //depot/dev/client3/rdock/2013.1/src/exe/rbdock.cxx#4 $)

>  <Rbt.Library>
libRbt.so (2013.1, Build901 2013/11/27)

>  <Rbt.Parameter_File>
/export/apps/rDock/src/rDock_2013.1_src/data/scripts/dock_solv.prm

>  <Rbt.Receptor>
prm/pocket_docking_5.prm

>  <SCORE>
-15.9206

>  <SCORE.INTER>
-12.464

>  <SCORE.INTER.CONST>
1

>  <SCORE.INTER.POLAR>
0

>  <SCORE.INTER.ROT>
7

>  <SCORE.INTER.SOLV>
5.42888

>  <SCORE.INTER.VDW>
-18.3856

>  <SCORE.INTER.norm>
-0.461629

>  <SCORE.INTRA>
-3.45991

>  <SCORE.INTRA.DIHEDRAL>
-2.38699

>  <SCORE.INTRA.DIHEDRAL.0>
10.0365

>  <SCORE.INTRA.POLAR>
0

>  <SCORE.INTRA.POLAR.0>
0

>  <SCORE.INTRA.REPUL>
0

>  <SCORE.INTRA.REPUL.0>
0

>  <SCORE.INTRA.SOLV>
2.24291

>  <SCORE.INTRA.SOLV.lig_0>
-48.6728

>  <SCORE.INTRA.VDW>
-3.38787

>  <SCORE.INTRA.VDW.0>
-1.10662

>  <SCORE.INTRA.norm>
-0.128145

>  <SCORE.RESTR>
0.00332124

>  <SCORE.RESTR.CAVITY>
0.00332124

>  <SCORE.RESTR.norm>
0.000123009

>  <SCORE.SYSTEM>
0

>  <SCORE.SYSTEM.CONST>
0

>  <SCORE.SYSTEM.DIHEDRAL>
0

>  <SCORE.SYSTEM.SOLV>
0

>  <SCORE.SYSTEM.norm>
0

>  <SCORE.heavy>
27

>  <SCORE.norm>
-0.589651

>  <RMSD>
5.550

$$$$
ligand
 OpenBabel11021811483D
libRbt.so/2013.1/901 2013/11/27
 27 29  0  0  0  0  0  0  0  0999 V2000
   47.0071   55.6758   28.5330 N   0  0  0  0  0  0  0  0  0  0  0  0
   47.7501   56.2510   27.4042 C   0  0  2  0  0  0  0  0  0  0  0  0
   48.0912   55.1475   26.4485 C   0  0  0  0  0  0  0  0  0  0  0  0
   47.7022   54.0111   26.6662 O   0  0  0  0  0  0  0  0  0  0  0  0
   49.0432   56.9155   27.8999 C   0  0  0  0  0  0  0  0  0  0  0  0
   48.6814   58.1459   28.7266 C   0  0  0  0  0  0  0  0  0  0  0  0
   48.1001   57.7464   30.4059 S   0  0  2  0  0  0  0  0  0  0  0  0
   48.0087   59.3544   31.2522 C   0  0  0  0  0  0  0  0  0  0  0  0
   49.4411   56.9947   31.3970 C   0  0  0  0  0  0  0  0  0  0  0  0
   48.7951   55.7531   31.9611 C   0  0  1  0  0  0  0  0  0  0  0  0
   48.7724   54.8722   30.8868 O   0  0  0  0  0  0  0  0  0  0  0  0
   49.4781   54.9017   33.0324 C   0  0  1  0  0  0  0  0  0  0  0  0
   49.1441   55.3021   34.3305 O   0  0  0  0  0  0  0  0  0  0  0  0
   48.8821   53.4726   32.6163 C   0  0  1  0  0  0  0  0  0  0  0  0
   47.4489   53.4145   32.5725 O   0  0  0  0  0  0  0  0  0  0  0  0
   49.5407   53.6642   31.2696 C   0  0  1  0  0  0  0  0  0  0  0  0
   48.7445   55.3941   25.4469 O   0  0  0  0  0  0  0  0  0  0  0  0
   51.8630   54.2657   26.8521 N   0  0  0  0  0  0  0  0  0  0  0  0
   51.9036   54.9895   27.9719 C   0  0  0  0  0  0  0  0  0  0  0  0
   51.2420   54.6246   29.0693 N   0  0  0  0  0  0  0  0  0  0  0  0
   50.4049   53.5786   29.0552 C   0  0  0  0  0  0  0  0  0  0  0  0
   50.2816   52.8148   27.8510 C   0  0  0  0  0  0  0  0  0  0  0  0
   51.0696   53.2086   26.7347 C   0  0  0  0  0  0  0  0  0  0  0  0
   51.0238   52.5220   25.5539 N   0  0  0  0  0  0  0  0  0  0  0  0
   49.3879   51.8359   28.0925 N   0  0  0  0  0  0  0  0  0  0  0  0
   48.9525   51.9365   29.3290 C   0  0  0  0  0  0  0  0  0  0  0  0
   49.5503   52.9826   29.9880 N   0  0  0  0  0  0  0  0  0  0  0  0
  2  1  1  1  0  0  0
  2  3  1  0  0  0  0
  2  5  1  0  0  0  0
  3  4  1  0  0  0  0
  3 17  1  0  0  0  0
  5  6  1  0  0  0  0
  7  6  1  6  0  0  0
  7  8  1  0  0  0  0
  7  9  1  0  0  0  0
 10  9  1  6  0  0  0
 10 11  1  0  0  0  0
 10 12  1  0  0  0  0
 11 16  1  0  0  0  0
 12 13  1  1  0  0  0
 12 14  1  0  0  0  0
 14 15  1  6  0  0  0
 14 16  1  0  0  0  0
 16 27  1  6  0  0  0
 18 19  2  0  0  0  0
 18 23  1  0  0  0  0
 19 20  1  0  0  0  0
 20 21  2  0  0  0  0
 21 22  1  0  0  0  0
 21 27  1  0  0  0  0
 22 23  2  0  0  0  0
 22 25  1  0  0  0  0
 23 24  1  0  0  0  0
 25 26  2  0  0  0  0
 26 27  1  0  0  0  0
M  END
>  <CHROM.1>
2.79892048,-67.94521905,77.00761897,170.86225163,-129.66682139,76.24761790
73.03506392,49.16892405,54.98612452,29.40076335,2.30358008,-1.21716317,1.85272733

>  <Name>
ligand

>  <RI>
0

>  <Rbt.Current_Directory>
/home/itssahil/PROJECTS/Mol_Feturizer/New_Systems/rnas/3IQN

>  <Rbt.Executable>
rbdock ($Id: //depot/dev/client3/rdock/2013.1/src/exe/rbdock.cxx#4 $)

>  <Rbt.Library>
libRbt.so (2013.1, Build901 2013/11/27)

>  <Rbt.Parameter_File>
/export/apps/rDock/src/rDock_2013.1_src/data/scripts/dock_solv.prm

>  <Rbt.Receptor>
prm/pocket_docking_5.prm

>  <SCORE>
-16.1751

>  <SCORE.INTER>
-12.7324

>  <SCORE.INTER.CONST>
1

>  <SCORE.INTER.POLAR>
0

>  <SCORE.INTER.ROT>
7

>  <SCORE.INTER.SOLV>
4.85731

>  <SCORE.INTER.VDW>
-18.374

>  <SCORE.INTER.norm>
-0.471569

>  <SCORE.INTRA>
-3.44271

>  <SCORE.INTRA.DIHEDRAL>
-0.344983

>  <SCORE.INTRA.DIHEDRAL.0>
10.0365

>  <SCORE.INTRA.POLAR>
0

>  <SCORE.INTRA.POLAR.0>
0

>  <SCORE.INTRA.REPUL>
0

>  <SCORE.INTRA.REPUL.0>
0

>  <SCORE.INTRA.SOLV>
3.31959

>  <SCORE.INTRA.SOLV.lig_0>
-48.6728

>  <SCORE.INTRA.VDW>
-4.93001

>  <SCORE.INTRA.VDW.0>
-1.10662

>  <SCORE.INTRA.norm>
-0.127508

>  <SCORE.RESTR>
0

>  <SCORE.RESTR.CAVITY>
0

>  <SCORE.RESTR.norm>
0

>  <SCORE.SYSTEM>
0

>  <SCORE.SYSTEM.CONST>
0

>  <SCORE.SYSTEM.DIHEDRAL>
0

>  <SCORE.SYSTEM.SOLV>
0

>  <SCORE.SYSTEM.norm>
0

>  <SCORE.heavy>
27

>  <SCORE.norm>
-0.599077

>  <RMSD>
5.552

$$$$
ligand
 OpenBabel11021811483D
libRbt.so/2013.1/901 2013/11/27
 27 29  0  0  0  0  0  0  0  0999 V2000
   44.3117   54.4236   30.3444 N   0  0  0  0  0  0  0  0  0  0  0  0
   45.0862   55.6094   29.9554 C   0  0  2  0  0  0  0  0  0  0  0  0
   46.3637   55.1537   29.3167 C   0  0  0  0  0  0  0  0  0  0  0  0
   46.8810   54.1057   29.6694 O   0  0  0  0  0  0  0  0  0  0  0  0
   45.4089   56.4644   31.1900 C   0  0  0  0  0  0  0  0  0  0  0  0
   45.9186   57.8266   30.7286 C   0  0  0  0  0  0  0  0  0  0  0  0
   46.5202   58.8756   32.0906 S   0  0  2  0  0  0  0  0  0  0  0  0
   46.5582   60.5549   31.3914 C   0  0  0  0  0  0  0  0  0  0  0  0
   48.3174   58.6468   32.3431 C   0  0  0  0  0  0  0  0  0  0  0  0
   48.4521   57.1532   32.5108 C   0  0  1  0  0  0  0  0  0  0  0  0
   48.5643   56.6808   31.2089 O   0  0  0  0  0  0  0  0  0  0  0  0
   49.6807   56.5206   33.1661 C   0  0  1  0  0  0  0  0  0  0  0  0
   49.5301   56.3603   34.5475 O   0  0  0  0  0  0  0  0  0  0  0  0
   49.7038   55.1422   32.3475 C   0  0  1  0  0  0  0  0  0  0  0  0
   48.4846   54.3882   32.4155 O   0  0  0  0  0  0  0  0  0  0  0  0
   49.8580   55.9678   31.0910 C   0  0  1  0  0  0  0  0  0  0  0  0
   46.8733   55.8264   28.4344 O   0  0  0  0  0  0  0  0  0  0  0  0
   49.5762   51.9540   28.0780 N   0  0  0  0  0  0  0  0  0  0  0  0
   49.6037   52.0542   29.4079 C   0  0  0  0  0  0  0  0  0  0  0  0
   49.6284   53.2355   30.0236 N   0  0  0  0  0  0  0  0  0  0  0  0
   49.7537   54.3740   29.3285 C   0  0  0  0  0  0  0  0  0  0  0  0
   49.7955   54.3042   27.8995 C   0  0  0  0  0  0  0  0  0  0  0  0
   49.6902   53.0205   27.2968 C   0  0  0  0  0  0  0  0  0  0  0  0
   49.7038   52.8690   25.9387 N   0  0  0  0  0  0  0  0  0  0  0  0
   49.9284   55.5656   27.4450 N   0  0  0  0  0  0  0  0  0  0  0  0
   49.9765   56.3949   28.4642 C   0  0  0  0  0  0  0  0  0  0  0  0
   49.8587   55.7287   29.6593 N   0  0  0  0  0  0  0  0  0  0  0  0
  2  1  1  1  0  0  0
  2  3  1  0  0  0  0
  2  5  1  0  0  0  0
  3  4  1  0  0  0  0
  3 17  1  0  0  0  0
  5  6  1  0  0  0  0
  7  6  1  6  0  0  0
  7  8  1  0  0  0  0
  7  9  1  0  0  0  0
 10  9  1  6  0  0  0
 10 11  1  0  0  0  0
 10 12  1  0  0  0  0
 11 16  1  0  0  0  0
 12 13  1  1  0  0  0
 12 14  1  0  0  0  0
 14 15  1  6  0  0  0
 14 16  1  0  0  0  0
 16 27  1  6  0  0  0
 18 19  2  0  0  0  0
 18 23  1  0  0  0  0
 19 20  1  0  0  0  0
 20 21  2  0  0  0  0
 21 22  1  0  0  0  0
 21 27  1  0  0  0  0
 22 23  2  0  0  0  0
 22 25  1  0  0  0  0
 23 24  1  0  0  0  0
 25 26  2  0  0  0  0
 26 27  1  0  0  0  0
M  END
>  <CHROM.1>
-31.05258450,-167.00046517,-173.36663114,-162.58239755,-53.75255346,86.24597549
-113.16481011,48.17353124,55.72622046,30.37778542,1.96422210,-0.44699115
0.88787665

>  <Name>
ligand

>  <RI>
0

>  <Rbt.Current_Directory>
/home/itssahil/PROJECTS/Mol_Feturizer/New_Systems/rnas/3IQN

>  <Rbt.Executable>
rbdock ($Id: //depot/dev/client3/rdock/2013.1/src/exe/rbdock.cxx#4 $)

>  <Rbt.Library>
libRbt.so (2013.1, Build901 2013/11/27)

>  <Rbt.Parameter_File>
/export/apps/rDock/src/rDock_2013.1_src/data/scripts/dock_solv.prm

>  <Rbt.Receptor>
prm/pocket_docking_6.prm

>  <SCORE>
-17.383

>  <SCORE.INTER>
-11.3687

>  <SCORE.INTER.CONST>
1

>  <SCORE.INTER.POLAR>
0

>  <SCORE.INTER.ROT>
7

>  <SCORE.INTER.SOLV>
5.83655

>  <SCORE.INTER.VDW>
-17.7913

>  <SCORE.INTER.norm>
-0.421063

>  <SCORE.INTRA>
-6.0143

>  <SCORE.INTRA.DIHEDRAL>
-1.99657

>  <SCORE.INTRA.DIHEDRAL.0>
10.0365

>  <SCORE.INTRA.POLAR>
0

>  <SCORE.INTRA.POLAR.0>
0

>  <SCORE.INTRA.REPUL>
0

>  <SCORE.INTRA.REPUL.0>
0

>  <SCORE.INTRA.SOLV>
-0.497149

>  <SCORE.INTRA.SOLV.lig_0>
-48.6728

>  <SCORE.INTRA.VDW>
-4.76744

>  <SCORE.INTRA.VDW.0>
-1.10662

>  <SCORE.INTRA.norm>
-0.222752

>  <SCORE.RESTR>
0

>  <SCORE.RESTR.CAVITY>
0

>  <SCORE.RESTR.norm>
0

>  <SCORE.SYSTEM>
0

>  <SCORE.SYSTEM.CONST>
0

>  <SCORE.SYSTEM.DIHEDRAL>
0

>  <SCORE.SYSTEM.SOLV>
0

>  <SCORE.SYSTEM.norm>
0

>  <SCORE.heavy>
27

>  <SCORE.norm>
-0.643814

>  <RMSD>
5.556

$$$$
ligand
 OpenBabel11021811483D
libRbt.so/2013.1/901 2013/11/27
 27 29  0  0  0  0  0  0  0  0999 V2000
   46.7218   56.3945   28.4035 N   0  0  0  0  0  0  0  0  0  0  0  0
   47.8916   56.7818   27.6042 C   0  0  2  0  0  0  0  0  0  0  0  0
   48.2591   55.6336   26.7131 C   0  0  0  0  0  0  0  0  0  0  0  0
   48.0611   54.4874   27.0835 O   0  0  0  0  0  0  0  0  0  0  0  0
   49.0773   57.1164   28.5215 C   0  0  0  0  0  0  0  0  0  0  0  0
   48.7398   58.3656   29.3301 C   0  0  0  0  0  0  0  0  0  0  0  0
   47.6709   58.0330   30.7669 S   0  0  2  0  0  0  0  0  0  0  0  0
   47.3829   59.6685   31.5103 C   0  0  0  0  0  0  0  0  0  0  0  0
   48.6297   57.2807   32.1310 C   0  0  0  0  0  0  0  0  0  0  0  0
   48.3815   55.8033   31.9498 C   0  0  1  0  0  0  0  0  0  0  0  0
   48.9821   55.5118   30.7312 O   0  0  0  0  0  0  0  0  0  0  0  0
   49.0269   54.7573   32.8599 C   0  0  1  0  0  0  0  0  0  0  0  0
   48.2342   54.4492   33.9706 O   0  0  0  0  0  0  0  0  0  0  0  0
   49.1542   53.5635   31.7973 C   0  0  1  0  0  0  0  0  0  0  0  0
   47.9187   53.1892   31.1705 O   0  0  0  0  0  0  0  0  0  0  0  0
   50.0215   54.4826   30.9683 C   0  0  1  0  0  0  0  0  0  0  0  0
   48.7411   55.8512   25.6126 O   0  0  0  0  0  0  0  0  0  0  0  0
   50.0535   51.3606   27.0287 N   0  0  0  0  0  0  0  0  0  0  0  0
   49.4768   51.2572   28.2271 C   0  0  0  0  0  0  0  0  0  0  0  0
   49.5470   52.2364   29.1280 N   0  0  0  0  0  0  0  0  0  0  0  0
   50.3080   53.3181   28.9142 C   0  0  0  0  0  0  0  0  0  0  0  0
   50.9980   53.4356   27.6657 C   0  0  0  0  0  0  0  0  0  0  0  0
   50.8250   52.3932   26.7140 C   0  0  0  0  0  0  0  0  0  0  0  0
   51.4344   52.4377   25.4916 N   0  0  0  0  0  0  0  0  0  0  0  0
   51.6871   54.5928   27.7012 N   0  0  0  0  0  0  0  0  0  0  0  0
   51.4846   55.1871   28.8565 C   0  0  0  0  0  0  0  0  0  0  0  0
   50.6297   54.4627   29.6505 N   0  0  0  0  0  0  0  0  0  0  0  0
  2  1  1  1  0  0  0
  2  3  1  0  0  0  0
  2  5  1  0  0  0  0
  3  4  1  0  0  0  0
  3 17  1  0  0  0  0
  5  6  1  0  0  0  0
  7  6  1  6  0  0  0
  7  8  1  0  0  0  0
  7  9  1  0  0  0  0
 10  9  1  1  0  0  0
 10 11  1  0  0  0  0
 10 12  1  0  0  0  0
 11 16  1  0  0  0  0
 12 13  1  1  0  0  0
 12 14  1  0  0  0  0
 14 15  1  6  0  0  0
 14 16  1  0  0  0  0
 16 27  1  6  0  0  0
 18 19  2  0  0  0  0
 18 23  1  0  0  0  0
 19 20  1  0  0  0  0
 20 21  2  0  0  0  0
 21 22  1  0  0  0  0
 21 27  1  0  0  0  0
 22 23  2  0  0  0  0
 22 25  1  0  0  0  0
 23 24  1  0  0  0  0
 25 26  2  0  0  0  0
 26 27  1  0  0  0  0
M  END
>  <CHROM.1>
-31.62177076,-65.96936677,79.99357385,-178.23006246,-96.30077062,65.27431511
-106.68396155,49.10978333,55.08330019,29.38542393,2.70596214,-1.17589003
1.89612320

>  <Name>
ligand

>  <RI>
0

>  <Rbt.Current_Directory>
/home/itssahil/PROJECTS/Mol_Feturizer/New_Systems/rnas/3IQN

>  <Rbt.Executable>
rbdock ($Id: //depot/dev/client3/rdock/2013.1/src/exe/rbdock.cxx#4 $)

>  <Rbt.Library>
libRbt.so (2013.1, Build901 2013/11/27)

>  <Rbt.Parameter_File>
/export/apps/rDock/src/rDock_2013.1_src/data/scripts/dock_solv.prm

>  <Rbt.Receptor>
prm/pocket_docking_6.prm

>  <SCORE>
-15.6633

>  <SCORE.INTER>
-11.86

>  <SCORE.INTER.CONST>
1

>  <SCORE.INTER.POLAR>
0

>  <SCORE.INTER.ROT>
7

>  <SCORE.INTER.SOLV>
4.72492

>  <SCORE.INTER.VDW>
-17.7483

>  <SCORE.INTER.norm>
-0.439259

>  <SCORE.INTRA>
-3.80328

>  <SCORE.INTRA.DIHEDRAL>
-2.62003

>  <SCORE.INTRA.DIHEDRAL.0>
10.0365

>  <SCORE.INTRA.POLAR>
0

>  <SCORE.INTRA.POLAR.0>
0

>  <SCORE.INTRA.REPUL>
0

>  <SCORE.INTRA.REPUL.0>
0

>  <SCORE.INTRA.SOLV>
2.60427

>  <SCORE.INTRA.SOLV.lig_0>
-48.6728

>  <SCORE.INTRA.VDW>
-3.7954

>  <SCORE.INTRA.VDW.0>
-1.10662

>  <SCORE.INTRA.norm>
-0.140862

>  <SCORE.RESTR>
0

>  <SCORE.RESTR.CAVITY>
0

>  <SCORE.RESTR.norm>
0

>  <SCORE.SYSTEM>
0

>  <SCORE.SYSTEM.CONST>
0

>  <SCORE.SYSTEM.DIHEDRAL>
0

>  <SCORE.SYSTEM.SOLV>
0

>  <SCORE.SYSTEM.norm>
0

>  <SCORE.heavy>
27

>  <SCORE.norm>
-0.580121

>  <RMSD>
5.575

$$$$
ligand
 OpenBabel11021811483D
libRbt.so/2013.1/901 2013/11/27
 27 29  0  0  0  0  0  0  0  0999 V2000
   45.9008   58.0275   29.9308 N   0  0  0  0  0  0  0  0  0  0  0  0
   45.7441   57.0538   31.0192 C   0  0  2  0  0  0  0  0  0  0  0  0
   45.5719   57.8035   32.3060 C   0  0  0  0  0  0  0  0  0  0  0  0
   45.6966   59.0177   32.3249 O   0  0  0  0  0  0  0  0  0  0  0  0
   46.9862   56.1551   31.1138 C   0  0  0  0  0  0  0  0  0  0  0  0
   48.2084   57.0277   31.3846 C   0  0  0  0  0  0  0  0  0  0  0  0
   48.4689   57.3831   33.1519 S   0  0  2  0  0  0  0  0  0  0  0  0
   49.5865   58.8187   33.1692 C   0  0  0  0  0  0  0  0  0  0  0  0
   49.5957   56.1538   33.9037 C   0  0  0  0  0  0  0  0  0  0  0  0
   48.6622   55.0442   34.3213 C   0  0  1  0  0  0  0  0  0  0  0  0
   48.1706   54.5522   33.1184 O   0  0  0  0  0  0  0  0  0  0  0  0
   49.1734   53.7633   34.9824 C   0  0  1  0  0  0  0  0  0  0  0  0
   49.2057   53.8551   36.3779 O   0  0  0  0  0  0  0  0  0  0  0  0
   48.0674   52.7477   34.4203 C   0  0  1  0  0  0  0  0  0  0  0  0
   46.7127   53.1203   34.7127 O   0  0  0  0  0  0  0  0  0  0  0  0
   48.5303   53.1174   33.0299 C   0  0  1  0  0  0  0  0  0  0  0  0
   45.2919   57.1965   33.3277 O   0  0  0  0  0  0  0  0  0  0  0  0
   50.7068   53.0135   28.4999 N   0  0  0  0  0  0  0  0  0  0  0  0
   51.1989   53.3066   29.7046 C   0  0  0  0  0  0  0  0  0  0  0  0
   50.4554   53.2230   30.8072 N   0  0  0  0  0  0  0  0  0  0  0  0
   49.1434   52.9612   30.7370 C   0  0  0  0  0  0  0  0  0  0  0  0
   48.5622   52.7067   29.4540 C   0  0  0  0  0  0  0  0  0  0  0  0
   49.4214   52.7369   28.3212 C   0  0  0  0  0  0  0  0  0  0  0  0
   48.9491   52.4873   27.0633 N   0  0  0  0  0  0  0  0  0  0  0  0
   47.2491   52.4790   29.6519 N   0  0  0  0  0  0  0  0  0  0  0  0
   46.9768   52.5765   30.9345 C   0  0  0  0  0  0  0  0  0  0  0  0
   48.1040   52.8575   31.6669 N   0  0  0  0  0  0  0  0  0  0  0  0
  2  1  1  6  0  0  0
  2  3  1  0  0  0  0
  2  5  1  0  0  0  0
  3  4  1  0  0  0  0
  3 17  1  0  0  0  0
  5  6  1  0  0  0  0
  7  6  1  6  0  0  0
  7  8  1  0  0  0  0
  7  9  1  0  0  0  0
 10  9  1  6  0  0  0
 10 11  1  0  0  0  0
 10 12  1  0  0  0  0
 11 16  1  0  0  0  0
 12 13  1  1  0  0  0
 12 14  1  0  0  0  0
 14 15  1  6  0  0  0
 14 16  1  0  0  0  0
 16 27  1  6  0  0  0
 18 19  2  0  0  0  0
 18 23  1  0  0  0  0
 19 20  1  0  0  0  0
 20 21  2  0  0  0  0
 21 22  1  0  0  0  0
 21 27  1  0  0  0  0
 22 23  2  0  0  0  0
 22 25  1  0  0  0  0
 23 24  1  0  0  0  0
 25 26  2  0  0  0  0
 26 27  1  0  0  0  0
M  END
>  <CHROM.1>
-6.39620466,59.85683841,85.51850464,-162.09901210,-87.21809685,65.62912004
95.44820986,48.14135423,54.97458500,31.97716181,2.41750851,-1.10726870,1.46242702

>  <Name>
ligand

>  <RI>
0

>  <Rbt.Current_Directory>
/home/itssahil/PROJECTS/Mol_Feturizer/New_Systems/rnas/3IQN

>  <Rbt.Executable>
rbdock ($Id: //depot/dev/client3/rdock/2013.1/src/exe/rbdock.cxx#4 $)

>  <Rbt.Library>
libRbt.so (2013.1, Build901 2013/11/27)

>  <Rbt.Parameter_File>
/export/apps/rDock/src/rDock_2013.1_src/data/scripts/dock_solv.prm

>  <Rbt.Receptor>
prm/pocket_docking_3.prm

>  <SCORE>
-20.3907

>  <SCORE.INTER>
-17.5954

>  <SCORE.INTER.CONST>
1

>  <SCORE.INTER.POLAR>
0

>  <SCORE.INTER.ROT>
7

>  <SCORE.INTER.SOLV>
9.26576

>  <SCORE.INTER.VDW>
-23.0855

>  <SCORE.INTER.norm>
-0.651681

>  <SCORE.INTRA>
-2.7953

>  <SCORE.INTRA.DIHEDRAL>
-1.80853

>  <SCORE.INTRA.DIHEDRAL.0>
10.0365

>  <SCORE.INTRA.POLAR>
0

>  <SCORE.INTRA.POLAR.0>
0

>  <SCORE.INTRA.REPUL>
0

>  <SCORE.INTRA.REPUL.0>
0

>  <SCORE.INTRA.SOLV>
0.223526

>  <SCORE.INTRA.SOLV.lig_0>
-48.6728

>  <SCORE.INTRA.VDW>
-2.0028

>  <SCORE.INTRA.VDW.0>
-1.10662

>  <SCORE.INTRA.norm>
-0.10353

>  <SCORE.RESTR>
0

>  <SCORE.RESTR.CAVITY>
0

>  <SCORE.RESTR.norm>
0

>  <SCORE.SYSTEM>
0

>  <SCORE.SYSTEM.CONST>
0

>  <SCORE.SYSTEM.DIHEDRAL>
0

>  <SCORE.SYSTEM.SOLV>
0

>  <SCORE.SYSTEM.norm>
0

>  <SCORE.heavy>
27

>  <SCORE.norm>
-0.75521

>  <RMSD>
5.582

$$$$
ligand
 OpenBabel11021811483D
libRbt.so/2013.1/901 2013/11/27
 27 29  0  0  0  0  0  0  0  0999 V2000
   47.5264   51.8052   30.0047 N   0  0  0  0  0  0  0  0  0  0  0  0
   48.3050   52.8066   29.2642 C   0  0  2  0  0  0  0  0  0  0  0  0
   48.8963   52.1484   28.0539 C   0  0  0  0  0  0  0  0  0  0  0  0
   48.7522   52.6557   26.9530 O   0  0  0  0  0  0  0  0  0  0  0  0
   49.4332   53.3634   30.1453 C   0  0  0  0  0  0  0  0  0  0  0  0
   49.9715   54.6420   29.5099 C   0  0  0  0  0  0  0  0  0  0  0  0
   48.7719   56.0126   29.5091 S   0  0  2  0  0  0  0  0  0  0  0  0
   49.3522   57.1267   28.1929 C   0  0  0  0  0  0  0  0  0  0  0  0
   49.0462   57.1183   30.9402 C   0  0  0  0  0  0  0  0  0  0  0  0
   47.9842   58.1758   30.7642 C   0  0  1  0  0  0  0  0  0  0  0  0
   46.8149   57.4468   30.5846 O   0  0  0  0  0  0  0  0  0  0  0  0
   47.5806   59.1139   31.9027 C   0  0  1  0  0  0  0  0  0  0  0  0
   48.3299   60.2950   31.9166 O   0  0  0  0  0  0  0  0  0  0  0  0
   46.0413   59.3219   31.5052 C   0  0  1  0  0  0  0  0  0  0  0  0
   45.8306   59.8087   30.1718 O   0  0  0  0  0  0  0  0  0  0  0  0
   45.8686   57.8283   31.6591 C   0  0  1  0  0  0  0  0  0  0  0  0
   49.5336   51.1143   28.1775 O   0  0  0  0  0  0  0  0  0  0  0  0
   43.4924   54.2796   34.3104 N   0  0  0  0  0  0  0  0  0  0  0  0
   44.4800   55.1121   34.6438 C   0  0  0  0  0  0  0  0  0  0  0  0
   44.9420   56.0302   33.7959 N   0  0  0  0  0  0  0  0  0  0  0  0
   44.5178   56.0729   32.5258 C   0  0  0  0  0  0  0  0  0  0  0  0
   43.5053   55.1508   32.1094 C   0  0  0  0  0  0  0  0  0  0  0  0
   42.9979   54.2433   33.0796 C   0  0  0  0  0  0  0  0  0  0  0  0
   42.0180   53.3432   32.7680 N   0  0  0  0  0  0  0  0  0  0  0  0
   43.2611   55.3922   30.8066 N   0  0  0  0  0  0  0  0  0  0  0  0
   44.0342   56.3712   30.3909 C   0  0  0  0  0  0  0  0  0  0  0  0
   44.8265   56.8503   31.4051 N   0  0  0  0  0  0  0  0  0  0  0  0
  2  1  1  1  0  0  0
  2  3  1  0  0  0  0
  2  5  1  0  0  0  0
  3  4  1  0  0  0  0
  3 17  1  0  0  0  0
  5  6  1  0  0  0  0
  7  6  1  1  0  0  0
  7  8  1  0  0  0  0
  7  9  1  0  0  0  0
 10  9  1  1  0  0  0
 10 11  1  0  0  0  0
 10 12  1  0  0  0  0
 11 16  1  0  0  0  0
 12 13  1  6  0  0  0
 12 14  1  0  0  0  0
 14 15  1  6  0  0  0
 14 16  1  0  0  0  0
 16 27  1  6  0  0  0
 18 19  2  0  0  0  0
 18 23  1  0  0  0  0
 19 20  1  0  0  0  0
 20 21  2  0  0  0  0
 21 22  1  0  0  0  0
 21 27  1  0  0  0  0
 22 23  2  0  0  0  0
 22 25  1  0  0  0  0
 23 24  1  0  0  0  0
 25 26  2  0  0  0  0
 26 27  1  0  0  0  0
M  END
>  <CHROM.1>
129.01167149,-164.69316860,66.90978331,-158.63560617,179.61484249,50.70820244
124.69498519,46.71531416,55.72675505,30.79347478,0.59058589,-0.59404768,-2.93582433

>  <Name>
ligand

>  <RI>
0

>  <Rbt.Current_Directory>
/home/itssahil/PROJECTS/Mol_Feturizer/New_Systems/rnas/3IQN

>  <Rbt.Executable>
rbdock ($Id: //depot/dev/client3/rdock/2013.1/src/exe/rbdock.cxx#4 $)

>  <Rbt.Library>
libRbt.so (2013.1, Build901 2013/11/27)

>  <Rbt.Parameter_File>
/export/apps/rDock/src/rDock_2013.1_src/data/scripts/dock_solv.prm

>  <Rbt.Receptor>
prm/pocket_docking_8.prm

>  <SCORE>
-12.6656

>  <SCORE.INTER>
-10.4781

>  <SCORE.INTER.CONST>
1

>  <SCORE.INTER.POLAR>
0

>  <SCORE.INTER.ROT>
7

>  <SCORE.INTER.SOLV>
12.4108

>  <SCORE.INTER.VDW>
-19.389

>  <SCORE.INTER.norm>
-0.388078

>  <SCORE.INTRA>
-2.18754

>  <SCORE.INTRA.DIHEDRAL>
-3.48136

>  <SCORE.INTRA.DIHEDRAL.0>
10.0365

>  <SCORE.INTRA.POLAR>
0

>  <SCORE.INTRA.POLAR.0>
0

>  <SCORE.INTRA.REPUL>
0

>  <SCORE.INTRA.REPUL.0>
0

>  <SCORE.INTRA.SOLV>
-0.89671

>  <SCORE.INTRA.SOLV.lig_0>
-48.6728

>  <SCORE.INTRA.VDW>
0.00149573

>  <SCORE.INTRA.VDW.0>
-1.10662

>  <SCORE.INTRA.norm>
-0.08102

>  <SCORE.RESTR>
0

>  <SCORE.RESTR.CAVITY>
0

>  <SCORE.RESTR.norm>
0

>  <SCORE.SYSTEM>
0

>  <SCORE.SYSTEM.CONST>
0

>  <SCORE.SYSTEM.DIHEDRAL>
0

>  <SCORE.SYSTEM.SOLV>
0

>  <SCORE.SYSTEM.norm>
0

>  <SCORE.heavy>
27

>  <SCORE.norm>
-0.469098

>  <RMSD>
5.596

$$$$
ligand
 OpenBabel11021811483D
libRbt.so/2013.1/901 2013/11/27
 27 29  0  0  0  0  0  0  0  0999 V2000
   46.0773   56.8613   28.9711 N   0  0  0  0  0  0  0  0  0  0  0  0
   46.1685   56.7060   30.4288 C   0  0  2  0  0  0  0  0  0  0  0  0
   45.1243   55.7242   30.8681 C   0  0  0  0  0  0  0  0  0  0  0  0
   44.0340   55.7080   30.3192 O   0  0  0  0  0  0  0  0  0  0  0  0
   45.9275   58.0539   31.1249 C   0  0  0  0  0  0  0  0  0  0  0  0
   46.2644   57.9124   32.6064 C   0  0  0  0  0  0  0  0  0  0  0  0
   48.0492   58.0076   32.9570 S   0  0  2  0  0  0  0  0  0  0  0  0
   48.6053   59.5083   32.0917 C   0  0  0  0  0  0  0  0  0  0  0  0
   48.9722   56.7710   31.9748 C   0  0  0  0  0  0  0  0  0  0  0  0
   48.4404   55.4569   32.4920 C   0  0  1  0  0  0  0  0  0  0  0  0
   48.1985   54.7190   31.3398 O   0  0  0  0  0  0  0  0  0  0  0  0
   49.3147   54.4886   33.2901 C   0  0  1  0  0  0  0  0  0  0  0  0
   49.2472   54.7155   34.6687 O   0  0  0  0  0  0  0  0  0  0  0  0
   48.6366   53.1137   32.8207 C   0  0  1  0  0  0  0  0  0  0  0  0
   47.2225   53.0368   33.0531 O   0  0  0  0  0  0  0  0  0  0  0  0
   49.0174   53.4858   31.4062 C   0  0  1  0  0  0  0  0  0  0  0  0
   45.3752   54.9335   31.7640 O   0  0  0  0  0  0  0  0  0  0  0  0
   50.0431   54.9380   26.7043 N   0  0  0  0  0  0  0  0  0  0  0  0
   50.2947   55.5195   27.8782 C   0  0  0  0  0  0  0  0  0  0  0  0
   49.9813   54.9351   29.0338 N   0  0  0  0  0  0  0  0  0  0  0  0
   49.2846   53.7911   29.0625 C   0  0  0  0  0  0  0  0  0  0  0  0
   48.9361   53.1688   27.8215 C   0  0  0  0  0  0  0  0  0  0  0  0
   49.3629   53.8018   26.6217 C   0  0  0  0  0  0  0  0  0  0  0  0
   49.0867   53.2634   25.3963 N   0  0  0  0  0  0  0  0  0  0  0  0
   48.2439   52.0519   28.1190 N   0  0  0  0  0  0  0  0  0  0  0  0
   48.1345   51.9399   29.4245 C   0  0  0  0  0  0  0  0  0  0  0  0
   48.7679   52.9723   30.0716 N   0  0  0  0  0  0  0  0  0  0  0  0
  2  1  1  6  0  0  0
  2  3  1  0  0  0  0
  2  5  1  0  0  0  0
  3  4  1  0  0  0  0
  3 17  1  0  0  0  0
  5  6  1  0  0  0  0
  7  6  1  6  0  0  0
  7  8  1  0  0  0  0
  7  9  1  0  0  0  0
 10  9  1  6  0  0  0
 10 11  1  0  0  0  0
 10 12  1  0  0  0  0
 11 16  1  0  0  0  0
 12 13  1  1  0  0  0
 12 14  1  0  0  0  0
 14 15  1  6  0  0  0
 14 16  1  0  0  0  0
 16 27  1  6  0  0  0
 18 19  2  0  0  0  0
 18 23  1  0  0  0  0
 19 20  1  0  0  0  0
 20 21  2  0  0  0  0
 21 22  1  0  0  0  0
 21 27  1  0  0  0  0
 22 23  2  0  0  0  0
 22 25  1  0  0  0  0
 23 24  1  0  0  0  0
 25 26  2  0  0  0  0
 26 27  1  0  0  0  0
M  END
>  <CHROM.1>
-36.76978022,-170.33434763,80.06433712,49.98998607,-63.53856541,134.44635625
65.43294237,47.98254235,55.19807588,30.65728226,2.19799624,-1.06560521,1.52095108

>  <Name>
ligand

>  <RI>
0

>  <Rbt.Current_Directory>
/home/itssahil/PROJECTS/Mol_Feturizer/New_Systems/rnas/3IQN

>  <Rbt.Executable>
rbdock ($Id: //depot/dev/client3/rdock/2013.1/src/exe/rbdock.cxx#4 $)

>  <Rbt.Library>
libRbt.so (2013.1, Build901 2013/11/27)

>  <Rbt.Parameter_File>
/export/apps/rDock/src/rDock_2013.1_src/data/scripts/dock_solv.prm

>  <Rbt.Receptor>
prm/pocket_docking_4.prm

>  <SCORE>
-12.7373

>  <SCORE.INTER>
-9.55739

>  <SCORE.INTER.CONST>
1

>  <SCORE.INTER.POLAR>
0

>  <SCORE.INTER.ROT>
7

>  <SCORE.INTER.SOLV>
4.77414

>  <SCORE.INTER.VDW>
-16.2296

>  <SCORE.INTER.norm>
-0.353978

>  <SCORE.INTRA>
-3.17988

>  <SCORE.INTRA.DIHEDRAL>
-0.886649

>  <SCORE.INTRA.DIHEDRAL.0>
10.0365

>  <SCORE.INTRA.POLAR>
0

>  <SCORE.INTRA.POLAR.0>
0

>  <SCORE.INTRA.REPUL>
0

>  <SCORE.INTRA.REPUL.0>
0

>  <SCORE.INTRA.SOLV>
0.242596

>  <SCORE.INTRA.SOLV.lig_0>
-48.6728

>  <SCORE.INTRA.VDW>
-2.85785

>  <SCORE.INTRA.VDW.0>
-1.10662

>  <SCORE.INTRA.norm>
-0.117773

>  <SCORE.RESTR>
0

>  <SCORE.RESTR.CAVITY>
0

>  <SCORE.RESTR.norm>
0

>  <SCORE.SYSTEM>
0

>  <SCORE.SYSTEM.CONST>
0

>  <SCORE.SYSTEM.DIHEDRAL>
0

>  <SCORE.SYSTEM.SOLV>
0

>  <SCORE.SYSTEM.norm>
0

>  <SCORE.heavy>
27

>  <SCORE.norm>
-0.471751

>  <RMSD>
5.602

$$$$
ligand
 OpenBabel11021811483D
libRbt.so/2013.1/901 2013/11/27
 27 29  0  0  0  0  0  0  0  0999 V2000
   50.2727   53.5367   26.1518 N   0  0  0  0  0  0  0  0  0  0  0  0
   51.0791   54.3306   27.0882 C   0  0  2  0  0  0  0  0  0  0  0  0
   52.0412   53.4137   27.7819 C   0  0  0  0  0  0  0  0  0  0  0  0
   52.0709   53.3717   29.0016 O   0  0  0  0  0  0  0  0  0  0  0  0
   50.1753   55.0061   28.1304 C   0  0  0  0  0  0  0  0  0  0  0  0
   49.2272   55.9645   27.4156 C   0  0  0  0  0  0  0  0  0  0  0  0
   48.0009   56.7319   28.5223 S   0  0  2  0  0  0  0  0  0  0  0  0
   47.1268   57.9335   27.4723 C   0  0  0  0  0  0  0  0  0  0  0  0
   48.8052   57.9088   29.6686 C   0  0  0  0  0  0  0  0  0  0  0  0
   47.6363   58.5625   30.3639 C   0  0  1  0  0  0  0  0  0  0  0  0
   47.0392   57.5203   31.0626 O   0  0  0  0  0  0  0  0  0  0  0  0
   47.8309   59.5954   31.4748 C   0  0  1  0  0  0  0  0  0  0  0  0
   47.8873   60.9051   30.9866 O   0  0  0  0  0  0  0  0  0  0  0  0
   46.5144   59.2742   32.3316 C   0  0  1  0  0  0  0  0  0  0  0  0
   45.2873   59.3556   31.5920 O   0  0  0  0  0  0  0  0  0  0  0  0
   47.0485   57.8707   32.5024 C   0  0  1  0  0  0  0  0  0  0  0  0
   52.7810   52.7007   27.1224 O   0  0  0  0  0  0  0  0  0  0  0  0
   48.9175   54.2291   35.4204 N   0  0  0  0  0  0  0  0  0  0  0  0
   49.4723   55.3446   34.9434 C   0  0  0  0  0  0  0  0  0  0  0  0
   48.7782   56.2201   34.2174 N   0  0  0  0  0  0  0  0  0  0  0  0
   47.5237   55.9547   33.8292 C   0  0  0  0  0  0  0  0  0  0  0  0
   46.9144   54.7350   34.2649 C   0  0  0  0  0  0  0  0  0  0  0  0
   47.6796   53.8749   35.0997 C   0  0  0  0  0  0  0  0  0  0  0  0
   47.1653   52.7006   35.5731 N   0  0  0  0  0  0  0  0  0  0  0  0
   45.6728   54.7038   33.7427 N   0  0  0  0  0  0  0  0  0  0  0  0
   45.4724   55.7878   33.0260 C   0  0  0  0  0  0  0  0  0  0  0  0
   46.5695   56.6136   33.0476 N   0  0  0  0  0  0  0  0  0  0  0  0
  2  1  1  6  0  0  0
  2  3  1  0  0  0  0
  2  5  1  0  0  0  0
  3  4  1  0  0  0  0
  3 17  1  0  0  0  0
  5  6  1  0  0  0  0
  7  6  1  6  0  0  0
  7  8  1  0  0  0  0
  7  9  1  0  0  0  0
 10  9  1  1  0  0  0
 10 11  1  0  0  0  0
 10 12  1  0  0  0  0
 11 16  1  0  0  0  0
 12 13  1  6  0  0  0
 12 14  1  0  0  0  0
 14 15  1  6  0  0  0
 14 16  1  0  0  0  0
 16 27  1  1  0  0  0
 18 19  2  0  0  0  0
 18 23  1  0  0  0  0
 19 20  1  0  0  0  0
 20 21  2  0  0  0  0
 21 22  1  0  0  0  0
 21 27  1  0  0  0  0
 22 23  2  0  0  0  0
 22 25  1  0  0  0  0
 23 24  1  0  0  0  0
 25 26  2  0  0  0  0
 26 27  1  0  0  0  0
M  END
>  <CHROM.1>
-125.18402725,-62.27217127,175.14864592,174.41054920,172.94173132,64.25519002
114.30661987,48.34045457,56.14651225,30.95937400,-0.55518057,-0.93784840
2.17477168

>  <Name>
ligand

>  <RI>
0

>  <Rbt.Current_Directory>
/home/itssahil/PROJECTS/Mol_Feturizer/New_Systems/rnas/3IQN

>  <Rbt.Executable>
rbdock ($Id: //depot/dev/client3/rdock/2013.1/src/exe/rbdock.cxx#4 $)

>  <Rbt.Library>
libRbt.so (2013.1, Build901 2013/11/27)

>  <Rbt.Parameter_File>
/export/apps/rDock/src/rDock_2013.1_src/data/scripts/dock_solv.prm

>  <Rbt.Receptor>
prm/pocket_docking_5.prm

>  <SCORE>
-14.7819

>  <SCORE.INTER>
-12.2802

>  <SCORE.INTER.CONST>
1

>  <SCORE.INTER.POLAR>
0

>  <SCORE.INTER.ROT>
7

>  <SCORE.INTER.SOLV>
12.8044

>  <SCORE.INTER.VDW>
-20.7216

>  <SCORE.INTER.norm>
-0.454823

>  <SCORE.INTRA>
-2.50173

>  <SCORE.INTRA.DIHEDRAL>
-6.81454

>  <SCORE.INTRA.DIHEDRAL.0>
10.0365

>  <SCORE.INTRA.POLAR>
0

>  <SCORE.INTRA.POLAR.0>
0

>  <SCORE.INTRA.REPUL>
0

>  <SCORE.INTRA.REPUL.0>
0

>  <SCORE.INTRA.SOLV>
-0.439307

>  <SCORE.INTRA.SOLV.lig_0>
-48.6728

>  <SCORE.INTRA.VDW>
1.12519

>  <SCORE.INTRA.VDW.0>
-1.10662

>  <SCORE.INTRA.norm>
-0.0926567

>  <SCORE.RESTR>
0

>  <SCORE.RESTR.CAVITY>
0

>  <SCORE.RESTR.norm>
0

>  <SCORE.SYSTEM>
0

>  <SCORE.SYSTEM.CONST>
0

>  <SCORE.SYSTEM.DIHEDRAL>
0

>  <SCORE.SYSTEM.SOLV>
0

>  <SCORE.SYSTEM.norm>
0

>  <SCORE.heavy>
27

>  <SCORE.norm>
-0.54748

>  <RMSD>
5.604

$$$$
ligand
 OpenBabel11021811483D
libRbt.so/2013.1/901 2013/11/27
 27 29  0  0  0  0  0  0  0  0999 V2000
   51.0451   53.4704   29.0805 N   0  0  0  0  0  0  0  0  0  0  0  0
   50.0957   54.5835   28.9500 C   0  0  2  0  0  0  0  0  0  0  0  0
   50.7393   55.6635   28.1335 C   0  0  0  0  0  0  0  0  0  0  0  0
   50.0908   56.6417   27.7976 O   0  0  0  0  0  0  0  0  0  0  0  0
   49.7311   55.1387   30.3350 C   0  0  0  0  0  0  0  0  0  0  0  0
   48.9279   54.0864   31.0938 C   0  0  0  0  0  0  0  0  0  0  0  0
   48.0531   54.7498   32.5470 S   0  0  2  0  0  0  0  0  0  0  0  0
   47.4252   53.2783   33.4134 C   0  0  0  0  0  0  0  0  0  0  0  0
   46.4492   55.4834   32.0622 C   0  0  0  0  0  0  0  0  0  0  0  0
   46.8382   56.8475   31.5475 C   0  0  1  0  0  0  0  0  0  0  0  0
   47.2477   56.6064   30.2418 O   0  0  0  0  0  0  0  0  0  0  0  0
   45.8068   57.9572   31.3381 C   0  0  1  0  0  0  0  0  0  0  0  0
   45.6454   58.7614   32.4713 O   0  0  0  0  0  0  0  0  0  0  0  0
   46.5067   58.7025   30.1030 C   0  0  1  0  0  0  0  0  0  0  0  0
   47.8566   59.1235   30.3483 O   0  0  0  0  0  0  0  0  0  0  0  0
   46.3868   57.4047   29.3377 C   0  0  1  0  0  0  0  0  0  0  0  0
   51.9157   55.5669   27.8210 O   0  0  0  0  0  0  0  0  0  0  0  0
   46.5421   52.9013   27.1098 N   0  0  0  0  0  0  0  0  0  0  0  0
   46.1256   53.2675   28.3230 C   0  0  0  0  0  0  0  0  0  0  0  0
   46.1192   54.5428   28.7089 N   0  0  0  0  0  0  0  0  0  0  0  0
   46.6501   55.5005   27.9370 C   0  0  0  0  0  0  0  0  0  0  0  0
   47.1696   55.1377   26.6536 C   0  0  0  0  0  0  0  0  0  0  0  0
   47.0810   53.7723   26.2663 C   0  0  0  0  0  0  0  0  0  0  0  0
   47.5373   53.3466   25.0504 N   0  0  0  0  0  0  0  0  0  0  0  0
   47.6437   56.2636   26.0853 N   0  0  0  0  0  0  0  0  0  0  0  0
   47.4659   57.2757   26.9055 C   0  0  0  0  0  0  0  0  0  0  0  0
   46.8429   56.8798   28.0636 N   0  0  0  0  0  0  0  0  0  0  0  0
  2  1  1  1  0  0  0
  2  3  1  0  0  0  0
  2  5  1  0  0  0  0
  3  4  1  0  0  0  0
  3 17  1  0  0  0  0
  5  6  1  0  0  0  0
  7  6  1  6  0  0  0
  7  8  1  0  0  0  0
  7  9  1  0  0  0  0
 10  9  1  6  0  0  0
 10 11  1  0  0  0  0
 10 12  1  0  0  0  0
 11 16  1  0  0  0  0
 12 13  1  1  0  0  0
 12 14  1  0  0  0  0
 14 15  1  1  0  0  0
 14 16  1  0  0  0  0
 16 27  1  6  0  0  0
 18 19  2  0  0  0  0
 18 23  1  0  0  0  0
 19 20  1  0  0  0  0
 20 21  2  0  0  0  0
 21 22  1  0  0  0  0
 21 27  1  0  0  0  0
 22 23  2  0  0  0  0
 22 25  1  0  0  0  0
 23 24  1  0  0  0  0
 25 26  2  0  0  0  0
 26 27  1  0  0  0  0
M  END
>  <CHROM.1>
173.69264895,-67.53094966,-164.45918616,-170.72177666,-80.67881591,81.89590215
59.69477900,47.82279223,55.65808685,29.39843254,-1.09052762,-0.89152538,1.55594359

>  <Name>
ligand

>  <RI>
0

>  <Rbt.Current_Directory>
/home/itssahil/PROJECTS/Mol_Feturizer/New_Systems/rnas/3IQN

>  <Rbt.Executable>
rbdock ($Id: //depot/dev/client3/rdock/2013.1/src/exe/rbdock.cxx#4 $)

>  <Rbt.Library>
libRbt.so (2013.1, Build901 2013/11/27)

>  <Rbt.Parameter_File>
/export/apps/rDock/src/rDock_2013.1_src/data/scripts/dock_solv.prm

>  <Rbt.Receptor>
prm/pocket_docking_5.prm

>  <SCORE>
-11.1687

>  <SCORE.INTER>
-5.82882

>  <SCORE.INTER.CONST>
1

>  <SCORE.INTER.POLAR>
0

>  <SCORE.INTER.ROT>
7

>  <SCORE.INTER.SOLV>
9.86555

>  <SCORE.INTER.VDW>
-15.4411

>  <SCORE.INTER.norm>
-0.215882

>  <SCORE.INTRA>
-5.33984

>  <SCORE.INTRA.DIHEDRAL>
-2.91824

>  <SCORE.INTRA.DIHEDRAL.0>
10.0365

>  <SCORE.INTRA.POLAR>
0

>  <SCORE.INTRA.POLAR.0>
0

>  <SCORE.INTRA.REPUL>
0

>  <SCORE.INTRA.REPUL.0>
0

>  <SCORE.INTRA.SOLV>
-0.190919

>  <SCORE.INTRA.SOLV.lig_0>
-48.6728

>  <SCORE.INTRA.VDW>
-3.78525

>  <SCORE.INTRA.VDW.0>
-1.10662

>  <SCORE.INTRA.norm>
-0.197772

>  <SCORE.RESTR>
0

>  <SCORE.RESTR.CAVITY>
0

>  <SCORE.RESTR.norm>
0

>  <SCORE.SYSTEM>
0

>  <SCORE.SYSTEM.CONST>
0

>  <SCORE.SYSTEM.DIHEDRAL>
0

>  <SCORE.SYSTEM.SOLV>
0

>  <SCORE.SYSTEM.norm>
0

>  <SCORE.heavy>
27

>  <SCORE.norm>
-0.413654

>  <RMSD>
5.607

$$$$
ligand
 OpenBabel11021811483D
libRbt.so/2013.1/901 2013/11/27
 27 29  0  0  0  0  0  0  0  0999 V2000
   46.2400   53.1517   25.3175 N   0  0  0  0  0  0  0  0  0  0  0  0
   47.6604   53.5221   25.3680 C   0  0  2  0  0  0  0  0  0  0  0  0
   48.4743   52.2686   25.4846 C   0  0  0  0  0  0  0  0  0  0  0  0
   49.3396   52.0251   24.6587 O   0  0  0  0  0  0  0  0  0  0  0  0
   47.9337   54.4234   26.5815 C   0  0  0  0  0  0  0  0  0  0  0  0
   47.3049   55.7913   26.3330 C   0  0  0  0  0  0  0  0  0  0  0  0
   47.3754   56.8958   27.7795 S   0  0  2  0  0  0  0  0  0  0  0  0
   49.1267   56.8915   28.2727 C   0  0  0  0  0  0  0  0  0  0  0  0
   46.6757   56.0772   29.2581 C   0  0  0  0  0  0  0  0  0  0  0  0
   46.4163   57.2297   30.1969 C   0  0  1  0  0  0  0  0  0  0  0  0
   45.6267   56.6740   31.1961 O   0  0  0  0  0  0  0  0  0  0  0  0
   47.5351   57.8697   31.0202 C   0  0  1  0  0  0  0  0  0  0  0  0
   48.1461   58.9389   30.3566 O   0  0  0  0  0  0  0  0  0  0  0  0
   46.6711   58.3031   32.2994 C   0  0  1  0  0  0  0  0  0  0  0  0
   45.5414   59.1363   32.0011 O   0  0  0  0  0  0  0  0  0  0  0  0
   46.3367   56.8410   32.4860 C   0  0  1  0  0  0  0  0  0  0  0  0
   48.2780   51.5034   26.4156 O   0  0  0  0  0  0  0  0  0  0  0  0
   46.8989   53.2119   35.9185 N   0  0  0  0  0  0  0  0  0  0  0  0
   47.7916   53.8494   35.1595 C   0  0  0  0  0  0  0  0  0  0  0  0
   47.4378   54.8344   34.3349 N   0  0  0  0  0  0  0  0  0  0  0  0
   46.1486   55.1423   34.1403 C   0  0  0  0  0  0  0  0  0  0  0  0
   45.1537   54.4342   34.8870 C   0  0  0  0  0  0  0  0  0  0  0  0
   45.5973   53.4446   35.8069 C   0  0  0  0  0  0  0  0  0  0  0  0
   44.7130   52.7363   36.5710 N   0  0  0  0  0  0  0  0  0  0  0  0
   43.9549   54.9202   34.5103 N   0  0  0  0  0  0  0  0  0  0  0  0
   44.1278   55.8537   33.6006 C   0  0  0  0  0  0  0  0  0  0  0  0
   45.4599   56.0544   33.3342 N   0  0  0  0  0  0  0  0  0  0  0  0
  2  1  1  1  0  0  0
  2  3  1  0  0  0  0
  2  5  1  0  0  0  0
  3  4  1  0  0  0  0
  3 17  1  0  0  0  0
  5  6  1  0  0  0  0
  7  6  1  6  0  0  0
  7  8  1  0  0  0  0
  7  9  1  0  0  0  0
 10  9  1  6  0  0  0
 10 11  1  0  0  0  0
 10 12  1  0  0  0  0
 11 16  1  0  0  0  0
 12 13  1  6  0  0  0
 12 14  1  0  0  0  0
 14 15  1  6  0  0  0
 14 16  1  0  0  0  0
 16 27  1  1  0  0  0
 18 19  2  0  0  0  0
 18 23  1  0  0  0  0
 19 20  1  0  0  0  0
 20 21  2  0  0  0  0
 21 22  1  0  0  0  0
 21 27  1  0  0  0  0
 22 23  2  0  0  0  0
 22 25  1  0  0  0  0
 23 24  1  0  0  0  0
 25 26  2  0  0  0  0
 26 27  1  0  0  0  0
M  END
>  <CHROM.1>
123.51146771,-70.88469237,172.86557643,52.29706440,-162.89318428,167.53855879
131.52380403,46.80550912,55.36490030,30.59953569,-0.02170033,-1.31244659
3.00397482

>  <Name>
ligand

>  <RI>
0

>  <Rbt.Current_Directory>
/home/itssahil/PROJECTS/Mol_Feturizer/New_Systems/rnas/3IQN

>  <Rbt.Executable>
rbdock ($Id: //depot/dev/client3/rdock/2013.1/src/exe/rbdock.cxx#4 $)

>  <Rbt.Library>
libRbt.so (2013.1, Build901 2013/11/27)

>  <Rbt.Parameter_File>
/export/apps/rDock/src/rDock_2013.1_src/data/scripts/dock_solv.prm

>  <Rbt.Receptor>
prm/pocket_docking_6.prm

>  <SCORE>
-12.8882

>  <SCORE.INTER>
-9.84923

>  <SCORE.INTER.CONST>
1

>  <SCORE.INTER.POLAR>
0

>  <SCORE.INTER.ROT>
7

>  <SCORE.INTER.SOLV>
12.1706

>  <SCORE.INTER.VDW>
-18.8897

>  <SCORE.INTER.norm>
-0.364786

>  <SCORE.INTRA>
-3.03892

>  <SCORE.INTRA.DIHEDRAL>
-4.38542

>  <SCORE.INTRA.DIHEDRAL.0>
10.0365

>  <SCORE.INTRA.POLAR>
0

>  <SCORE.INTRA.POLAR.0>
0

>  <SCORE.INTRA.REPUL>
0

>  <SCORE.INTRA.REPUL.0>
0

>  <SCORE.INTRA.SOLV>
-0.295754

>  <SCORE.INTRA.SOLV.lig_0>
-48.6728

>  <SCORE.INTRA.VDW>
-0.698334

>  <SCORE.INTRA.VDW.0>
-1.10662

>  <SCORE.INTRA.norm>
-0.112553

>  <SCORE.RESTR>
0

>  <SCORE.RESTR.CAVITY>
0

>  <SCORE.RESTR.norm>
0

>  <SCORE.SYSTEM>
0

>  <SCORE.SYSTEM.CONST>
0

>  <SCORE.SYSTEM.DIHEDRAL>
0

>  <SCORE.SYSTEM.SOLV>
0

>  <SCORE.SYSTEM.norm>
0

>  <SCORE.heavy>
27

>  <SCORE.norm>
-0.477339

>  <RMSD>
5.641

$$$$
ligand
 OpenBabel11021811483D
libRbt.so/2013.1/901 2013/11/27
 27 29  0  0  0  0  0  0  0  0999 V2000
   44.6224   56.7605   31.4029 N   0  0  0  0  0  0  0  0  0  0  0  0
   45.9886   57.0300   31.8701 C   0  0  2  0  0  0  0  0  0  0  0  0
   46.0448   56.7741   33.3462 C   0  0  0  0  0  0  0  0  0  0  0  0
   47.1244   56.7071   33.9121 O   0  0  0  0  0  0  0  0  0  0  0  0
   46.3696   58.4914   31.5900 C   0  0  0  0  0  0  0  0  0  0  0  0
   46.5179   58.6836   30.0836 C   0  0  0  0  0  0  0  0  0  0  0  0
   47.6430   57.4808   29.3059 S   0  0  2  0  0  0  0  0  0  0  0  0
   47.8559   58.0885   27.6042 C   0  0  0  0  0  0  0  0  0  0  0  0
   46.7670   55.9200   28.9284 C   0  0  0  0  0  0  0  0  0  0  0  0
   47.8189   54.8677   29.1797 C   0  0  1  0  0  0  0  0  0  0  0  0
   47.7510   54.6496   30.5503 O   0  0  0  0  0  0  0  0  0  0  0  0
   47.6814   53.4424   28.6422 C   0  0  1  0  0  0  0  0  0  0  0  0
   48.2573   53.2876   27.3769 O   0  0  0  0  0  0  0  0  0  0  0  0
   48.4596   52.6708   29.8126 C   0  0  1  0  0  0  0  0  0  0  0  0
   49.7958   53.1379   30.0486 O   0  0  0  0  0  0  0  0  0  0  0  0
   47.4277   53.2203   30.7704 C   0  0  1  0  0  0  0  0  0  0  0  0
   45.0082   56.6493   33.9791 O   0  0  0  0  0  0  0  0  0  0  0  0
   49.8236   55.1654   34.7384 N   0  0  0  0  0  0  0  0  0  0  0  0
   50.1274   55.1702   33.4395 C   0  0  0  0  0  0  0  0  0  0  0  0
   49.3188   54.6338   32.5264 N   0  0  0  0  0  0  0  0  0  0  0  0
   48.2228   53.9538   32.8887 C   0  0  0  0  0  0  0  0  0  0  0  0
   47.8975   53.8680   34.2799 C   0  0  0  0  0  0  0  0  0  0  0  0
   48.7586   54.5240   35.2021 C   0  0  0  0  0  0  0  0  0  0  0  0
   48.5090   54.5052   36.5456 N   0  0  0  0  0  0  0  0  0  0  0  0
   46.7695   53.1379   34.3788 N   0  0  0  0  0  0  0  0  0  0  0  0
   46.3818   52.7675   33.1782 C   0  0  0  0  0  0  0  0  0  0  0  0
   47.2251   53.2495   32.2075 N   0  0  0  0  0  0  0  0  0  0  0  0
  2  1  1  1  0  0  0
  2  3  1  0  0  0  0
  2  5  1  0  0  0  0
  3  4  1  0  0  0  0
  3 17  1  0  0  0  0
  5  6  1  0  0  0  0
  7  6  1  1  0  0  0
  7  8  1  0  0  0  0
  7  9  1  0  0  0  0
 10  9  1  6  0  0  0
 10 11  1  0  0  0  0
 10 12  1  0  0  0  0
 11 16  1  0  0  0  0
 12 13  1  6  0  0  0
 12 14  1  0  0  0  0
 14 15  1  1  0  0  0
 14 16  1  0  0  0  0
 16 27  1  1  0  0  0
 18 19  2  0  0  0  0
 18 23  1  0  0  0  0
 19 20  1  0  0  0  0
 20 21  2  0  0  0  0
 21 22  1  0  0  0  0
 21 27  1  0  0  0  0
 22 23  2  0  0  0  0
 22 25  1  0  0  0  0
 23 24  1  0  0  0  0
 25 26  2  0  0  0  0
 26 27  1  0  0  0  0
M  END
>  <CHROM.1>
167.30918868,-69.33753377,-52.66314251,-170.95606994,-144.31842521,83.89145825
-45.96640585,47.55734920,55.28262513,31.59134247,1.72757294,1.10973238,-1.44729269

>  <Name>
ligand

>  <RI>
0

>  <Rbt.Current_Directory>
/home/itssahil/PROJECTS/Mol_Feturizer/New_Systems/rnas/3IQN

>  <Rbt.Executable>
rbdock ($Id: //depot/dev/client3/rdock/2013.1/src/exe/rbdock.cxx#4 $)

>  <Rbt.Library>
libRbt.so (2013.1, Build901 2013/11/27)

>  <Rbt.Parameter_File>
/export/apps/rDock/src/rDock_2013.1_src/data/scripts/dock_solv.prm

>  <Rbt.Receptor>
prm/pocket_docking_3.prm

>  <SCORE>
-8.03354

>  <SCORE.INTER>
-6.36452

>  <SCORE.INTER.CONST>
1

>  <SCORE.INTER.POLAR>
0

>  <SCORE.INTER.ROT>
7

>  <SCORE.INTER.SOLV>
15.8803

>  <SCORE.INTER.VDW>
-17.8031

>  <SCORE.INTER.norm>
-0.235723

>  <SCORE.INTRA>
-1.66902

>  <SCORE.INTRA.DIHEDRAL>
-0.434583

>  <SCORE.INTRA.DIHEDRAL.0>
10.0365

>  <SCORE.INTRA.POLAR>
0

>  <SCORE.INTRA.POLAR.0>
0

>  <SCORE.INTRA.REPUL>
0

>  <SCORE.INTRA.REPUL.0>
0

>  <SCORE.INTRA.SOLV>
2.26438

>  <SCORE.INTRA.SOLV.lig_0>
-48.6728

>  <SCORE.INTRA.VDW>
-2.58392

>  <SCORE.INTRA.VDW.0>
-1.10662

>  <SCORE.INTRA.norm>
-0.0618154

>  <SCORE.RESTR>
0

>  <SCORE.RESTR.CAVITY>
0

>  <SCORE.RESTR.norm>
0

>  <SCORE.SYSTEM>
0

>  <SCORE.SYSTEM.CONST>
0

>  <SCORE.SYSTEM.DIHEDRAL>
0

>  <SCORE.SYSTEM.SOLV>
0

>  <SCORE.SYSTEM.norm>
0

>  <SCORE.heavy>
27

>  <SCORE.norm>
-0.297538

>  <RMSD>
5.649

$$$$
ligand
 OpenBabel11021811483D
libRbt.so/2013.1/901 2013/11/27
 27 29  0  0  0  0  0  0  0  0999 V2000
   46.1906   58.3111   29.9248 N   0  0  0  0  0  0  0  0  0  0  0  0
   45.8686   58.9709   31.1970 C   0  0  2  0  0  0  0  0  0  0  0  0
   46.7844   60.1454   31.3680 C   0  0  0  0  0  0  0  0  0  0  0  0
   46.3811   61.1572   31.9192 O   0  0  0  0  0  0  0  0  0  0  0  0
   46.0639   57.9961   32.3678 C   0  0  0  0  0  0  0  0  0  0  0  0
   47.4249   57.3207   32.2272 C   0  0  0  0  0  0  0  0  0  0  0  0
   48.5170   57.5837   33.6609 S   0  0  2  0  0  0  0  0  0  0  0  0
   49.7397   58.8025   33.0863 C   0  0  0  0  0  0  0  0  0  0  0  0
   49.6419   56.1600   33.8919 C   0  0  0  0  0  0  0  0  0  0  0  0
   48.7090   55.0514   34.3133 C   0  0  1  0  0  0  0  0  0  0  0  0
   48.1981   54.5719   33.1134 O   0  0  0  0  0  0  0  0  0  0  0  0
   49.2231   53.7626   34.9566 C   0  0  1  0  0  0  0  0  0  0  0  0
   49.2754   53.8425   36.3522 O   0  0  0  0  0  0  0  0  0  0  0  0
   48.1043   52.7571   34.4017 C   0  0  1  0  0  0  0  0  0  0  0  0
   46.7557   53.1337   34.7162 O   0  0  0  0  0  0  0  0  0  0  0  0
   48.5495   53.1362   33.0080 C   0  0  1  0  0  0  0  0  0  0  0  0
   47.9362   60.0785   30.9683 O   0  0  0  0  0  0  0  0  0  0  0  0
   50.6782   52.9753   28.4570 N   0  0  0  0  0  0  0  0  0  0  0  0
   51.1900   53.2532   29.6571 C   0  0  0  0  0  0  0  0  0  0  0  0
   50.4552   53.1896   30.7668 N   0  0  0  0  0  0  0  0  0  0  0  0
   49.1357   52.9649   30.7092 C   0  0  0  0  0  0  0  0  0  0  0  0
   48.5352   52.7282   29.4317 C   0  0  0  0  0  0  0  0  0  0  0  0
   49.3838   52.7353   28.2907 C   0  0  0  0  0  0  0  0  0  0  0  0
   48.8926   52.5004   27.0372 N   0  0  0  0  0  0  0  0  0  0  0  0
   47.2181   52.5375   29.6421 N   0  0  0  0  0  0  0  0  0  0  0  0
   46.9612   52.6414   30.9274 C   0  0  0  0  0  0  0  0  0  0  0  0
   48.1029   52.8897   31.6491 N   0  0  0  0  0  0  0  0  0  0  0  0
  2  1  1  6  0  0  0
  2  3  1  0  0  0  0
  2  5  1  0  0  0  0
  3  4  1  0  0  0  0
  3 17  1  0  0  0  0
  5  6  1  0  0  0  0
  7  6  1  6  0  0  0
  7  8  1  0  0  0  0
  7  9  1  0  0  0  0
 10  9  1  6  0  0  0
 10 11  1  0  0  0  0
 10 12  1  0  0  0  0
 11 16  1  0  0  0  0
 12 13  1  1  0  0  0
 12 14  1  0  0  0  0
 14 15  1  6  0  0  0
 14 16  1  0  0  0  0
 16 27  1  6  0  0  0
 18 19  2  0  0  0  0
 18 23  1  0  0  0  0
 19 20  1  0  0  0  0
 20 21  2  0  0  0  0
 21 22  1  0  0  0  0
 21 27  1  0  0  0  0
 22 23  2  0  0  0  0
 22 25  1  0  0  0  0
 23 24  1  0  0  0  0
 25 26  2  0  0  0  0
 26 27  1  0  0  0  0
M  END
>  <CHROM.1>
145.54204590,48.59818700,121.66485959,-105.14805429,-68.22399977,82.65288589
96.87545516,48.28351462,55.42355767,31.94153095,2.85465874,-1.30181273,1.53234279

>  <Name>
ligand

>  <RI>
0

>  <Rbt.Current_Directory>
/home/itssahil/PROJECTS/Mol_Feturizer/New_Systems/rnas/3IQN

>  <Rbt.Executable>
rbdock ($Id: //depot/dev/client3/rdock/2013.1/src/exe/rbdock.cxx#4 $)

>  <Rbt.Library>
libRbt.so (2013.1, Build901 2013/11/27)

>  <Rbt.Parameter_File>
/export/apps/rDock/src/rDock_2013.1_src/data/scripts/dock_solv.prm

>  <Rbt.Receptor>
prm/pocket_docking_3.prm

>  <SCORE>
-21.8728

>  <SCORE.INTER>
-22.202

>  <SCORE.INTER.CONST>
1

>  <SCORE.INTER.POLAR>
0

>  <SCORE.INTER.ROT>
7

>  <SCORE.INTER.SOLV>
10.9659

>  <SCORE.INTER.VDW>
-26.7233

>  <SCORE.INTER.norm>
-0.822295

>  <SCORE.INTRA>
0.329126

>  <SCORE.INTRA.DIHEDRAL>
3.63909

>  <SCORE.INTRA.DIHEDRAL.0>
10.0365

>  <SCORE.INTRA.POLAR>
0

>  <SCORE.INTRA.POLAR.0>
0

>  <SCORE.INTRA.REPUL>
0

>  <SCORE.INTRA.REPUL.0>
0

>  <SCORE.INTRA.SOLV>
-0.131078

>  <SCORE.INTRA.SOLV.lig_0>
-48.6728

>  <SCORE.INTRA.VDW>
-1.42488

>  <SCORE.INTRA.VDW.0>
-1.10662

>  <SCORE.INTRA.norm>
0.0121898

>  <SCORE.RESTR>
0

>  <SCORE.RESTR.CAVITY>
0

>  <SCORE.RESTR.norm>
0

>  <SCORE.SYSTEM>
0

>  <SCORE.SYSTEM.CONST>
0

>  <SCORE.SYSTEM.DIHEDRAL>
0

>  <SCORE.SYSTEM.SOLV>
0

>  <SCORE.SYSTEM.norm>
0

>  <SCORE.heavy>
27

>  <SCORE.norm>
-0.810105

>  <RMSD>
5.659

$$$$
ligand
 OpenBabel11021811483D
libRbt.so/2013.1/901 2013/11/27
 27 29  0  0  0  0  0  0  0  0999 V2000
   48.8870   54.0298   25.2029 N   0  0  0  0  0  0  0  0  0  0  0  0
   48.4563   53.9943   26.6067 C   0  0  2  0  0  0  0  0  0  0  0  0
   49.0856   55.1494   27.3258 C   0  0  0  0  0  0  0  0  0  0  0  0
   50.2977   55.2926   27.3051 O   0  0  0  0  0  0  0  0  0  0  0  0
   48.8978   52.6796   27.2670 C   0  0  0  0  0  0  0  0  0  0  0  0
   48.0602   52.4509   28.5217 C   0  0  0  0  0  0  0  0  0  0  0  0
   48.5115   53.5464   29.9050 S   0  0  2  0  0  0  0  0  0  0  0  0
   50.2412   53.1228   30.2777 C   0  0  0  0  0  0  0  0  0  0  0  0
   47.7498   52.9717   31.4656 C   0  0  0  0  0  0  0  0  0  0  0  0
   47.9406   54.1468   32.3928 C   0  0  1  0  0  0  0  0  0  0  0  0
   47.1562   53.8317   33.4956 O   0  0  0  0  0  0  0  0  0  0  0  0
   49.2862   54.4426   33.0569 C   0  0  1  0  0  0  0  0  0  0  0  0
   50.0855   55.2994   32.2927 O   0  0  0  0  0  0  0  0  0  0  0  0
   48.7421   55.0965   34.4160 C   0  0  1  0  0  0  0  0  0  0  0  0
   47.8628   56.2151   34.2289 O   0  0  0  0  0  0  0  0  0  0  0  0
   48.0375   53.7869   34.6859 C   0  0  1  0  0  0  0  0  0  0  0  0
   48.3801   55.9517   27.9169 O   0  0  0  0  0  0  0  0  0  0  0  0
   47.7933   53.4325   39.6943 N   0  0  0  0  0  0  0  0  0  0  0  0
   48.7521   53.8980   38.8921 C   0  0  0  0  0  0  0  0  0  0  0  0
   48.5973   53.9529   37.5698 N   0  0  0  0  0  0  0  0  0  0  0  0
   47.5173   53.4248   36.9785 C   0  0  0  0  0  0  0  0  0  0  0  0
   46.4947   52.8542   37.8015 C   0  0  0  0  0  0  0  0  0  0  0  0
   46.6824   52.8916   39.2106 C   0  0  0  0  0  0  0  0  0  0  0  0
   45.7456   52.3845   40.0667 N   0  0  0  0  0  0  0  0  0  0  0  0
   45.5334   52.3941   36.9771 N   0  0  0  0  0  0  0  0  0  0  0  0
   45.8786   52.6268   35.7300 C   0  0  0  0  0  0  0  0  0  0  0  0
   47.0869   53.2754   35.6563 N   0  0  0  0  0  0  0  0  0  0  0  0
  2  1  1  6  0  0  0
  2  3  1  0  0  0  0
  2  5  1  0  0  0  0
  3  4  1  0  0  0  0
  3 17  1  0  0  0  0
  5  6  1  0  0  0  0
  7  6  1  6  0  0  0
  7  8  1  0  0  0  0
  7  9  1  0  0  0  0
 10  9  1  6  0  0  0
 10 11  1  0  0  0  0
 10 12  1  0  0  0  0
 11 16  1  0  0  0  0
 12 13  1  6  0  0  0
 12 14  1  0  0  0  0
 14 15  1  6  0  0  0
 14 16  1  0  0  0  0
 16 27  1  1  0  0  0
 18 19  2  0  0  0  0
 18 23  1  0  0  0  0
 19 20  1  0  0  0  0
 20 21  2  0  0  0  0
 21 22  1  0  0  0  0
 21 27  1  0  0  0  0
 22 23  2  0  0  0  0
 22 25  1  0  0  0  0
 23 24  1  0  0  0  0
 25 26  2  0  0  0  0
 26 27  1  0  0  0  0
M  END
>  <CHROM.1>
-55.26511921,-160.83029445,-73.51752637,-61.87548085,-166.67677328,169.28854134
-165.02275631,48.12416224,53.84831399,32.85864637,1.30155947,-0.82650146
-1.68376693

>  <Name>
ligand

>  <RI>
0

>  <Rbt.Current_Directory>
/home/itssahil/PROJECTS/Mol_Feturizer/New_Systems/rnas/3IQN

>  <Rbt.Executable>
rbdock ($Id: //depot/dev/client3/rdock/2013.1/src/exe/rbdock.cxx#4 $)

>  <Rbt.Library>
libRbt.so (2013.1, Build901 2013/11/27)

>  <Rbt.Parameter_File>
/export/apps/rDock/src/rDock_2013.1_src/data/scripts/dock_solv.prm

>  <Rbt.Receptor>
prm/pocket_docking_7.prm

>  <SCORE>
-15.4403

>  <SCORE.INTER>
-12.0689

>  <SCORE.INTER.CONST>
1

>  <SCORE.INTER.POLAR>
0

>  <SCORE.INTER.ROT>
7

>  <SCORE.INTER.SOLV>
6.94726

>  <SCORE.INTER.VDW>
-18.6284

>  <SCORE.INTER.norm>
-0.446997

>  <SCORE.INTRA>
-3.37135

>  <SCORE.INTRA.DIHEDRAL>
-3.55707

>  <SCORE.INTRA.DIHEDRAL.0>
10.0365

>  <SCORE.INTRA.POLAR>
0

>  <SCORE.INTRA.POLAR.0>
0

>  <SCORE.INTRA.REPUL>
0

>  <SCORE.INTRA.REPUL.0>
0

>  <SCORE.INTRA.SOLV>
-0.71578

>  <SCORE.INTRA.SOLV.lig_0>
-48.6728

>  <SCORE.INTRA.VDW>
-1.23492

>  <SCORE.INTRA.VDW.0>
-1.10662

>  <SCORE.INTRA.norm>
-0.124865

>  <SCORE.RESTR>
0

>  <SCORE.RESTR.CAVITY>
0

>  <SCORE.RESTR.norm>
0

>  <SCORE.SYSTEM>
0

>  <SCORE.SYSTEM.CONST>
0

>  <SCORE.SYSTEM.DIHEDRAL>
0

>  <SCORE.SYSTEM.SOLV>
0

>  <SCORE.SYSTEM.norm>
0

>  <SCORE.heavy>
27

>  <SCORE.norm>
-0.571862

>  <RMSD>
5.688

$$$$
ligand
 OpenBabel11021811483D
libRbt.so/2013.1/901 2013/11/27
 27 29  0  0  0  0  0  0  0  0999 V2000
   48.7869   54.5520   23.8319 N   0  0  0  0  0  0  0  0  0  0  0  0
   50.1929   54.2315   24.1106 C   0  0  2  0  0  0  0  0  0  0  0  0
   50.8279   53.7400   22.8446 C   0  0  0  0  0  0  0  0  0  0  0  0
   51.9588   54.0951   22.5527 O   0  0  0  0  0  0  0  0  0  0  0  0
   50.2879   53.1399   25.1870 C   0  0  0  0  0  0  0  0  0  0  0  0
   49.6920   53.6736   26.4864 C   0  0  0  0  0  0  0  0  0  0  0  0
   50.5629   55.1345   27.1379 S   0  0  2  0  0  0  0  0  0  0  0  0
   52.1470   54.4851   27.7538 C   0  0  0  0  0  0  0  0  0  0  0  0
   49.8460   55.6604   28.7364 C   0  0  0  0  0  0  0  0  0  0  0  0
   48.5040   56.2254   28.3404 C   0  0  1  0  0  0  0  0  0  0  0  0
   47.5917   55.4040   28.9914 O   0  0  0  0  0  0  0  0  0  0  0  0
   48.0420   57.6092   28.7993 C   0  0  1  0  0  0  0  0  0  0  0  0
   48.3970   58.6198   27.8995 O   0  0  0  0  0  0  0  0  0  0  0  0
   46.4661   57.3224   28.8704 C   0  0  1  0  0  0  0  0  0  0  0  0
   45.8941   56.8308   27.6495 O   0  0  0  0  0  0  0  0  0  0  0  0
   46.7743   56.2514   29.8912 C   0  0  1  0  0  0  0  0  0  0  0  0
   50.2157   52.9732   22.1181 O   0  0  0  0  0  0  0  0  0  0  0  0
   44.4382   55.7864   34.3178 N   0  0  0  0  0  0  0  0  0  0  0  0
   45.1228   56.8013   33.7879 C   0  0  0  0  0  0  0  0  0  0  0  0
   45.6288   56.7413   32.5568 N   0  0  0  0  0  0  0  0  0  0  0  0
   45.5786   55.6080   31.8441 C   0  0  0  0  0  0  0  0  0  0  0  0
   44.9103   54.4735   32.4054 C   0  0  0  0  0  0  0  0  0  0  0  0
   44.3252   54.6212   33.6931 C   0  0  0  0  0  0  0  0  0  0  0  0
   43.6541   53.5922   34.2918 N   0  0  0  0  0  0  0  0  0  0  0  0
   45.0026   53.4743   31.5064 N   0  0  0  0  0  0  0  0  0  0  0  0
   45.6691   53.8937   30.4534 C   0  0  0  0  0  0  0  0  0  0  0  0
   46.0426   55.2084   30.5868 N   0  0  0  0  0  0  0  0  0  0  0  0
  2  1  1  6  0  0  0
  2  3  1  0  0  0  0
  2  5  1  0  0  0  0
  3  4  1  0  0  0  0
  3 17  1  0  0  0  0
  5  6  1  0  0  0  0
  7  6  1  1  0  0  0
  7  8  1  0  0  0  0
  7  9  1  0  0  0  0
 10  9  1  1  0  0  0
 10 11  1  0  0  0  0
 10 12  1  0  0  0  0
 11 16  1  0  0  0  0
 12 13  1  6  0  0  0
 12 14  1  0  0  0  0
 14 15  1  6  0  0  0
 14 16  1  0  0  0  0
 16 27  1  6  0  0  0
 18 19  2  0  0  0  0
 18 23  1  0  0  0  0
 19 20  1  0  0  0  0
 20 21  2  0  0  0  0
 21 22  1  0  0  0  0
 21 27  1  0  0  0  0
 22 23  2  0  0  0  0
 22 25  1  0  0  0  0
 23 24  1  0  0  0  0
 25 26  2  0  0  0  0
 26 27  1  0  0  0  0
M  END
>  <CHROM.1>
138.95233737,-63.11683299,-61.13508111,-71.84632947,-70.78819011,117.89976772
156.10595876,47.87090594,55.19199305,28.55785659,0.38200245,-0.93168011,-2.81510572

>  <Name>
ligand

>  <RI>
0

>  <Rbt.Current_Directory>
/home/itssahil/PROJECTS/Mol_Feturizer/New_Systems/rnas/3IQN

>  <Rbt.Executable>
rbdock ($Id: //depot/dev/client3/rdock/2013.1/src/exe/rbdock.cxx#4 $)

>  <Rbt.Library>
libRbt.so (2013.1, Build901 2013/11/27)

>  <Rbt.Parameter_File>
/export/apps/rDock/src/rDock_2013.1_src/data/scripts/dock_solv.prm

>  <Rbt.Receptor>
prm/pocket_docking_7.prm

>  <SCORE>
-9.70705

>  <SCORE.INTER>
-7.50941

>  <SCORE.INTER.CONST>
1

>  <SCORE.INTER.POLAR>
0

>  <SCORE.INTER.ROT>
7

>  <SCORE.INTER.SOLV>
7.6032

>  <SCORE.INTER.VDW>
-15.8073

>  <SCORE.INTER.norm>
-0.278126

>  <SCORE.INTRA>
-2.19763

>  <SCORE.INTRA.DIHEDRAL>
-1.72165

>  <SCORE.INTRA.DIHEDRAL.0>
10.0365

>  <SCORE.INTRA.POLAR>
0

>  <SCORE.INTRA.POLAR.0>
0

>  <SCORE.INTRA.REPUL>
0

>  <SCORE.INTRA.REPUL.0>
0

>  <SCORE.INTRA.SOLV>
0.14217

>  <SCORE.INTRA.SOLV.lig_0>
-48.6728

>  <SCORE.INTRA.VDW>
-1.40789

>  <SCORE.INTRA.VDW.0>
-1.10662

>  <SCORE.INTRA.norm>
-0.0813938

>  <SCORE.RESTR>
0

>  <SCORE.RESTR.CAVITY>
0

>  <SCORE.RESTR.norm>
0

>  <SCORE.SYSTEM>
0

>  <SCORE.SYSTEM.CONST>
0

>  <SCORE.SYSTEM.DIHEDRAL>
0

>  <SCORE.SYSTEM.SOLV>
0

>  <SCORE.SYSTEM.norm>
0

>  <SCORE.heavy>
27

>  <SCORE.norm>
-0.35952

>  <RMSD>
5.705

$$$$
ligand
 OpenBabel11021811483D
libRbt.so/2013.1/901 2013/11/27
 27 29  0  0  0  0  0  0  0  0999 V2000
   50.1265   58.2036   31.3147 N   0  0  0  0  0  0  0  0  0  0  0  0
   48.7014   58.2776   31.6625 C   0  0  2  0  0  0  0  0  0  0  0  0
   48.1132   59.4871   31.0003 C   0  0  0  0  0  0  0  0  0  0  0  0
   47.3016   59.3535   30.0982 O   0  0  0  0  0  0  0  0  0  0  0  0
   48.5291   58.3937   33.1844 C   0  0  0  0  0  0  0  0  0  0  0  0
   48.2117   57.0137   33.7528 C   0  0  0  0  0  0  0  0  0  0  0  0
   46.8388   56.1754   32.8987 S   0  0  2  0  0  0  0  0  0  0  0  0
   45.5853   57.4734   32.6654 C   0  0  0  0  0  0  0  0  0  0  0  0
   45.9090   55.1059   34.0553 C   0  0  0  0  0  0  0  0  0  0  0  0
   46.8407   53.9377   34.2654 C   0  0  1  0  0  0  0  0  0  0  0  0
   46.8544   53.2967   33.0327 O   0  0  0  0  0  0  0  0  0  0  0  0
   48.3364   54.1317   34.5190 C   0  0  1  0  0  0  0  0  0  0  0  0
   48.6417   54.2342   35.8803 O   0  0  0  0  0  0  0  0  0  0  0  0
   48.8711   52.7865   33.8295 C   0  0  1  0  0  0  0  0  0  0  0  0
   48.2875   51.5806   34.3439 O   0  0  0  0  0  0  0  0  0  0  0  0
   48.2524   53.2795   32.5417 C   0  0  1  0  0  0  0  0  0  0  0  0
   48.4375   60.6020   31.3777 O   0  0  0  0  0  0  0  0  0  0  0  0
   50.8766   52.9311   28.2684 N   0  0  0  0  0  0  0  0  0  0  0  0
   51.1835   53.4777   29.4459 C   0  0  0  0  0  0  0  0  0  0  0  0
   50.3537   53.4175   30.4866 N   0  0  0  0  0  0  0  0  0  0  0  0
   49.1193   52.9131   30.3572 C   0  0  0  0  0  0  0  0  0  0  0  0
   48.7268   52.3766   29.0896 C   0  0  0  0  0  0  0  0  0  0  0  0
   49.6822   52.4017   28.0366 C   0  0  0  0  0  0  0  0  0  0  0  0
   49.3930   51.8936   26.8014 N   0  0  0  0  0  0  0  0  0  0  0  0
   47.4576   51.9434   29.2186 N   0  0  0  0  0  0  0  0  0  0  0  0
   47.0402   52.1711   30.4444 C   0  0  0  0  0  0  0  0  0  0  0  0
   48.0210   52.7547   31.2083 N   0  0  0  0  0  0  0  0  0  0  0  0
  2  1  1  1  0  0  0
  2  3  1  0  0  0  0
  2  5  1  0  0  0  0
  3  4  1  0  0  0  0
  3 17  1  0  0  0  0
  5  6  1  0  0  0  0
  7  6  1  1  0  0  0
  7  8  1  0  0  0  0
  7  9  1  0  0  0  0
 10  9  1  6  0  0  0
 10 11  1  0  0  0  0
 10 12  1  0  0  0  0
 11 16  1  0  0  0  0
 12 13  1  1  0  0  0
 12 14  1  0  0  0  0
 14 15  1  1  0  0  0
 14 16  1  0  0  0  0
 16 27  1  6  0  0  0
 18 19  2  0  0  0  0
 18 23  1  0  0  0  0
 19 20  1  0  0  0  0
 20 21  2  0  0  0  0
 21 22  1  0  0  0  0
 21 27  1  0  0  0  0
 22 23  2  0  0  0  0
 22 25  1  0  0  0  0
 23 24  1  0  0  0  0
 25 26  2  0  0  0  0
 26 27  1  0  0  0  0
M  END
>  <CHROM.1>
111.89237785,-98.54978709,-51.18180364,-42.96387764,-73.72091188,-68.23594935
165.51959126,48.25267059,54.93185659,31.75342128,-2.19088838,-1.21218580
2.98291733

>  <Name>
ligand

>  <RI>
0

>  <Rbt.Current_Directory>
/home/itssahil/PROJECTS/Mol_Feturizer/New_Systems/rnas/3IQN

>  <Rbt.Executable>
rbdock ($Id: //depot/dev/client3/rdock/2013.1/src/exe/rbdock.cxx#4 $)

>  <Rbt.Library>
libRbt.so (2013.1, Build901 2013/11/27)

>  <Rbt.Parameter_File>
/export/apps/rDock/src/rDock_2013.1_src/data/scripts/dock_solv.prm

>  <Rbt.Receptor>
prm/pocket_docking_3.prm

>  <SCORE>
-14.2259

>  <SCORE.INTER>
-14.2962

>  <SCORE.INTER.CONST>
1

>  <SCORE.INTER.POLAR>
0

>  <SCORE.INTER.ROT>
7

>  <SCORE.INTER.SOLV>
15.2429

>  <SCORE.INTER.VDW>
-22.8784

>  <SCORE.INTER.norm>
-0.529488

>  <SCORE.INTRA>
0.0218937

>  <SCORE.INTRA.DIHEDRAL>
-0.430035

>  <SCORE.INTRA.DIHEDRAL.0>
10.0365

>  <SCORE.INTRA.POLAR>
0

>  <SCORE.INTRA.POLAR.0>
0

>  <SCORE.INTRA.REPUL>
0

>  <SCORE.INTRA.REPUL.0>
0

>  <SCORE.INTRA.SOLV>
0.0418959

>  <SCORE.INTRA.SOLV.lig_0>
-48.6728

>  <SCORE.INTRA.VDW>
0.215963

>  <SCORE.INTRA.VDW.0>
-1.10662

>  <SCORE.INTRA.norm>
0.000810876

>  <SCORE.RESTR>
0.0484355

>  <SCORE.RESTR.CAVITY>
0.0484355

>  <SCORE.RESTR.norm>
0.00179391

>  <SCORE.SYSTEM>
0

>  <SCORE.SYSTEM.CONST>
0

>  <SCORE.SYSTEM.DIHEDRAL>
0

>  <SCORE.SYSTEM.SOLV>
0

>  <SCORE.SYSTEM.norm>
0

>  <SCORE.heavy>
27

>  <SCORE.norm>
-0.526883

>  <RMSD>
5.714

$$$$
ligand
 OpenBabel11021811483D
libRbt.so/2013.1/901 2013/11/27
 27 29  0  0  0  0  0  0  0  0999 V2000
   45.9705   58.1577   30.4295 N   0  0  0  0  0  0  0  0  0  0  0  0
   45.9207   58.8878   31.7030 C   0  0  2  0  0  0  0  0  0  0  0  0
   45.8616   60.3561   31.4067 C   0  0  0  0  0  0  0  0  0  0  0  0
   46.5954   60.8362   30.5574 O   0  0  0  0  0  0  0  0  0  0  0  0
   47.1725   58.5855   32.5404 C   0  0  0  0  0  0  0  0  0  0  0  0
   47.0759   57.1605   33.0774 C   0  0  0  0  0  0  0  0  0  0  0  0
   48.4458   56.7100   34.1899 S   0  0  2  0  0  0  0  0  0  0  0  0
   49.9341   56.8179   33.1489 C   0  0  0  0  0  0  0  0  0  0  0  0
   48.4643   54.9078   34.5027 C   0  0  0  0  0  0  0  0  0  0  0  0
   47.0282   54.5057   34.2725 C   0  0  1  0  0  0  0  0  0  0  0  0
   46.9470   54.3343   32.8960 O   0  0  0  0  0  0  0  0  0  0  0  0
   46.4716   53.1724   34.7739 C   0  0  1  0  0  0  0  0  0  0  0  0
   45.9252   53.2673   36.0582 O   0  0  0  0  0  0  0  0  0  0  0  0
   45.3874   52.9182   33.6204 C   0  0  1  0  0  0  0  0  0  0  0  0
   44.4394   53.9818   33.4488 O   0  0  0  0  0  0  0  0  0  0  0  0
   46.5316   52.9364   32.6330 C   0  0  1  0  0  0  0  0  0  0  0  0
   45.0673   61.0635   32.0064 O   0  0  0  0  0  0  0  0  0  0  0  0
   50.3687   53.0726   29.3885 N   0  0  0  0  0  0  0  0  0  0  0  0
   50.3420   53.1328   30.7208 C   0  0  0  0  0  0  0  0  0  0  0  0
   49.2048   53.0256   31.4069 N   0  0  0  0  0  0  0  0  0  0  0  0
   48.0219   52.9785   30.7797 C   0  0  0  0  0  0  0  0  0  0  0  0
   48.0037   52.9797   29.3485 C   0  0  0  0  0  0  0  0  0  0  0  0
   49.2535   53.0206   28.6714 C   0  0  0  0  0  0  0  0  0  0  0  0
   49.3240   53.0068   27.3066 N   0  0  0  0  0  0  0  0  0  0  0  0
   46.7119   52.9323   28.9686 N   0  0  0  0  0  0  0  0  0  0  0  0
   45.9431   52.9079   30.0350 C   0  0  0  0  0  0  0  0  0  0  0  0
   46.6862   52.9186   31.1898 N   0  0  0  0  0  0  0  0  0  0  0  0
  2  1  1  6  0  0  0
  2  3  1  0  0  0  0
  2  5  1  0  0  0  0
  3  4  1  0  0  0  0
  3 17  1  0  0  0  0
  5  6  1  0  0  0  0
  7  6  1  6  0  0  0
  7  8  1  0  0  0  0
  7  9  1  0  0  0  0
 10  9  1  6  0  0  0
 10 11  1  0  0  0  0
 10 12  1  0  0  0  0
 11 16  1  0  0  0  0
 12 13  1  1  0  0  0
 12 14  1  0  0  0  0
 14 15  1  6  0  0  0
 14 16  1  0  0  0  0
 16 27  1  6  0  0  0
 18 19  2  0  0  0  0
 18 23  1  0  0  0  0
 19 20  1  0  0  0  0
 20 21  2  0  0  0  0
 21 22  1  0  0  0  0
 21 27  1  0  0  0  0
 22 23  2  0  0  0  0
 22 25  1  0  0  0  0
 23 24  1  0  0  0  0
 25 26  2  0  0  0  0
 26 27  1  0  0  0  0
M  END
>  <CHROM.1>
-44.50362038,-72.32054059,-175.89161157,-62.60342513,-25.17586172,83.75885239
69.48551695,47.31600563,55.28589570,31.99208255,-2.32474379,-1.19291534,2.66805336

>  <Name>
ligand

>  <RI>
0

>  <Rbt.Current_Directory>
/home/itssahil/PROJECTS/Mol_Feturizer/New_Systems/rnas/3IQN

>  <Rbt.Executable>
rbdock ($Id: //depot/dev/client3/rdock/2013.1/src/exe/rbdock.cxx#4 $)

>  <Rbt.Library>
libRbt.so (2013.1, Build901 2013/11/27)

>  <Rbt.Parameter_File>
/export/apps/rDock/src/rDock_2013.1_src/data/scripts/dock_solv.prm

>  <Rbt.Receptor>
prm/pocket_docking_4.prm

>  <SCORE>
-15.0045

>  <SCORE.INTER>
-13.7295

>  <SCORE.INTER.CONST>
1

>  <SCORE.INTER.POLAR>
0

>  <SCORE.INTER.ROT>
7

>  <SCORE.INTER.SOLV>
7.77824

>  <SCORE.INTER.VDW>
-20.0124

>  <SCORE.INTER.norm>
-0.508501

>  <SCORE.INTRA>
-1.29844

>  <SCORE.INTRA.DIHEDRAL>
-1.07597

>  <SCORE.INTRA.DIHEDRAL.0>
10.0365

>  <SCORE.INTRA.POLAR>
0

>  <SCORE.INTRA.POLAR.0>
0

>  <SCORE.INTRA.REPUL>
0

>  <SCORE.INTRA.REPUL.0>
0

>  <SCORE.INTRA.SOLV>
-0.354452

>  <SCORE.INTRA.SOLV.lig_0>
-48.6728

>  <SCORE.INTRA.VDW>
-0.583231

>  <SCORE.INTRA.VDW.0>
-1.10662

>  <SCORE.INTRA.norm>
-0.0480904

>  <SCORE.RESTR>
0.0234681

>  <SCORE.RESTR.CAVITY>
0.0234681

>  <SCORE.RESTR.norm>
0.000869189

>  <SCORE.SYSTEM>
0

>  <SCORE.SYSTEM.CONST>
0

>  <SCORE.SYSTEM.DIHEDRAL>
0

>  <SCORE.SYSTEM.SOLV>
0

>  <SCORE.SYSTEM.norm>
0

>  <SCORE.heavy>
27

>  <SCORE.norm>
-0.555722

>  <RMSD>
5.750

$$$$
ligand
 OpenBabel11021811483D
libRbt.so/2013.1/901 2013/11/27
 27 29  0  0  0  0  0  0  0  0999 V2000
   41.0293   54.2469   30.4813 N   0  0  0  0  0  0  0  0  0  0  0  0
   41.8868   53.8593   31.6091 C   0  0  2  0  0  0  0  0  0  0  0  0
   41.6815   52.3996   31.8820 C   0  0  0  0  0  0  0  0  0  0  0  0
   42.6432   51.6502   31.9439 O   0  0  0  0  0  0  0  0  0  0  0  0
   41.5199   54.6697   32.8613 C   0  0  0  0  0  0  0  0  0  0  0  0
   42.7066   54.6619   33.8205 C   0  0  0  0  0  0  0  0  0  0  0  0
   42.9636   53.0576   34.6437 S   0  0  2  0  0  0  0  0  0  0  0  0
   41.6515   52.9742   35.9014 C   0  0  0  0  0  0  0  0  0  0  0  0
   44.4082   53.1250   35.7637 C   0  0  0  0  0  0  0  0  0  0  0  0
   45.5781   52.9717   34.8230 C   0  0  1  0  0  0  0  0  0  0  0  0
   45.5650   54.1466   34.0812 O   0  0  0  0  0  0  0  0  0  0  0  0
   47.0224   52.9506   35.3255 C   0  0  1  0  0  0  0  0  0  0  0  0
   47.4715   51.6579   35.6154 O   0  0  0  0  0  0  0  0  0  0  0  0
   47.7283   53.6161   34.0489 C   0  0  1  0  0  0  0  0  0  0  0  0
   47.4741   52.9413   32.8082 O   0  0  0  0  0  0  0  0  0  0  0  0
   46.8626   54.8319   34.2871 C   0  0  1  0  0  0  0  0  0  0  0  0
   40.5524   51.9691   32.0569 O   0  0  0  0  0  0  0  0  0  0  0  0
   49.4053   59.0102   33.1270 N   0  0  0  0  0  0  0  0  0  0  0  0
   49.7682   57.9206   33.8057 C   0  0  0  0  0  0  0  0  0  0  0  0
   48.9470   56.8830   33.9610 N   0  0  0  0  0  0  0  0  0  0  0  0
   47.6740   56.9420   33.5477 C   0  0  0  0  0  0  0  0  0  0  0  0
   47.2256   58.1223   32.8735 C   0  0  0  0  0  0  0  0  0  0  0  0
   48.1690   59.1670   32.6714 C   0  0  0  0  0  0  0  0  0  0  0  0
   47.8262   60.3191   32.0211 N   0  0  0  0  0  0  0  0  0  0  0  0
   45.9264   57.9356   32.5694 N   0  0  0  0  0  0  0  0  0  0  0  0
   45.5418   56.7545   33.0004 C   0  0  0  0  0  0  0  0  0  0  0  0
   46.5751   56.0787   33.6018 N   0  0  0  0  0  0  0  0  0  0  0  0
  2  1  1  6  0  0  0
  2  3  1  0  0  0  0
  2  5  1  0  0  0  0
  3  4  1  0  0  0  0
  3 17  1  0  0  0  0
  5  6  1  0  0  0  0
  7  6  1  1  0  0  0
  7  8  1  0  0  0  0
  7  9  1  0  0  0  0
 10  9  1  1  0  0  0
 10 11  1  0  0  0  0
 10 12  1  0  0  0  0
 11 16  1  0  0  0  0
 12 13  1  6  0  0  0
 12 14  1  0  0  0  0
 14 15  1  6  0  0  0
 14 16  1  0  0  0  0
 16 27  1  6  0  0  0
 18 19  2  0  0  0  0
 18 23  1  0  0  0  0
 19 20  1  0  0  0  0
 20 21  2  0  0  0  0
 21 22  1  0  0  0  0
 21 27  1  0  0  0  0
 22 23  2  0  0  0  0
 22 25  1  0  0  0  0
 23 24  1  0  0  0  0
 25 26  2  0  0  0  0
 26 27  1  0  0  0  0
M  END
>  <CHROM.1>
127.70971000,-158.51103143,-72.63085431,-75.24882123,-79.64412362,67.78100590
-176.22344060,45.21595886,54.79460873,33.51505806,2.55751493,0.37739717,2.65020721

>  <Name>
ligand

>  <RI>
0

>  <Rbt.Current_Directory>
/home/itssahil/PROJECTS/Mol_Feturizer/New_Systems/rnas/3IQN

>  <Rbt.Executable>
rbdock ($Id: //depot/dev/client3/rdock/2013.1/src/exe/rbdock.cxx#4 $)

>  <Rbt.Library>
libRbt.so (2013.1, Build901 2013/11/27)

>  <Rbt.Parameter_File>
/export/apps/rDock/src/rDock_2013.1_src/data/scripts/dock_solv.prm

>  <Rbt.Receptor>
prm/pocket_docking_8.prm

>  <SCORE>
-18.5506

>  <SCORE.INTER>
-14.143

>  <SCORE.INTER.CONST>
1

>  <SCORE.INTER.POLAR>
0

>  <SCORE.INTER.ROT>
7

>  <SCORE.INTER.SOLV>
16.812

>  <SCORE.INTER.VDW>
-23.2993

>  <SCORE.INTER.norm>
-0.523816

>  <SCORE.INTRA>
-4.40761

>  <SCORE.INTRA.DIHEDRAL>
-3.76039

>  <SCORE.INTRA.DIHEDRAL.0>
10.0365

>  <SCORE.INTRA.POLAR>
0

>  <SCORE.INTRA.POLAR.0>
0

>  <SCORE.INTRA.REPUL>
0

>  <SCORE.INTRA.REPUL.0>
0

>  <SCORE.INTRA.SOLV>
-0.934901

>  <SCORE.INTRA.SOLV.lig_0>
-48.6728

>  <SCORE.INTRA.VDW>
-2.05997

>  <SCORE.INTRA.VDW.0>
-1.10662

>  <SCORE.INTRA.norm>
-0.163245

>  <SCORE.RESTR>
0

>  <SCORE.RESTR.CAVITY>
0

>  <SCORE.RESTR.norm>
0

>  <SCORE.SYSTEM>
0

>  <SCORE.SYSTEM.CONST>
0

>  <SCORE.SYSTEM.DIHEDRAL>
0

>  <SCORE.SYSTEM.SOLV>
0

>  <SCORE.SYSTEM.norm>
0

>  <SCORE.heavy>
27

>  <SCORE.norm>
-0.687061

>  <RMSD>
5.756

$$$$
ligand
 OpenBabel11021811483D
libRbt.so/2013.1/901 2013/11/27
 27 29  0  0  0  0  0  0  0  0999 V2000
   47.0962   52.1377   27.9421 N   0  0  0  0  0  0  0  0  0  0  0  0
   48.4024   52.7659   27.7042 C   0  0  2  0  0  0  0  0  0  0  0  0
   49.4725   51.7469   27.9571 C   0  0  0  0  0  0  0  0  0  0  0  0
   50.4484   51.6939   27.2255 O   0  0  0  0  0  0  0  0  0  0  0  0
   48.6002   53.9600   28.6499 C   0  0  0  0  0  0  0  0  0  0  0  0
   47.4614   54.9530   28.4373 C   0  0  0  0  0  0  0  0  0  0  0  0
   47.5716   56.4233   29.5067 S   0  0  2  0  0  0  0  0  0  0  0  0
   48.9786   57.3666   28.8427 C   0  0  0  0  0  0  0  0  0  0  0  0
   48.2806   55.9909   31.1365 C   0  0  0  0  0  0  0  0  0  0  0  0
   47.3213   54.9514   31.6622 C   0  0  1  0  0  0  0  0  0  0  0  0
   47.8773   54.5693   32.8769 O   0  0  0  0  0  0  0  0  0  0  0  0
   45.8950   55.3072   32.0841 C   0  0  1  0  0  0  0  0  0  0  0  0
   44.9786   55.1880   31.0339 O   0  0  0  0  0  0  0  0  0  0  0  0
   45.7088   54.2122   33.2404 C   0  0  1  0  0  0  0  0  0  0  0  0
   45.9313   52.8581   32.8204 O   0  0  0  0  0  0  0  0  0  0  0  0
   46.8859   54.8497   33.9420 C   0  0  1  0  0  0  0  0  0  0  0  0
   49.3703   50.9838   28.9047 O   0  0  0  0  0  0  0  0  0  0  0  0
   46.2896   52.4463   38.3165 N   0  0  0  0  0  0  0  0  0  0  0  0
   45.4348   52.6825   37.3201 C   0  0  0  0  0  0  0  0  0  0  0  0
   45.8112   53.3040   36.2032 N   0  0  0  0  0  0  0  0  0  0  0  0
   47.0374   53.8308   36.0859 C   0  0  0  0  0  0  0  0  0  0  0  0
   47.9646   53.6571   37.1624 C   0  0  0  0  0  0  0  0  0  0  0  0
   47.5288   52.9204   38.2980 C   0  0  0  0  0  0  0  0  0  0  0  0
   48.3581   52.6944   39.3604 N   0  0  0  0  0  0  0  0  0  0  0  0
   49.1072   54.2751   36.8049 N   0  0  0  0  0  0  0  0  0  0  0  0
   48.9594   54.8128   35.6141 C   0  0  0  0  0  0  0  0  0  0  0  0
   47.7092   54.5643   35.1029 N   0  0  0  0  0  0  0  0  0  0  0  0
  2  1  1  1  0  0  0
  2  3  1  0  0  0  0
  2  5  1  0  0  0  0
  3  4  1  0  0  0  0
  3 17  1  0  0  0  0
  5  6  1  0  0  0  0
  7  6  1  6  0  0  0
  7  8  1  0  0  0  0
  7  9  1  0  0  0  0
 10  9  1  1  0  0  0
 10 11  1  0  0  0  0
 10 12  1  0  0  0  0
 11 16  1  0  0  0  0
 12 13  1  6  0  0  0
 12 14  1  0  0  0  0
 14 15  1  6  0  0  0
 14 16  1  0  0  0  0
 16 27  1  1  0  0  0
 18 19  2  0  0  0  0
 18 23  1  0  0  0  0
 19 20  1  0  0  0  0
 20 21  2  0  0  0  0
 21 22  1  0  0  0  0
 21 27  1  0  0  0  0
 22 23  2  0  0  0  0
 22 25  1  0  0  0  0
 23 24  1  0  0  0  0
 25 26  2  0  0  0  0
 26 27  1  0  0  0  0
M  END
>  <CHROM.1>
140.17481805,-57.60172705,179.83022821,71.01026454,-58.85863369,177.52828124
-137.10303582,47.58518847,54.01158804,32.46454545,-1.21523335,-1.16470989
1.95038161

>  <Name>
ligand

>  <RI>
0

>  <Rbt.Current_Directory>
/home/itssahil/PROJECTS/Mol_Feturizer/New_Systems/rnas/3IQN

>  <Rbt.Executable>
rbdock ($Id: //depot/dev/client3/rdock/2013.1/src/exe/rbdock.cxx#4 $)

>  <Rbt.Library>
libRbt.so (2013.1, Build901 2013/11/27)

>  <Rbt.Parameter_File>
/export/apps/rDock/src/rDock_2013.1_src/data/scripts/dock_solv.prm

>  <Rbt.Receptor>
prm/pocket_docking_7.prm

>  <SCORE>
-11.3302

>  <SCORE.INTER>
-7.04509

>  <SCORE.INTER.CONST>
1

>  <SCORE.INTER.POLAR>
0

>  <SCORE.INTER.ROT>
7

>  <SCORE.INTER.SOLV>
11.5906

>  <SCORE.INTER.VDW>
-16.8269

>  <SCORE.INTER.norm>
-0.260929

>  <SCORE.INTRA>
-4.28516

>  <SCORE.INTRA.DIHEDRAL>
-5.96718

>  <SCORE.INTRA.DIHEDRAL.0>
10.0365

>  <SCORE.INTRA.POLAR>
0

>  <SCORE.INTRA.POLAR.0>
0

>  <SCORE.INTRA.REPUL>
0

>  <SCORE.INTRA.REPUL.0>
0

>  <SCORE.INTRA.SOLV>
-0.0435975

>  <SCORE.INTRA.SOLV.lig_0>
-48.6728

>  <SCORE.INTRA.VDW>
-1.27977

>  <SCORE.INTRA.VDW.0>
-1.10662

>  <SCORE.INTRA.norm>
-0.15871

>  <SCORE.RESTR>
0

>  <SCORE.RESTR.CAVITY>
0

>  <SCORE.RESTR.norm>
0

>  <SCORE.SYSTEM>
0

>  <SCORE.SYSTEM.CONST>
0

>  <SCORE.SYSTEM.DIHEDRAL>
0

>  <SCORE.SYSTEM.SOLV>
0

>  <SCORE.SYSTEM.norm>
0

>  <SCORE.heavy>
27

>  <SCORE.norm>
-0.419639

>  <RMSD>
5.759

$$$$
ligand
 OpenBabel11021811483D
libRbt.so/2013.1/901 2013/11/27
 27 29  0  0  0  0  0  0  0  0999 V2000
   47.7153   57.5573   28.2817 N   0  0  0  0  0  0  0  0  0  0  0  0
   46.6878   57.1751   29.2592 C   0  0  2  0  0  0  0  0  0  0  0  0
   45.4907   56.6648   28.5149 C   0  0  0  0  0  0  0  0  0  0  0  0
   44.4369   56.4868   29.1048 O   0  0  0  0  0  0  0  0  0  0  0  0
   46.2820   58.3888   30.1087 C   0  0  0  0  0  0  0  0  0  0  0  0
   47.5130   58.9123   30.8427 C   0  0  0  0  0  0  0  0  0  0  0  0
   47.5663   58.4375   32.6003 S   0  0  2  0  0  0  0  0  0  0  0  0
   49.2519   58.8626   33.1375 C   0  0  0  0  0  0  0  0  0  0  0  0
   47.6750   56.6204   32.7805 C   0  0  0  0  0  0  0  0  0  0  0  0
   46.2555   56.1673   32.5428 C   0  0  1  0  0  0  0  0  0  0  0  0
   46.3263   55.4643   31.3463 O   0  0  0  0  0  0  0  0  0  0  0  0
   45.5701   55.1452   33.4509 C   0  0  1  0  0  0  0  0  0  0  0  0
   44.8835   55.7446   34.5120 O   0  0  0  0  0  0  0  0  0  0  0  0
   44.6157   54.4599   32.3599 C   0  0  1  0  0  0  0  0  0  0  0  0
   43.7554   55.3730   31.6630 O   0  0  0  0  0  0  0  0  0  0  0  0
   45.8667   54.0789   31.6021 C   0  0  1  0  0  0  0  0  0  0  0  0
   45.5713   56.4440   27.3167 O   0  0  0  0  0  0  0  0  0  0  0  0
   50.0289   52.5031   29.2650 N   0  0  0  0  0  0  0  0  0  0  0  0
   49.8535   53.0738   30.4579 C   0  0  0  0  0  0  0  0  0  0  0  0
   48.6413   53.3737   30.9225 N   0  0  0  0  0  0  0  0  0  0  0  0
   47.5525   53.2288   30.1554 C   0  0  0  0  0  0  0  0  0  0  0  0
   47.7066   52.6815   28.8419 C   0  0  0  0  0  0  0  0  0  0  0  0
   49.0162   52.3112   28.4294 C   0  0  0  0  0  0  0  0  0  0  0  0
   49.2464   51.7653   27.1978 N   0  0  0  0  0  0  0  0  0  0  0  0
   46.4818   52.6445   28.2818 N   0  0  0  0  0  0  0  0  0  0  0  0
   45.5985   53.1230   29.1301 C   0  0  0  0  0  0  0  0  0  0  0  0
   46.1878   53.4893   30.3151 N   0  0  0  0  0  0  0  0  0  0  0  0
  2  1  1  6  0  0  0
  2  3  1  0  0  0  0
  2  5  1  0  0  0  0
  3  4  1  0  0  0  0
  3 17  1  0  0  0  0
  5  6  1  0  0  0  0
  7  6  1  6  0  0  0
  7  8  1  0  0  0  0
  7  9  1  0  0  0  0
 10  9  1  1  0  0  0
 10 11  1  0  0  0  0
 10 12  1  0  0  0  0
 11 16  1  0  0  0  0
 12 13  1  1  0  0  0
 12 14  1  0  0  0  0
 14 15  1  6  0  0  0
 14 16  1  0  0  0  0
 16 27  1  6  0  0  0
 18 19  2  0  0  0  0
 18 23  1  0  0  0  0
 19 20  1  0  0  0  0
 20 21  2  0  0  0  0
 21 22  1  0  0  0  0
 21 27  1  0  0  0  0
 22 23  2  0  0  0  0
 22 25  1  0  0  0  0
 23 24  1  0  0  0  0
 25 26  2  0  0  0  0
 26 27  1  0  0  0  0
M  END
>  <CHROM.1>
-168.47065788,-59.81639555,-102.70633333,168.35526748,-78.46834697,112.80079838
76.60640259,46.86405397,55.41885230,30.59403704,-2.20783898,-1.16527955,-3.09460239

>  <Name>
ligand

>  <RI>
0

>  <Rbt.Current_Directory>
/home/itssahil/PROJECTS/Mol_Feturizer/New_Systems/rnas/3IQN

>  <Rbt.Executable>
rbdock ($Id: //depot/dev/client3/rdock/2013.1/src/exe/rbdock.cxx#4 $)

>  <Rbt.Library>
libRbt.so (2013.1, Build901 2013/11/27)

>  <Rbt.Parameter_File>
/export/apps/rDock/src/rDock_2013.1_src/data/scripts/dock_solv.prm

>  <Rbt.Receptor>
prm/pocket_docking_4.prm

>  <SCORE>
-11.637

>  <SCORE.INTER>
-10.1426

>  <SCORE.INTER.CONST>
1

>  <SCORE.INTER.POLAR>
0

>  <SCORE.INTER.ROT>
7

>  <SCORE.INTER.SOLV>
11.3588

>  <SCORE.INTER.VDW>
-18.8147

>  <SCORE.INTER.norm>
-0.375653

>  <SCORE.INTRA>
-1.49435

>  <SCORE.INTRA.DIHEDRAL>
2.86181

>  <SCORE.INTRA.DIHEDRAL.0>
10.0365

>  <SCORE.INTRA.POLAR>
0

>  <SCORE.INTRA.POLAR.0>
0

>  <SCORE.INTRA.REPUL>
0

>  <SCORE.INTRA.REPUL.0>
0

>  <SCORE.INTRA.SOLV>
0.721024

>  <SCORE.INTRA.SOLV.lig_0>
-48.6728

>  <SCORE.INTRA.VDW>
-3.28577

>  <SCORE.INTRA.VDW.0>
-1.10662

>  <SCORE.INTRA.norm>
-0.0553462

>  <SCORE.RESTR>
0

>  <SCORE.RESTR.CAVITY>
0

>  <SCORE.RESTR.norm>
0

>  <SCORE.SYSTEM>
0

>  <SCORE.SYSTEM.CONST>
0

>  <SCORE.SYSTEM.DIHEDRAL>
0

>  <SCORE.SYSTEM.SOLV>
0

>  <SCORE.SYSTEM.norm>
0

>  <SCORE.heavy>
27

>  <SCORE.norm>
-0.430999

>  <RMSD>
5.767

$$$$
ligand
 OpenBabel11021811483D
libRbt.so/2013.1/901 2013/11/27
 27 29  0  0  0  0  0  0  0  0999 V2000
   48.5449   58.0355   30.5460 N   0  0  0  0  0  0  0  0  0  0  0  0
   48.3447   57.1035   31.6634 C   0  0  2  0  0  0  0  0  0  0  0  0
   47.7905   57.8691   32.8270 C   0  0  0  0  0  0  0  0  0  0  0  0
   46.6014   57.7967   33.0932 O   0  0  0  0  0  0  0  0  0  0  0  0
   49.6794   56.4582   32.0654 C   0  0  0  0  0  0  0  0  0  0  0  0
   49.3993   55.1046   32.7116 C   0  0  0  0  0  0  0  0  0  0  0  0
   48.5327   55.2285   34.3088 S   0  0  2  0  0  0  0  0  0  0  0  0
   49.4788   54.1490   35.4268 C   0  0  0  0  0  0  0  0  0  0  0  0
   46.9689   54.2803   34.2760 C   0  0  0  0  0  0  0  0  0  0  0  0
   46.1529   55.0019   33.2317 C   0  0  1  0  0  0  0  0  0  0  0  0
   46.6277   54.4941   32.0286 O   0  0  0  0  0  0  0  0  0  0  0  0
   44.6483   54.7728   33.0807 C   0  0  1  0  0  0  0  0  0  0  0  0
   43.8898   55.6583   33.8536 O   0  0  0  0  0  0  0  0  0  0  0  0
   44.5278   55.0173   31.5007 C   0  0  1  0  0  0  0  0  0  0  0  0
   45.0285   56.2860   31.0541 O   0  0  0  0  0  0  0  0  0  0  0  0
   45.4900   53.8665   31.3163 C   0  0  1  0  0  0  0  0  0  0  0  0
   48.5355   58.5505   33.5137 O   0  0  0  0  0  0  0  0  0  0  0  0
   46.6412   55.1215   26.5868 N   0  0  0  0  0  0  0  0  0  0  0  0
   45.9229   55.7564   27.5143 C   0  0  0  0  0  0  0  0  0  0  0  0
   45.7775   55.2696   28.7461 N   0  0  0  0  0  0  0  0  0  0  0  0
   46.2443   54.0560   29.0685 C   0  0  0  0  0  0  0  0  0  0  0  0
   46.9638   53.3127   28.0794 C   0  0  0  0  0  0  0  0  0  0  0  0
   47.1511   53.9161   26.8054 C   0  0  0  0  0  0  0  0  0  0  0  0
   47.8417   53.2808   25.8119 N   0  0  0  0  0  0  0  0  0  0  0  0
   47.3169   52.1411   28.6432 N   0  0  0  0  0  0  0  0  0  0  0  0
   46.8747   52.1005   29.8808 C   0  0  0  0  0  0  0  0  0  0  0  0
   46.2155   53.2576   30.2164 N   0  0  0  0  0  0  0  0  0  0  0  0
  2  1  1  6  0  0  0
  2  3  1  0  0  0  0
  2  5  1  0  0  0  0
  3  4  1  0  0  0  0
  3 17  1  0  0  0  0
  5  6  1  0  0  0  0
  7  6  1  6  0  0  0
  7  8  1  0  0  0  0
  7  9  1  0  0  0  0
 10  9  1  1  0  0  0
 10 11  1  0  0  0  0
 10 12  1  0  0  0  0
 11 16  1  0  0  0  0
 12 13  1  1  0  0  0
 12 14  1  0  0  0  0
 14 15  1  1  0  0  0
 14 16  1  0  0  0  0
 16 27  1  6  0  0  0
 18 19  2  0  0  0  0
 18 23  1  0  0  0  0
 19 20  1  0  0  0  0
 20 21  2  0  0  0  0
 21 22  1  0  0  0  0
 21 27  1  0  0  0  0
 22 23  2  0  0  0  0
 22 25  1  0  0  0  0
 23 24  1  0  0  0  0
 25 26  2  0  0  0  0
 26 27  1  0  0  0  0
M  END
>  <CHROM.1>
102.52092335,-154.03272034,-66.81860304,-131.74555017,-64.08997804,81.38854821
-94.72539458,47.01086253,55.16498844,31.28491911,-1.35010403,-0.72778329
-1.76175476

>  <Name>
ligand

>  <RI>
0

>  <Rbt.Current_Directory>
/home/itssahil/PROJECTS/Mol_Feturizer/New_Systems/rnas/3IQN

>  <Rbt.Executable>
rbdock ($Id: //depot/dev/client3/rdock/2013.1/src/exe/rbdock.cxx#4 $)

>  <Rbt.Library>
libRbt.so (2013.1, Build901 2013/11/27)

>  <Rbt.Parameter_File>
/export/apps/rDock/src/rDock_2013.1_src/data/scripts/dock_solv.prm

>  <Rbt.Receptor>
prm/pocket_docking_4.prm

>  <SCORE>
-11.6761

>  <SCORE.INTER>
-8.977

>  <SCORE.INTER.CONST>
1

>  <SCORE.INTER.POLAR>
0

>  <SCORE.INTER.ROT>
7

>  <SCORE.INTER.SOLV>
7.27292

>  <SCORE.INTER.VDW>
-16.6756

>  <SCORE.INTER.norm>
-0.332481

>  <SCORE.INTRA>
-2.69905

>  <SCORE.INTRA.DIHEDRAL>
1.46677

>  <SCORE.INTRA.DIHEDRAL.0>
10.0365

>  <SCORE.INTRA.POLAR>
0

>  <SCORE.INTRA.POLAR.0>
0

>  <SCORE.INTRA.REPUL>
0

>  <SCORE.INTRA.REPUL.0>
0

>  <SCORE.INTRA.SOLV>
0.237078

>  <SCORE.INTRA.SOLV.lig_0>
-48.6728

>  <SCORE.INTRA.VDW>
-3.55098

>  <SCORE.INTRA.VDW.0>
-1.10662

>  <SCORE.INTRA.norm>
-0.099965

>  <SCORE.RESTR>
0

>  <SCORE.RESTR.CAVITY>
0

>  <SCORE.RESTR.norm>
0

>  <SCORE.SYSTEM>
0

>  <SCORE.SYSTEM.CONST>
0

>  <SCORE.SYSTEM.DIHEDRAL>
0

>  <SCORE.SYSTEM.SOLV>
0

>  <SCORE.SYSTEM.norm>
0

>  <SCORE.heavy>
27

>  <SCORE.norm>
-0.432446

>  <RMSD>
5.783

$$$$
ligand
 OpenBabel11021811483D
libRbt.so/2013.1/901 2013/11/27
 27 29  0  0  0  0  0  0  0  0999 V2000
   43.9740   55.3956   33.2804 N   0  0  0  0  0  0  0  0  0  0  0  0
   44.8845   56.3633   32.6543 C   0  0  2  0  0  0  0  0  0  0  0  0
   45.2318   55.8695   31.2820 C   0  0  0  0  0  0  0  0  0  0  0  0
   45.3442   56.6616   30.3600 O   0  0  0  0  0  0  0  0  0  0  0  0
   46.1678   56.5039   33.4866 C   0  0  0  0  0  0  0  0  0  0  0  0
   47.1080   57.4793   32.7845 C   0  0  0  0  0  0  0  0  0  0  0  0
   48.6793   57.7364   33.6690 S   0  0  2  0  0  0  0  0  0  0  0  0
   49.6329   58.8505   32.5919 C   0  0  0  0  0  0  0  0  0  0  0  0
   49.7475   56.2570   33.5417 C   0  0  0  0  0  0  0  0  0  0  0  0
   48.8537   55.1459   34.0354 C   0  0  1  0  0  0  0  0  0  0  0  0
   48.3432   54.5867   32.8704 O   0  0  0  0  0  0  0  0  0  0  0  0
   49.4143   53.9100   34.7405 C   0  0  1  0  0  0  0  0  0  0  0  0
   49.4810   54.0676   36.1289 O   0  0  0  0  0  0  0  0  0  0  0  0
   48.3200   52.8429   34.2564 C   0  0  1  0  0  0  0  0  0  0  0  0
   46.9644   53.1961   34.5684 O   0  0  0  0  0  0  0  0  0  0  0  0
   48.7367   53.1584   32.8382 C   0  0  1  0  0  0  0  0  0  0  0  0
   45.4162   54.6769   31.0962 O   0  0  0  0  0  0  0  0  0  0  0  0
   50.7686   52.9976   28.2432 N   0  0  0  0  0  0  0  0  0  0  0  0
   51.2827   53.3617   29.4191 C   0  0  0  0  0  0  0  0  0  0  0  0
   50.5807   53.2809   30.5487 N   0  0  0  0  0  0  0  0  0  0  0  0
   49.2831   52.9478   30.5329 C   0  0  0  0  0  0  0  0  0  0  0  0
   48.6755   52.6147   29.2805 C   0  0  0  0  0  0  0  0  0  0  0  0
   49.4949   52.6471   28.1187 C   0  0  0  0  0  0  0  0  0  0  0  0
   48.9966   52.3256   26.8875 N   0  0  0  0  0  0  0  0  0  0  0  0
   47.3837   52.3258   29.5312 N   0  0  0  0  0  0  0  0  0  0  0  0
   47.1479   52.4574   30.8180 C   0  0  0  0  0  0  0  0  0  0  0  0
   48.2813   52.8249   31.5009 N   0  0  0  0  0  0  0  0  0  0  0  0
  2  1  1  1  0  0  0
  2  3  1  0  0  0  0
  2  5  1  0  0  0  0
  3  4  1  0  0  0  0
  3 17  1  0  0  0  0
  5  6  1  0  0  0  0
  7  6  1  6  0  0  0
  7  8  1  0  0  0  0
  7  9  1  0  0  0  0
 10  9  1  6  0  0  0
 10 11  1  0  0  0  0
 10 12  1  0  0  0  0
 11 16  1  0  0  0  0
 12 13  1  1  0  0  0
 12 14  1  0  0  0  0
 14 15  1  6  0  0  0
 14 16  1  0  0  0  0
 16 27  1  6  0  0  0
 18 19  2  0  0  0  0
 18 23  1  0  0  0  0
 19 20  1  0  0  0  0
 20 21  2  0  0  0  0
 21 22  1  0  0  0  0
 21 27  1  0  0  0  0
 22 23  2  0  0  0  0
 22 25  1  0  0  0  0
 23 24  1  0  0  0  0
 25 26  2  0  0  0  0
 26 27  1  0  0  0  0
M  END
>  <CHROM.1>
142.08201417,178.13779063,-179.88328947,177.07113871,-53.86489985,96.98487788
93.68530966,48.07521537,54.66761514,31.97011456,1.91517450,-0.44333447,1.05970849

>  <Name>
ligand

>  <RI>
0

>  <Rbt.Current_Directory>
/home/itssahil/PROJECTS/Mol_Feturizer/New_Systems/rnas/3IQN

>  <Rbt.Executable>
rbdock ($Id: //depot/dev/client3/rdock/2013.1/src/exe/rbdock.cxx#4 $)

>  <Rbt.Library>
libRbt.so (2013.1, Build901 2013/11/27)

>  <Rbt.Parameter_File>
/export/apps/rDock/src/rDock_2013.1_src/data/scripts/dock_solv.prm

>  <Rbt.Receptor>
prm/pocket_docking_6.prm

>  <SCORE>
-22.3811

>  <SCORE.INTER>
-18.4237

>  <SCORE.INTER.CONST>
1

>  <SCORE.INTER.POLAR>
0

>  <SCORE.INTER.ROT>
7

>  <SCORE.INTER.SOLV>
11.4408

>  <SCORE.INTER.VDW>
-24.3628

>  <SCORE.INTER.norm>
-0.68236

>  <SCORE.INTRA>
-3.9574

>  <SCORE.INTRA.DIHEDRAL>
-3.17178

>  <SCORE.INTRA.DIHEDRAL.0>
10.0365

>  <SCORE.INTRA.POLAR>
0

>  <SCORE.INTRA.POLAR.0>
0

>  <SCORE.INTRA.REPUL>
0

>  <SCORE.INTRA.REPUL.0>
0

>  <SCORE.INTRA.SOLV>
-0.439579

>  <SCORE.INTRA.SOLV.lig_0>
-48.6728

>  <SCORE.INTRA.VDW>
-2.15172

>  <SCORE.INTRA.VDW.0>
-1.10662

>  <SCORE.INTRA.norm>
-0.14657

>  <SCORE.RESTR>
0

>  <SCORE.RESTR.CAVITY>
0

>  <SCORE.RESTR.norm>
0

>  <SCORE.SYSTEM>
0

>  <SCORE.SYSTEM.CONST>
0

>  <SCORE.SYSTEM.DIHEDRAL>
0

>  <SCORE.SYSTEM.SOLV>
0

>  <SCORE.SYSTEM.norm>
0

>  <SCORE.heavy>
27

>  <SCORE.norm>
-0.82893

>  <RMSD>
5.783

$$$$
ligand
 OpenBabel11021811483D
libRbt.so/2013.1/901 2013/11/27
 27 29  0  0  0  0  0  0  0  0999 V2000
   50.3629   55.8614   30.1060 N   0  0  0  0  0  0  0  0  0  0  0  0
   50.2940   54.6499   29.2785 C   0  0  2  0  0  0  0  0  0  0  0  0
   51.5570   54.5496   28.4772 C   0  0  0  0  0  0  0  0  0  0  0  0
   52.0469   55.5531   27.9840 O   0  0  0  0  0  0  0  0  0  0  0  0
   49.0899   54.7213   28.3275 C   0  0  0  0  0  0  0  0  0  0  0  0
   47.8060   54.6681   29.1504 C   0  0  0  0  0  0  0  0  0  0  0  0
   47.4374   53.0123   29.8137 S   0  0  2  0  0  0  0  0  0  0  0  0
   46.1607   52.3481   28.7004 C   0  0  0  0  0  0  0  0  0  0  0  0
   46.4327   53.1307   31.3376 C   0  0  0  0  0  0  0  0  0  0  0  0
   47.3960   53.7215   32.3377 C   0  0  1  0  0  0  0  0  0  0  0  0
   46.7293   53.6050   33.5512 O   0  0  0  0  0  0  0  0  0  0  0  0
   48.7326   53.0540   32.6648 C   0  0  1  0  0  0  0  0  0  0  0  0
   49.7732   53.5057   31.8463 O   0  0  0  0  0  0  0  0  0  0  0  0
   48.8596   53.5134   34.1956 C   0  0  1  0  0  0  0  0  0  0  0  0
   48.7875   54.9320   34.4001 O   0  0  0  0  0  0  0  0  0  0  0  0
   47.5643   52.7787   34.4543 C   0  0  1  0  0  0  0  0  0  0  0  0
   52.0992   53.4649   28.3346 O   0  0  0  0  0  0  0  0  0  0  0  0
   47.6527   53.5706   39.4176 N   0  0  0  0  0  0  0  0  0  0  0  0
   48.5996   53.7104   38.4885 C   0  0  0  0  0  0  0  0  0  0  0  0
   48.3546   53.4945   37.1967 N   0  0  0  0  0  0  0  0  0  0  0  0
   47.1756   53.0051   36.7899 C   0  0  0  0  0  0  0  0  0  0  0  0
   46.1538   52.7773   37.7660 C   0  0  0  0  0  0  0  0  0  0  0  0
   46.4496   53.0967   39.1198 C   0  0  0  0  0  0  0  0  0  0  0  0
   45.5232   52.9256   40.1098 N   0  0  0  0  0  0  0  0  0  0  0  0
   45.0834   52.2858   37.1118 N   0  0  0  0  0  0  0  0  0  0  0  0
   45.3609   52.1885   35.8303 C   0  0  0  0  0  0  0  0  0  0  0  0
   46.6322   52.6303   35.5571 N   0  0  0  0  0  0  0  0  0  0  0  0
  2  1  1  6  0  0  0
  2  3  1  0  0  0  0
  2  5  1  0  0  0  0
  3  4  1  0  0  0  0
  3 17  1  0  0  0  0
  5  6  1  0  0  0  0
  7  6  1  6  0  0  0
  7  8  1  0  0  0  0
  7  9  1  0  0  0  0
 10  9  1  6  0  0  0
 10 11  1  0  0  0  0
 10 12  1  0  0  0  0
 11 16  1  0  0  0  0
 12 13  1  6  0  0  0
 12 14  1  0  0  0  0
 14 15  1  6  0  0  0
 14 16  1  0  0  0  0
 16 27  1  1  0  0  0
 18 19  2  0  0  0  0
 18 23  1  0  0  0  0
 19 20  1  0  0  0  0
 20 21  2  0  0  0  0
 21 22  1  0  0  0  0
 21 27  1  0  0  0  0
 22 23  2  0  0  0  0
 22 25  1  0  0  0  0
 23 24  1  0  0  0  0
 25 26  2  0  0  0  0
 26 27  1  0  0  0  0
M  END
>  <CHROM.1>
-40.24925840,-66.89467337,-74.06970406,-101.24500250,-69.11305853,-170.07248875
-126.86138908,48.09977995,53.58159006,33.11338549,-1.20764790,0.39028089
1.56167948

>  <Name>
ligand

>  <RI>
0

>  <Rbt.Current_Directory>
/home/itssahil/PROJECTS/Mol_Feturizer/New_Systems/rnas/3IQN

>  <Rbt.Executable>
rbdock ($Id: //depot/dev/client3/rdock/2013.1/src/exe/rbdock.cxx#4 $)

>  <Rbt.Library>
libRbt.so (2013.1, Build901 2013/11/27)

>  <Rbt.Parameter_File>
/export/apps/rDock/src/rDock_2013.1_src/data/scripts/dock_solv.prm

>  <Rbt.Receptor>
prm/pocket_docking_8.prm

>  <SCORE>
-16.3421

>  <SCORE.INTER>
-13.7605

>  <SCORE.INTER.CONST>
1

>  <SCORE.INTER.POLAR>
0

>  <SCORE.INTER.ROT>
7

>  <SCORE.INTER.SOLV>
11.0132

>  <SCORE.INTER.VDW>
-21.1114

>  <SCORE.INTER.norm>
-0.509649

>  <SCORE.INTRA>
-2.58155

>  <SCORE.INTRA.DIHEDRAL>
-3.03346

>  <SCORE.INTRA.DIHEDRAL.0>
10.0365

>  <SCORE.INTRA.POLAR>
0

>  <SCORE.INTRA.POLAR.0>
0

>  <SCORE.INTRA.REPUL>
0

>  <SCORE.INTRA.REPUL.0>
0

>  <SCORE.INTRA.SOLV>
2.18057

>  <SCORE.INTRA.SOLV.lig_0>
-48.6728

>  <SCORE.INTRA.VDW>
-2.15511

>  <SCORE.INTRA.VDW.0>
-1.10662

>  <SCORE.INTRA.norm>
-0.095613

>  <SCORE.RESTR>
0

>  <SCORE.RESTR.CAVITY>
0

>  <SCORE.RESTR.norm>
0

>  <SCORE.SYSTEM>
0

>  <SCORE.SYSTEM.CONST>
0

>  <SCORE.SYSTEM.DIHEDRAL>
0

>  <SCORE.SYSTEM.SOLV>
0

>  <SCORE.SYSTEM.norm>
0

>  <SCORE.heavy>
27

>  <SCORE.norm>
-0.605262

>  <RMSD>
5.857

$$$$
ligand
 OpenBabel11021811483D
libRbt.so/2013.1/901 2013/11/27
 27 29  0  0  0  0  0  0  0  0999 V2000
   48.3388   52.5165   24.8551 N   0  0  0  0  0  0  0  0  0  0  0  0
   47.7280   52.9616   26.1146 C   0  0  2  0  0  0  0  0  0  0  0  0
   46.5530   52.0789   26.4106 C   0  0  0  0  0  0  0  0  0  0  0  0
   46.2890   51.7829   27.5651 O   0  0  0  0  0  0  0  0  0  0  0  0
   47.2552   54.4179   25.9926 C   0  0  0  0  0  0  0  0  0  0  0  0
   46.8192   54.9131   27.3685 C   0  0  0  0  0  0  0  0  0  0  0  0
   45.9451   56.5103   27.3214 S   0  0  2  0  0  0  0  0  0  0  0  0
   47.2439   57.7313   26.9571 C   0  0  0  0  0  0  0  0  0  0  0  0
   45.5160   57.0673   29.0100 C   0  0  0  0  0  0  0  0  0  0  0  0
   44.8399   55.8580   29.6080 C   0  0  1  0  0  0  0  0  0  0  0  0
   45.6347   55.5392   30.7022 O   0  0  0  0  0  0  0  0  0  0  0  0
   43.4573   55.9424   30.2562 C   0  0  1  0  0  0  0  0  0  0  0  0
   42.4221   55.6990   29.3474 O   0  0  0  0  0  0  0  0  0  0  0  0
   43.6412   54.7935   31.3594 C   0  0  1  0  0  0  0  0  0  0  0  0
   44.0213   53.5148   30.8305 O   0  0  0  0  0  0  0  0  0  0  0  0
   44.7883   55.6046   31.9167 C   0  0  1  0  0  0  0  0  0  0  0  0
   45.8552   51.6723   25.4949 O   0  0  0  0  0  0  0  0  0  0  0  0
   45.7495   52.3197   35.5983 N   0  0  0  0  0  0  0  0  0  0  0  0
   44.7321   52.4043   34.7397 C   0  0  0  0  0  0  0  0  0  0  0  0
   44.6901   53.3369   33.7891 N   0  0  0  0  0  0  0  0  0  0  0  0
   45.6099   54.3095   33.7347 C   0  0  0  0  0  0  0  0  0  0  0  0
   46.6828   54.2927   34.6820 C   0  0  0  0  0  0  0  0  0  0  0  0
   46.7148   53.2297   35.6260 C   0  0  0  0  0  0  0  0  0  0  0  0
   47.7146   53.1309   36.5525 N   0  0  0  0  0  0  0  0  0  0  0  0
   47.4575   55.3640   34.4222 N   0  0  0  0  0  0  0  0  0  0  0  0
   46.9529   56.0332   33.4091 C   0  0  0  0  0  0  0  0  0  0  0  0
   45.8185   55.4299   32.9242 N   0  0  0  0  0  0  0  0  0  0  0  0
  2  1  1  6  0  0  0
  2  3  1  0  0  0  0
  2  5  1  0  0  0  0
  3  4  1  0  0  0  0
  3 17  1  0  0  0  0
  5  6  1  0  0  0  0
  7  6  1  1  0  0  0
  7  8  1  0  0  0  0
  7  9  1  0  0  0  0
 10  9  1  1  0  0  0
 10 11  1  0  0  0  0
 10 12  1  0  0  0  0
 11 16  1  0  0  0  0
 12 13  1  6  0  0  0
 12 14  1  0  0  0  0
 14 15  1  6  0  0  0
 14 16  1  0  0  0  0
 16 27  1  1  0  0  0
 18 19  2  0  0  0  0
 18 23  1  0  0  0  0
 19 20  1  0  0  0  0
 20 21  2  0  0  0  0
 21 22  1  0  0  0  0
 21 27  1  0  0  0  0
 22 23  2  0  0  0  0
 22 25  1  0  0  0  0
 23 24  1  0  0  0  0
 25 26  2  0  0  0  0
 26 27  1  0  0  0  0
M  END
>  <CHROM.1>
144.51786541,-171.66354159,-169.12298553,-72.51673890,-50.51807307,119.70772121
-120.63490545,45.85237646,54.48748636,30.33874406,-1.38169248,-1.18896853
1.78254979

>  <Name>
ligand

>  <RI>
0

>  <Rbt.Current_Directory>
/home/itssahil/PROJECTS/Mol_Feturizer/New_Systems/rnas/3IQN

>  <Rbt.Executable>
rbdock ($Id: //depot/dev/client3/rdock/2013.1/src/exe/rbdock.cxx#4 $)

>  <Rbt.Library>
libRbt.so (2013.1, Build901 2013/11/27)

>  <Rbt.Parameter_File>
/export/apps/rDock/src/rDock_2013.1_src/data/scripts/dock_solv.prm

>  <Rbt.Receptor>
prm/pocket_docking_7.prm

>  <SCORE>
-10.8042

>  <SCORE.INTER>
-8.6752

>  <SCORE.INTER.CONST>
1

>  <SCORE.INTER.POLAR>
0

>  <SCORE.INTER.ROT>
7

>  <SCORE.INTER.SOLV>
12.436

>  <SCORE.INTER.VDW>
-18.1955

>  <SCORE.INTER.norm>
-0.321304

>  <SCORE.INTRA>
-2.12895

>  <SCORE.INTRA.DIHEDRAL>
-0.526419

>  <SCORE.INTRA.DIHEDRAL.0>
10.0365

>  <SCORE.INTRA.POLAR>
0

>  <SCORE.INTRA.POLAR.0>
0

>  <SCORE.INTRA.REPUL>
0

>  <SCORE.INTRA.REPUL.0>
0

>  <SCORE.INTRA.SOLV>
-1.02014

>  <SCORE.INTRA.SOLV.lig_0>
-48.6728

>  <SCORE.INTRA.VDW>
-1.35567

>  <SCORE.INTRA.VDW.0>
-1.10662

>  <SCORE.INTRA.norm>
-0.0788502

>  <SCORE.RESTR>
0

>  <SCORE.RESTR.CAVITY>
0

>  <SCORE.RESTR.norm>
0

>  <SCORE.SYSTEM>
0

>  <SCORE.SYSTEM.CONST>
0

>  <SCORE.SYSTEM.DIHEDRAL>
0

>  <SCORE.SYSTEM.SOLV>
0

>  <SCORE.SYSTEM.norm>
0

>  <SCORE.heavy>
27

>  <SCORE.norm>
-0.400154

>  <RMSD>
5.861

$$$$
ligand
 OpenBabel11021811483D
libRbt.so/2013.1/901 2013/11/27
 27 29  0  0  0  0  0  0  0  0999 V2000
   47.4329   51.5749   29.8653 N   0  0  0  0  0  0  0  0  0  0  0  0
   46.8667   52.6015   28.9806 C   0  0  2  0  0  0  0  0  0  0  0  0
   47.9400   53.0636   28.0415 C   0  0  0  0  0  0  0  0  0  0  0  0
   49.0703   53.2612   28.4581 O   0  0  0  0  0  0  0  0  0  0  0  0
   46.3599   53.7949   29.8042 C   0  0  0  0  0  0  0  0  0  0  0  0
   45.7064   54.8030   28.8635 C   0  0  0  0  0  0  0  0  0  0  0  0
   44.9224   56.2007   29.7291 S   0  0  2  0  0  0  0  0  0  0  0  0
   43.4205   56.5514   28.7638 C   0  0  0  0  0  0  0  0  0  0  0  0
   45.8246   57.7578   29.4012 C   0  0  0  0  0  0  0  0  0  0  0  0
   47.0258   57.6550   30.3088 C   0  0  1  0  0  0  0  0  0  0  0  0
   47.8862   56.8030   29.6272 O   0  0  0  0  0  0  0  0  0  0  0  0
   47.9400   58.8510   30.5787 C   0  0  1  0  0  0  0  0  0  0  0  0
   47.5370   59.5945   31.6930 O   0  0  0  0  0  0  0  0  0  0  0  0
   49.3166   58.0559   30.7874 C   0  0  1  0  0  0  0  0  0  0  0  0
   49.2722   57.0440   31.8041 O   0  0  0  0  0  0  0  0  0  0  0  0
   49.1514   57.5334   29.3789 C   0  0  1  0  0  0  0  0  0  0  0  0
   47.6817   53.2254   26.8592 O   0  0  0  0  0  0  0  0  0  0  0  0
   48.2696   55.4527   24.8887 N   0  0  0  0  0  0  0  0  0  0  0  0
   47.5600   56.3234   25.6083 C   0  0  0  0  0  0  0  0  0  0  0  0
   48.0017   56.7989   26.7719 N   0  0  0  0  0  0  0  0  0  0  0  0
   49.1237   56.3254   27.3301 C   0  0  0  0  0  0  0  0  0  0  0  0
   49.8801   55.3394   26.6199 C   0  0  0  0  0  0  0  0  0  0  0  0
   49.3971   54.9252   25.3481 C   0  0  0  0  0  0  0  0  0  0  0  0
   50.0695   54.0015   24.5982 N   0  0  0  0  0  0  0  0  0  0  0  0
   50.9443   55.0289   27.3856 N   0  0  0  0  0  0  0  0  0  0  0  0
   50.9026   55.7299   28.4972 C   0  0  0  0  0  0  0  0  0  0  0  0
   49.8120   56.5642   28.5238 N   0  0  0  0  0  0  0  0  0  0  0  0
  2  1  1  1  0  0  0
  2  3  1  0  0  0  0
  2  5  1  0  0  0  0
  3  4  1  0  0  0  0
  3 17  1  0  0  0  0
  5  6  1  0  0  0  0
  7  6  1  6  0  0  0
  7  8  1  0  0  0  0
  7  9  1  0  0  0  0
 10  9  1  6  0  0  0
 10 11  1  0  0  0  0
 10 12  1  0  0  0  0
 11 16  1  0  0  0  0
 12 13  1  1  0  0  0
 12 14  1  0  0  0  0
 14 15  1  1  0  0  0
 14 16  1  0  0  0  0
 16 27  1  1  0  0  0
 18 19  2  0  0  0  0
 18 23  1  0  0  0  0
 19 20  1  0  0  0  0
 20 21  2  0  0  0  0
 21 22  1  0  0  0  0
 21 27  1  0  0  0  0
 22 23  2  0  0  0  0
 22 25  1  0  0  0  0
 23 24  1  0  0  0  0
 25 26  2  0  0  0  0
 26 27  1  0  0  0  0
M  END
>  <CHROM.1>
-42.34978867,-176.72516844,174.65275751,-142.88120365,-77.96496036,78.84081208
62.19981964,47.86434092,55.76419846,28.58249744,1.12913583,-0.44145942,-2.49274406

>  <Name>
ligand

>  <RI>
0

>  <Rbt.Current_Directory>
/home/itssahil/PROJECTS/Mol_Feturizer/New_Systems/rnas/3IQN

>  <Rbt.Executable>
rbdock ($Id: //depot/dev/client3/rdock/2013.1/src/exe/rbdock.cxx#4 $)

>  <Rbt.Library>
libRbt.so (2013.1, Build901 2013/11/27)

>  <Rbt.Parameter_File>
/export/apps/rDock/src/rDock_2013.1_src/data/scripts/dock_solv.prm

>  <Rbt.Receptor>
prm/pocket_docking_4.prm

>  <SCORE>
-11.6545

>  <SCORE.INTER>
-6.20551

>  <SCORE.INTER.CONST>
1

>  <SCORE.INTER.POLAR>
0

>  <SCORE.INTER.ROT>
7

>  <SCORE.INTER.SOLV>
12.9923

>  <SCORE.INTER.VDW>
-16.7345

>  <SCORE.INTER.norm>
-0.229834

>  <SCORE.INTRA>
-5.45304

>  <SCORE.INTRA.DIHEDRAL>
-1.444

>  <SCORE.INTRA.DIHEDRAL.0>
10.0365

>  <SCORE.INTRA.POLAR>
0

>  <SCORE.INTRA.POLAR.0>
0

>  <SCORE.INTRA.REPUL>
0

>  <SCORE.INTRA.REPUL.0>
0

>  <SCORE.INTRA.SOLV>
-0.437269

>  <SCORE.INTRA.SOLV.lig_0>
-48.6728

>  <SCORE.INTRA.VDW>
-4.51241

>  <SCORE.INTRA.VDW.0>
-1.10662

>  <SCORE.INTRA.norm>
-0.201965

>  <SCORE.RESTR>
0.00407238

>  <SCORE.RESTR.CAVITY>
0.00407238

>  <SCORE.RESTR.norm>
0.000150829

>  <SCORE.SYSTEM>
0

>  <SCORE.SYSTEM.CONST>
0

>  <SCORE.SYSTEM.DIHEDRAL>
0

>  <SCORE.SYSTEM.SOLV>
0

>  <SCORE.SYSTEM.norm>
0

>  <SCORE.heavy>
27

>  <SCORE.norm>
-0.431647

>  <RMSD>
5.870

$$$$
ligand
 OpenBabel11021811483D
libRbt.so/2013.1/901 2013/11/27
 27 29  0  0  0  0  0  0  0  0999 V2000
   46.8976   57.5832   32.4128 N   0  0  0  0  0  0  0  0  0  0  0  0
   47.9960   57.9941   31.5285 C   0  0  2  0  0  0  0  0  0  0  0  0
   49.0503   58.6617   32.3594 C   0  0  0  0  0  0  0  0  0  0  0  0
   48.7498   59.1807   33.4227 O   0  0  0  0  0  0  0  0  0  0  0  0
   47.4851   58.9776   30.4649 C   0  0  0  0  0  0  0  0  0  0  0  0
   46.5109   58.2482   29.5445 C   0  0  0  0  0  0  0  0  0  0  0  0
   47.2858   56.9101   28.5819 S   0  0  2  0  0  0  0  0  0  0  0  0
   47.3981   57.5702   26.8902 C   0  0  0  0  0  0  0  0  0  0  0  0
   46.0925   55.5599   28.2669 C   0  0  0  0  0  0  0  0  0  0  0  0
   46.9826   54.3638   28.0343 C   0  0  1  0  0  0  0  0  0  0  0  0
   47.6639   54.2169   29.2363 O   0  0  0  0  0  0  0  0  0  0  0  0
   46.4131   52.9579   27.8388 C   0  0  1  0  0  0  0  0  0  0  0  0
   46.1676   52.6599   26.4943 O   0  0  0  0  0  0  0  0  0  0  0  0
   47.6191   52.1209   28.4834 C   0  0  1  0  0  0  0  0  0  0  0  0
   48.9032   52.3770   27.8959 O   0  0  0  0  0  0  0  0  0  0  0  0
   47.3617   52.8686   29.7715 C   0  0  1  0  0  0  0  0  0  0  0  0
   50.2092   58.6693   31.9754 O   0  0  0  0  0  0  0  0  0  0  0  0
   45.8271   53.1945   34.5472 N   0  0  0  0  0  0  0  0  0  0  0  0
   45.1396   53.1218   33.4064 C   0  0  0  0  0  0  0  0  0  0  0  0
   45.7458   52.9864   32.2276 N   0  0  0  0  0  0  0  0  0  0  0  0
   47.0804   53.0438   32.1268 C   0  0  0  0  0  0  0  0  0  0  0  0
   47.8531   53.1889   33.3229 C   0  0  0  0  0  0  0  0  0  0  0  0
   47.1526   53.2536   34.5588 C   0  0  0  0  0  0  0  0  0  0  0  0
   47.8164   53.3741   35.7473 N   0  0  0  0  0  0  0  0  0  0  0  0
   49.1489   53.2251   32.9556 N   0  0  0  0  0  0  0  0  0  0  0  0
   49.2358   53.1210   31.6478 C   0  0  0  0  0  0  0  0  0  0  0  0
   47.9962   52.9900   31.0713 N   0  0  0  0  0  0  0  0  0  0  0  0
  2  1  1  1  0  0  0
  2  3  1  0  0  0  0
  2  5  1  0  0  0  0
  3  4  1  0  0  0  0
  3 17  1  0  0  0  0
  5  6  1  0  0  0  0
  7  6  1  1  0  0  0
  7  8  1  0  0  0  0
  7  9  1  0  0  0  0
 10  9  1  1  0  0  0
 10 11  1  0  0  0  0
 10 12  1  0  0  0  0
 11 16  1  0  0  0  0
 12 13  1  6  0  0  0
 12 14  1  0  0  0  0
 14 15  1  6  0  0  0
 14 16  1  0  0  0  0
 16 27  1  1  0  0  0
 18 19  2  0  0  0  0
 18 23  1  0  0  0  0
 19 20  1  0  0  0  0
 20 21  2  0  0  0  0
 21 22  1  0  0  0  0
 21 27  1  0  0  0  0
 22 23  2  0  0  0  0
 22 25  1  0  0  0  0
 23 24  1  0  0  0  0
 25 26  2  0  0  0  0
 26 27  1  0  0  0  0
M  END
>  <CHROM.1>
-24.56589318,-66.02120598,-64.39587868,-106.22021699,-156.39229428,61.91096831
109.89679561,47.48560558,55.05420012,30.73339240,-0.92074533,-1.38428738
-1.07765966

>  <Name>
ligand

>  <RI>
0

>  <Rbt.Current_Directory>
/home/itssahil/PROJECTS/Mol_Feturizer/New_Systems/rnas/3IQN

>  <Rbt.Executable>
rbdock ($Id: //depot/dev/client3/rdock/2013.1/src/exe/rbdock.cxx#4 $)

>  <Rbt.Library>
libRbt.so (2013.1, Build901 2013/11/27)

>  <Rbt.Parameter_File>
/export/apps/rDock/src/rDock_2013.1_src/data/scripts/dock_solv.prm

>  <Rbt.Receptor>
prm/pocket_docking_4.prm

>  <SCORE>
-12.8709

>  <SCORE.INTER>
-10.9283

>  <SCORE.INTER.CONST>
1

>  <SCORE.INTER.POLAR>
0

>  <SCORE.INTER.ROT>
7

>  <SCORE.INTER.SOLV>
10.6581

>  <SCORE.INTER.VDW>
-19.1049

>  <SCORE.INTER.norm>
-0.40475

>  <SCORE.INTRA>
-1.94267

>  <SCORE.INTRA.DIHEDRAL>
-1.37993

>  <SCORE.INTRA.DIHEDRAL.0>
10.0365

>  <SCORE.INTRA.POLAR>
0

>  <SCORE.INTRA.POLAR.0>
0

>  <SCORE.INTRA.REPUL>
0

>  <SCORE.INTRA.REPUL.0>
0

>  <SCORE.INTRA.SOLV>
0.109933

>  <SCORE.INTRA.SOLV.lig_0>
-48.6728

>  <SCORE.INTRA.VDW>
-1.30767

>  <SCORE.INTRA.VDW.0>
-1.10662

>  <SCORE.INTRA.norm>
-0.0719508

>  <SCORE.RESTR>
0

>  <SCORE.RESTR.CAVITY>
0

>  <SCORE.RESTR.norm>
0

>  <SCORE.SYSTEM>
0

>  <SCORE.SYSTEM.CONST>
0

>  <SCORE.SYSTEM.DIHEDRAL>
0

>  <SCORE.SYSTEM.SOLV>
0

>  <SCORE.SYSTEM.norm>
0

>  <SCORE.heavy>
27

>  <SCORE.norm>
-0.476701

>  <RMSD>
5.885

$$$$
ligand
 OpenBabel11021811483D
libRbt.so/2013.1/901 2013/11/27
 27 29  0  0  0  0  0  0  0  0999 V2000
   43.9856   54.2952   33.6572 N   0  0  0  0  0  0  0  0  0  0  0  0
   44.4775   55.3530   32.7647 C   0  0  2  0  0  0  0  0  0  0  0  0
   43.8075   55.1997   31.4324 C   0  0  0  0  0  0  0  0  0  0  0  0
   43.2328   54.1589   31.1556 O   0  0  0  0  0  0  0  0  0  0  0  0
   45.9989   55.2370   32.5879 C   0  0  0  0  0  0  0  0  0  0  0  0
   46.6726   55.4701   33.9370 C   0  0  0  0  0  0  0  0  0  0  0  0
   48.4901   55.3749   33.8664 S   0  0  2  0  0  0  0  0  0  0  0  0
   48.9677   54.5893   35.4365 C   0  0  0  0  0  0  0  0  0  0  0  0
   49.2394   57.0197   34.1478 C   0  0  0  0  0  0  0  0  0  0  0  0
   49.0903   57.6975   32.8078 C   0  0  1  0  0  0  0  0  0  0  0  0
   49.7280   56.8344   31.9252 O   0  0  0  0  0  0  0  0  0  0  0  0
   47.7280   57.8637   32.1328 C   0  0  1  0  0  0  0  0  0  0  0  0
   47.1023   59.0672   32.4748 O   0  0  0  0  0  0  0  0  0  0  0  0
   48.2088   57.7890   30.6051 C   0  0  1  0  0  0  0  0  0  0  0  0
   49.2180   58.7456   30.2504 O   0  0  0  0  0  0  0  0  0  0  0  0
   48.7384   56.4063   30.9088 C   0  0  1  0  0  0  0  0  0  0  0  0
   43.8265   56.1243   30.6351 O   0  0  0  0  0  0  0  0  0  0  0  0
   49.8084   55.2533   26.1345 N   0  0  0  0  0  0  0  0  0  0  0  0
   49.0213   56.1958   26.6556 C   0  0  0  0  0  0  0  0  0  0  0  0
   48.9121   56.3720   27.9718 N   0  0  0  0  0  0  0  0  0  0  0  0
   49.4933   55.5256   28.8323 C   0  0  0  0  0  0  0  0  0  0  0  0
   50.2929   54.4589   28.3111 C   0  0  0  0  0  0  0  0  0  0  0  0
   50.4326   54.3664   26.8990 C   0  0  0  0  0  0  0  0  0  0  0  0
   51.1928   53.3883   26.3219 N   0  0  0  0  0  0  0  0  0  0  0  0
   50.7542   53.7579   29.3652 N   0  0  0  0  0  0  0  0  0  0  0  0
   50.3054   54.2956   30.4780 C   0  0  0  0  0  0  0  0  0  0  0  0
   49.5318   55.4016   30.2247 N   0  0  0  0  0  0  0  0  0  0  0  0
  2  1  1  1  0  0  0
  2  3  1  0  0  0  0
  2  5  1  0  0  0  0
  3  4  1  0  0  0  0
  3 17  1  0  0  0  0
  5  6  1  0  0  0  0
  7  6  1  1  0  0  0
  7  8  1  0  0  0  0
  7  9  1  0  0  0  0
 10  9  1  1  0  0  0
 10 11  1  0  0  0  0
 10 12  1  0  0  0  0
 11 16  1  0  0  0  0
 12 13  1  6  0  0  0
 12 14  1  0  0  0  0
 14 15  1  1  0  0  0
 14 16  1  0  0  0  0
 16 27  1  6  0  0  0
 18 19  2  0  0  0  0
 18 23  1  0  0  0  0
 19 20  1  0  0  0  0
 20 21  2  0  0  0  0
 21 22  1  0  0  0  0
 21 27  1  0  0  0  0
 22 23  2  0  0  0  0
 22 25  1  0  0  0  0
 23 24  1  0  0  0  0
 25 26  2  0  0  0  0
 26 27  1  0  0  0  0
M  END
>  <CHROM.1>
-15.52166173,-63.78741111,-179.48622902,-143.40987121,-79.33934872,-56.44552292
-132.51264709,48.04798822,55.80343865,31.02749680,2.23608556,0.18865756,1.30752296

>  <Name>
ligand

>  <RI>
0

>  <Rbt.Current_Directory>
/home/itssahil/PROJECTS/Mol_Feturizer/New_Systems/rnas/3IQN

>  <Rbt.Executable>
rbdock ($Id: //depot/dev/client3/rdock/2013.1/src/exe/rbdock.cxx#4 $)

>  <Rbt.Library>
libRbt.so (2013.1, Build901 2013/11/27)

>  <Rbt.Parameter_File>
/export/apps/rDock/src/rDock_2013.1_src/data/scripts/dock_solv.prm

>  <Rbt.Receptor>
prm/pocket_docking_6.prm

>  <SCORE>
-14.0307

>  <SCORE.INTER>
-11.6342

>  <SCORE.INTER.CONST>
1

>  <SCORE.INTER.POLAR>
0

>  <SCORE.INTER.ROT>
7

>  <SCORE.INTER.SOLV>
5.97426

>  <SCORE.INTER.VDW>
-18.0142

>  <SCORE.INTER.norm>
-0.430896

>  <SCORE.INTRA>
-2.39645

>  <SCORE.INTRA.DIHEDRAL>
-2.62462

>  <SCORE.INTRA.DIHEDRAL.0>
10.0365

>  <SCORE.INTRA.POLAR>
0

>  <SCORE.INTRA.POLAR.0>
0

>  <SCORE.INTRA.REPUL>
0

>  <SCORE.INTRA.REPUL.0>
0

>  <SCORE.INTRA.SOLV>
0.25421

>  <SCORE.INTRA.SOLV.lig_0>
-48.6728

>  <SCORE.INTRA.VDW>
-1.21124

>  <SCORE.INTRA.VDW.0>
-1.10662

>  <SCORE.INTRA.norm>
-0.0887573

>  <SCORE.RESTR>
0

>  <SCORE.RESTR.CAVITY>
0

>  <SCORE.RESTR.norm>
0

>  <SCORE.SYSTEM>
0

>  <SCORE.SYSTEM.CONST>
0

>  <SCORE.SYSTEM.DIHEDRAL>
0

>  <SCORE.SYSTEM.SOLV>
0

>  <SCORE.SYSTEM.norm>
0

>  <SCORE.heavy>
27

>  <SCORE.norm>
-0.519654

>  <RMSD>
5.900

$$$$
ligand
 OpenBabel11021811483D
libRbt.so/2013.1/901 2013/11/27
 27 29  0  0  0  0  0  0  0  0999 V2000
   47.3586   59.2015   30.4680 N   0  0  0  0  0  0  0  0  0  0  0  0
   47.6346   57.7755   30.2493 C   0  0  2  0  0  0  0  0  0  0  0  0
   48.5828   57.6469   29.0953 C   0  0  0  0  0  0  0  0  0  0  0  0
   49.4491   56.7870   29.1116 O   0  0  0  0  0  0  0  0  0  0  0  0
   46.3342   57.0236   29.9284 C   0  0  0  0  0  0  0  0  0  0  0  0
   45.4680   56.9759   31.1836 C   0  0  0  0  0  0  0  0  0  0  0  0
   46.2124   56.0190   32.5429 S   0  0  2  0  0  0  0  0  0  0  0  0
   44.9746   56.0789   33.8751 C   0  0  0  0  0  0  0  0  0  0  0  0
   47.5385   56.9760   33.3624 C   0  0  0  0  0  0  0  0  0  0  0  0
   48.4848   55.9048   33.8461 C   0  0  1  0  0  0  0  0  0  0  0  0
   47.7507   55.2214   34.8077 O   0  0  0  0  0  0  0  0  0  0  0  0
   48.9369   54.7569   32.9423 C   0  0  1  0  0  0  0  0  0  0  0  0
   50.1097   55.0554   32.2408 O   0  0  0  0  0  0  0  0  0  0  0  0
   49.1175   53.6269   34.0653 C   0  0  1  0  0  0  0  0  0  0  0  0
   50.0054   53.9854   35.1342 O   0  0  0  0  0  0  0  0  0  0  0  0
   47.6511   53.8045   34.3855 C   0  0  1  0  0  0  0  0  0  0  0  0
   48.4739   58.3941   28.1358 O   0  0  0  0  0  0  0  0  0  0  0  0
   47.6318   53.3731   39.3937 N   0  0  0  0  0  0  0  0  0  0  0  0
   48.5751   53.7989   38.5521 C   0  0  0  0  0  0  0  0  0  0  0  0
   48.3593   53.8865   37.2402 N   0  0  0  0  0  0  0  0  0  0  0  0
   47.2237   53.4303   36.6952 C   0  0  0  0  0  0  0  0  0  0  0  0
   46.2117   52.9027   37.5591 C   0  0  0  0  0  0  0  0  0  0  0  0
   46.4698   52.9039   38.9575 C   0  0  0  0  0  0  0  0  0  0  0  0
   45.5487   52.4344   39.8513 N   0  0  0  0  0  0  0  0  0  0  0  0
   45.1869   52.5121   36.7765 N   0  0  0  0  0  0  0  0  0  0  0  0
   45.4835   52.7478   35.5175 C   0  0  0  0  0  0  0  0  0  0  0  0
   46.7215   53.3292   35.3939 N   0  0  0  0  0  0  0  0  0  0  0  0
  2  1  1  6  0  0  0
  2  3  1  0  0  0  0
  2  5  1  0  0  0  0
  3  4  1  0  0  0  0
  3 17  1  0  0  0  0
  5  6  1  0  0  0  0
  7  6  1  6  0  0  0
  7  8  1  0  0  0  0
  7  9  1  0  0  0  0
 10  9  1  6  0  0  0
 10 11  1  0  0  0  0
 10 12  1  0  0  0  0
 11 16  1  0  0  0  0
 12 13  1  1  0  0  0
 12 14  1  0  0  0  0
 14 15  1  1  0  0  0
 14 16  1  0  0  0  0
 16 27  1  1  0  0  0
 18 19  2  0  0  0  0
 18 23  1  0  0  0  0
 19 20  1  0  0  0  0
 20 21  2  0  0  0  0
 21 22  1  0  0  0  0
 21 27  1  0  0  0  0
 22 23  2  0  0  0  0
 22 25  1  0  0  0  0
 23 24  1  0  0  0  0
 25 26  2  0  0  0  0
 26 27  1  0  0  0  0
M  END
>  <CHROM.1>
143.08279116,-69.45750214,-64.47955291,-178.36041776,-149.94034011,-65.99104574
-62.41450141,47.44148987,55.16004793,33.94488657,1.46180611,0.14195198,-1.04986683

>  <Name>
ligand

>  <RI>
0

>  <Rbt.Current_Directory>
/home/itssahil/PROJECTS/Mol_Feturizer/New_Systems/rnas/3IQN

>  <Rbt.Executable>
rbdock ($Id: //depot/dev/client3/rdock/2013.1/src/exe/rbdock.cxx#4 $)

>  <Rbt.Library>
libRbt.so (2013.1, Build901 2013/11/27)

>  <Rbt.Parameter_File>
/export/apps/rDock/src/rDock_2013.1_src/data/scripts/dock_solv.prm

>  <Rbt.Receptor>
prm/pocket_docking_7.prm

>  <SCORE>
-18.0515

>  <SCORE.INTER>
-15.5074

>  <SCORE.INTER.CONST>
1

>  <SCORE.INTER.POLAR>
0

>  <SCORE.INTER.ROT>
7

>  <SCORE.INTER.SOLV>
11.5401

>  <SCORE.INTER.VDW>
-22.4516

>  <SCORE.INTER.norm>
-0.574347

>  <SCORE.INTRA>
-2.54407

>  <SCORE.INTRA.DIHEDRAL>
-3.2954

>  <SCORE.INTRA.DIHEDRAL.0>
10.0365

>  <SCORE.INTRA.POLAR>
0

>  <SCORE.INTRA.POLAR.0>
0

>  <SCORE.INTRA.REPUL>
0

>  <SCORE.INTRA.REPUL.0>
0

>  <SCORE.INTRA.SOLV>
1.47705

>  <SCORE.INTRA.SOLV.lig_0>
-48.6728

>  <SCORE.INTRA.VDW>
-1.6349

>  <SCORE.INTRA.VDW.0>
-1.10662

>  <SCORE.INTRA.norm>
-0.0942249

>  <SCORE.RESTR>
0

>  <SCORE.RESTR.CAVITY>
0

>  <SCORE.RESTR.norm>
0

>  <SCORE.SYSTEM>
0

>  <SCORE.SYSTEM.CONST>
0

>  <SCORE.SYSTEM.DIHEDRAL>
0

>  <SCORE.SYSTEM.SOLV>
0

>  <SCORE.SYSTEM.norm>
0

>  <SCORE.heavy>
27

>  <SCORE.norm>
-0.668572

>  <RMSD>
5.910

$$$$
ligand
 OpenBabel11021811483D
libRbt.so/2013.1/901 2013/11/27
 27 29  0  0  0  0  0  0  0  0999 V2000
   46.1306   59.0210   32.2281 N   0  0  0  0  0  0  0  0  0  0  0  0
   47.3163   58.2210   31.8942 C   0  0  2  0  0  0  0  0  0  0  0  0
   48.2609   58.2634   33.0576 C   0  0  0  0  0  0  0  0  0  0  0  0
   48.4509   57.2590   33.7249 O   0  0  0  0  0  0  0  0  0  0  0  0
   48.0123   58.7926   30.6499 C   0  0  0  0  0  0  0  0  0  0  0  0
   49.1363   57.8480   30.2344 C   0  0  0  0  0  0  0  0  0  0  0  0
   48.5452   56.3353   29.4098 S   0  0  2  0  0  0  0  0  0  0  0  0
   47.4668   56.9354   28.0729 C   0  0  0  0  0  0  0  0  0  0  0  0
   47.2764   55.4945   30.4242 C   0  0  0  0  0  0  0  0  0  0  0  0
   48.0738   54.9390   31.5785 C   0  0  1  0  0  0  0  0  0  0  0  0
   47.1062   54.5724   32.5059 O   0  0  0  0  0  0  0  0  0  0  0  0
   48.8781   53.6438   31.4567 C   0  0  1  0  0  0  0  0  0  0  0  0
   50.1960   53.8667   31.0440 O   0  0  0  0  0  0  0  0  0  0  0  0
   48.7453   53.1378   32.9723 C   0  0  1  0  0  0  0  0  0  0  0  0
   49.1967   54.0794   33.9567 O   0  0  0  0  0  0  0  0  0  0  0  0
   47.2482   53.1204   32.7653 C   0  0  1  0  0  0  0  0  0  0  0  0
   48.8486   59.3002   33.3231 O   0  0  0  0  0  0  0  0  0  0  0  0
   46.2770   52.5828   37.6680 N   0  0  0  0  0  0  0  0  0  0  0  0
   47.4288   52.7305   37.0114 C   0  0  0  0  0  0  0  0  0  0  0  0
   47.4676   52.9128   35.6921 N   0  0  0  0  0  0  0  0  0  0  0  0
   46.3550   52.8298   34.9505 C   0  0  0  0  0  0  0  0  0  0  0  0
   45.1054   52.6049   35.6112 C   0  0  0  0  0  0  0  0  0  0  0  0
   45.1178   52.4924   37.0288 C   0  0  0  0  0  0  0  0  0  0  0  0
   43.9657   52.2951   37.7369 N   0  0  0  0  0  0  0  0  0  0  0  0
   44.1554   52.5577   34.6569 N   0  0  0  0  0  0  0  0  0  0  0  0
   44.7115   52.7275   33.4777 C   0  0  0  0  0  0  0  0  0  0  0  0
   46.0675   52.9170   33.5847 N   0  0  0  0  0  0  0  0  0  0  0  0
  2  1  1  1  0  0  0
  2  3  1  0  0  0  0
  2  5  1  0  0  0  0
  3  4  1  0  0  0  0
  3 17  1  0  0  0  0
  5  6  1  0  0  0  0
  7  6  1  1  0  0  0
  7  8  1  0  0  0  0
  7  9  1  0  0  0  0
 10  9  1  6  0  0  0
 10 11  1  0  0  0  0
 10 12  1  0  0  0  0
 11 16  1  0  0  0  0
 12 13  1  1  0  0  0
 12 14  1  0  0  0  0
 14 15  1  1  0  0  0
 14 16  1  0  0  0  0
 16 27  1  1  0  0  0
 18 19  2  0  0  0  0
 18 23  1  0  0  0  0
 19 20  1  0  0  0  0
 20 21  2  0  0  0  0
 21 22  1  0  0  0  0
 21 27  1  0  0  0  0
 22 23  2  0  0  0  0
 22 25  1  0  0  0  0
 23 24  1  0  0  0  0
 25 26  2  0  0  0  0
 26 27  1  0  0  0  0
M  END
>  <CHROM.1>
110.76963510,-173.35029052,75.42138264,52.48345566,-71.23694146,166.67391896
-102.05573597,47.36480315,55.00935407,32.96725242,0.56371337,1.16534414,0.11131009

>  <Name>
ligand

>  <RI>
0

>  <Rbt.Current_Directory>
/home/itssahil/PROJECTS/Mol_Feturizer/New_Systems/rnas/3IQN

>  <Rbt.Executable>
rbdock ($Id: //depot/dev/client3/rdock/2013.1/src/exe/rbdock.cxx#4 $)

>  <Rbt.Library>
libRbt.so (2013.1, Build901 2013/11/27)

>  <Rbt.Parameter_File>
/export/apps/rDock/src/rDock_2013.1_src/data/scripts/dock_solv.prm

>  <Rbt.Receptor>
prm/pocket_docking_8.prm

>  <SCORE>
-16.4494

>  <SCORE.INTER>
-11.7139

>  <SCORE.INTER.CONST>
1

>  <SCORE.INTER.POLAR>
0

>  <SCORE.INTER.ROT>
7

>  <SCORE.INTER.SOLV>
12.5317

>  <SCORE.INTER.VDW>
-20.2532

>  <SCORE.INTER.norm>
-0.433849

>  <SCORE.INTRA>
-4.73545

>  <SCORE.INTRA.DIHEDRAL>
-5.21375

>  <SCORE.INTRA.DIHEDRAL.0>
10.0365

>  <SCORE.INTRA.POLAR>
0

>  <SCORE.INTRA.POLAR.0>
0

>  <SCORE.INTRA.REPUL>
0

>  <SCORE.INTRA.REPUL.0>
0

>  <SCORE.INTRA.SOLV>
-0.0346325

>  <SCORE.INTRA.SOLV.lig_0>
-48.6728

>  <SCORE.INTRA.VDW>
-2.11126

>  <SCORE.INTRA.VDW.0>
-1.10662

>  <SCORE.INTRA.norm>
-0.175387

>  <SCORE.RESTR>
0

>  <SCORE.RESTR.CAVITY>
0

>  <SCORE.RESTR.norm>
0

>  <SCORE.SYSTEM>
0

>  <SCORE.SYSTEM.CONST>
0

>  <SCORE.SYSTEM.DIHEDRAL>
0

>  <SCORE.SYSTEM.SOLV>
0

>  <SCORE.SYSTEM.norm>
0

>  <SCORE.heavy>
27

>  <SCORE.norm>
-0.609236

>  <RMSD>
5.935

$$$$
ligand
 OpenBabel11021811483D
libRbt.so/2013.1/901 2013/11/27
 27 29  0  0  0  0  0  0  0  0999 V2000
   48.9615   54.9207   35.4206 N   0  0  0  0  0  0  0  0  0  0  0  0
   48.3360   54.7618   34.1012 C   0  0  2  0  0  0  0  0  0  0  0  0
   49.4087   54.8287   33.0560 C   0  0  0  0  0  0  0  0  0  0  0  0
   50.3770   55.5531   33.2224 O   0  0  0  0  0  0  0  0  0  0  0  0
   47.3141   55.8822   33.8569 C   0  0  0  0  0  0  0  0  0  0  0  0
   46.4911   55.5394   32.6185 C   0  0  0  0  0  0  0  0  0  0  0  0
   45.1522   56.7283   32.2852 S   0  0  2  0  0  0  0  0  0  0  0  0
   44.1587   55.9430   30.9787 C   0  0  0  0  0  0  0  0  0  0  0  0
   45.7747   58.1582   31.3293 C   0  0  0  0  0  0  0  0  0  0  0  0
   47.1777   58.3369   31.8552 C   0  0  1  0  0  0  0  0  0  0  0  0
   47.9076   57.3548   31.1970 O   0  0  0  0  0  0  0  0  0  0  0  0
   48.0052   59.5848   31.5437 C   0  0  1  0  0  0  0  0  0  0  0  0
   47.8397   60.5918   32.5003 O   0  0  0  0  0  0  0  0  0  0  0  0
   49.4608   58.9124   31.5488 C   0  0  1  0  0  0  0  0  0  0  0  0
   49.7901   58.2134   32.7581 O   0  0  0  0  0  0  0  0  0  0  0  0
   48.9811   58.0232   30.4246 C   0  0  1  0  0  0  0  0  0  0  0  0
   49.3161   54.1451   32.0485 O   0  0  0  0  0  0  0  0  0  0  0  0
   48.1113   55.9001   25.9520 N   0  0  0  0  0  0  0  0  0  0  0  0
   47.5510   56.9535   26.5485 C   0  0  0  0  0  0  0  0  0  0  0  0
   47.9680   57.3940   27.7348 N   0  0  0  0  0  0  0  0  0  0  0  0
   48.8873   56.7190   28.4378 C   0  0  0  0  0  0  0  0  0  0  0  0
   49.4654   55.5436   27.8607 C   0  0  0  0  0  0  0  0  0  0  0  0
   49.0336   55.1648   26.5598 C   0  0  0  0  0  0  0  0  0  0  0  0
   49.5489   54.0662   25.9311 N   0  0  0  0  0  0  0  0  0  0  0  0
   50.3448   55.0539   28.7563 N   0  0  0  0  0  0  0  0  0  0  0  0
   50.3513   55.8186   29.8258 C   0  0  0  0  0  0  0  0  0  0  0  0
   49.4854   56.8760   29.6921 N   0  0  0  0  0  0  0  0  0  0  0  0
  2  1  1  1  0  0  0
  2  3  1  0  0  0  0
  2  5  1  0  0  0  0
  3  4  1  0  0  0  0
  3 17  1  0  0  0  0
  5  6  1  0  0  0  0
  7  6  1  6  0  0  0
  7  8  1  0  0  0  0
  7  9  1  0  0  0  0
 10  9  1  6  0  0  0
 10 11  1  0  0  0  0
 10 12  1  0  0  0  0
 11 16  1  0  0  0  0
 12 13  1  1  0  0  0
 12 14  1  0  0  0  0
 14 15  1  1  0  0  0
 14 16  1  0  0  0  0
 16 27  1  1  0  0  0
 18 19  2  0  0  0  0
 18 23  1  0  0  0  0
 19 20  1  0  0  0  0
 20 21  2  0  0  0  0
 21 22  1  0  0  0  0
 21 27  1  0  0  0  0
 22 23  2  0  0  0  0
 22 25  1  0  0  0  0
 23 24  1  0  0  0  0
 25 26  2  0  0  0  0
 26 27  1  0  0  0  0
M  END
>  <CHROM.1>
-33.86368834,-168.86925684,175.66398552,-169.93385498,-34.43496881,78.98630045
92.83671423,48.17553782,56.58118636,30.83139213,-1.85987075,0.75542737,-1.52255338

>  <Name>
ligand

>  <RI>
0

>  <Rbt.Current_Directory>
/home/itssahil/PROJECTS/Mol_Feturizer/New_Systems/rnas/3IQN

>  <Rbt.Executable>
rbdock ($Id: //depot/dev/client3/rdock/2013.1/src/exe/rbdock.cxx#4 $)

>  <Rbt.Library>
libRbt.so (2013.1, Build901 2013/11/27)

>  <Rbt.Parameter_File>
/export/apps/rDock/src/rDock_2013.1_src/data/scripts/dock_solv.prm

>  <Rbt.Receptor>
prm/pocket_docking_3.prm

>  <SCORE>
-16.2533

>  <SCORE.INTER>
-12.8116

>  <SCORE.INTER.CONST>
1

>  <SCORE.INTER.POLAR>
0

>  <SCORE.INTER.ROT>
7

>  <SCORE.INTER.SOLV>
11.9144

>  <SCORE.INTER.VDW>
-20.7792

>  <SCORE.INTER.norm>
-0.474505

>  <SCORE.INTRA>
-3.45555

>  <SCORE.INTRA.DIHEDRAL>
-2.02815

>  <SCORE.INTRA.DIHEDRAL.0>
10.0365

>  <SCORE.INTRA.POLAR>
0

>  <SCORE.INTRA.POLAR.0>
0

>  <SCORE.INTRA.REPUL>
0

>  <SCORE.INTRA.REPUL.0>
0

>  <SCORE.INTRA.SOLV>
-0.397295

>  <SCORE.INTRA.SOLV.lig_0>
-48.6728

>  <SCORE.INTRA.VDW>
-2.24283

>  <SCORE.INTRA.VDW.0>
-1.10662

>  <SCORE.INTRA.norm>
-0.127983

>  <SCORE.RESTR>
0.0138649

>  <SCORE.RESTR.CAVITY>
0.0138649

>  <SCORE.RESTR.norm>
0.000513516

>  <SCORE.SYSTEM>
0

>  <SCORE.SYSTEM.CONST>
0

>  <SCORE.SYSTEM.DIHEDRAL>
0

>  <SCORE.SYSTEM.SOLV>
0

>  <SCORE.SYSTEM.norm>
0

>  <SCORE.heavy>
27

>  <SCORE.norm>
-0.601975

>  <RMSD>
5.938

$$$$
ligand
 OpenBabel11021811483D
libRbt.so/2013.1/901 2013/11/27
 27 29  0  0  0  0  0  0  0  0999 V2000
   47.7156   53.0178   33.6487 N   0  0  0  0  0  0  0  0  0  0  0  0
   47.0950   53.7753   32.5540 C   0  0  2  0  0  0  0  0  0  0  0  0
   47.4342   53.1017   31.2583 C   0  0  0  0  0  0  0  0  0  0  0  0
   48.6020   52.9101   30.9589 O   0  0  0  0  0  0  0  0  0  0  0  0
   47.6257   55.2166   32.5348 C   0  0  0  0  0  0  0  0  0  0  0  0
   47.1564   55.9332   33.7975 C   0  0  0  0  0  0  0  0  0  0  0  0
   45.4542   56.5705   33.6800 S   0  0  2  0  0  0  0  0  0  0  0  0
   44.4184   55.0822   33.5304 C   0  0  0  0  0  0  0  0  0  0  0  0
   45.1400   57.2862   32.0262 C   0  0  0  0  0  0  0  0  0  0  0  0
   46.2552   58.2908   31.8704 C   0  0  1  0  0  0  0  0  0  0  0  0
   47.0344   57.7672   30.8460 O   0  0  0  0  0  0  0  0  0  0  0  0
   46.0003   59.7091   31.3582 C   0  0  1  0  0  0  0  0  0  0  0  0
   45.7340   60.6137   32.3914 O   0  0  0  0  0  0  0  0  0  0  0  0
   47.4042   59.9525   30.6230 C   0  0  1  0  0  0  0  0  0  0  0  0
   48.5550   59.7739   31.4617 O   0  0  0  0  0  0  0  0  0  0  0  0
   47.0775   58.7631   29.7495 C   0  0  1  0  0  0  0  0  0  0  0  0
   46.5387   52.7333   30.5147 O   0  0  0  0  0  0  0  0  0  0  0  0
   50.9291   55.5340   29.6662 N   0  0  0  0  0  0  0  0  0  0  0  0
   50.4026   56.2481   30.6623 C   0  0  0  0  0  0  0  0  0  0  0  0
   49.3309   57.0195   30.4844 N   0  0  0  0  0  0  0  0  0  0  0  0
   48.8108   57.2082   29.2642 C   0  0  0  0  0  0  0  0  0  0  0  0
   49.3899   56.5111   28.1564 C   0  0  0  0  0  0  0  0  0  0  0  0
   50.4857   55.6441   28.4204 C   0  0  0  0  0  0  0  0  0  0  0  0
   51.0836   54.9287   27.4213 N   0  0  0  0  0  0  0  0  0  0  0  0
   48.6990   56.8707   27.0570 N   0  0  0  0  0  0  0  0  0  0  0  0
   47.7576   57.7253   27.3922 C   0  0  0  0  0  0  0  0  0  0  0  0
   47.7584   57.9680   28.7439 N   0  0  0  0  0  0  0  0  0  0  0  0
  2  1  1  1  0  0  0
  2  3  1  0  0  0  0
  2  5  1  0  0  0  0
  3  4  1  0  0  0  0
  3 17  1  0  0  0  0
  5  6  1  0  0  0  0
  7  6  1  6  0  0  0
  7  8  1  0  0  0  0
  7  9  1  0  0  0  0
 10  9  1  6  0  0  0
 10 11  1  0  0  0  0
 10 12  1  0  0  0  0
 11 16  1  0  0  0  0
 12 13  1  1  0  0  0
 12 14  1  0  0  0  0
 14 15  1  1  0  0  0
 14 16  1  0  0  0  0
 16 27  1  6  0  0  0
 18 19  2  0  0  0  0
 18 23  1  0  0  0  0
 19 20  1  0  0  0  0
 20 21  2  0  0  0  0
 21 22  1  0  0  0  0
 21 27  1  0  0  0  0
 22 23  2  0  0  0  0
 22 25  1  0  0  0  0
 23 24  1  0  0  0  0
 25 26  2  0  0  0  0
 26 27  1  0  0  0  0
M  END
>  <CHROM.1>
-55.93254986,-66.26053848,-81.86140366,64.86562492,-54.25111639,112.93628999
-41.44282250,47.61878323,56.52246999,30.94080444,-3.00518388,0.86083323,-0.31908041

>  <Name>
ligand

>  <RI>
0

>  <Rbt.Current_Directory>
/home/itssahil/PROJECTS/Mol_Feturizer/New_Systems/rnas/3IQN

>  <Rbt.Executable>
rbdock ($Id: //depot/dev/client3/rdock/2013.1/src/exe/rbdock.cxx#4 $)

>  <Rbt.Library>
libRbt.so (2013.1, Build901 2013/11/27)

>  <Rbt.Parameter_File>
/export/apps/rDock/src/rDock_2013.1_src/data/scripts/dock_solv.prm

>  <Rbt.Receptor>
prm/pocket_docking_3.prm

>  <SCORE>
-12.6578

>  <SCORE.INTER>
-13.5547

>  <SCORE.INTER.CONST>
1

>  <SCORE.INTER.POLAR>
0

>  <SCORE.INTER.ROT>
7

>  <SCORE.INTER.SOLV>
14.758

>  <SCORE.INTER.VDW>
-22.2224

>  <SCORE.INTER.norm>
-0.502025

>  <SCORE.INTRA>
0.522758

>  <SCORE.INTRA.DIHEDRAL>
0.412721

>  <SCORE.INTRA.DIHEDRAL.0>
10.0365

>  <SCORE.INTRA.POLAR>
0

>  <SCORE.INTRA.POLAR.0>
0

>  <SCORE.INTRA.REPUL>
0

>  <SCORE.INTRA.REPUL.0>
0

>  <SCORE.INTRA.SOLV>
0.857878

>  <SCORE.INTRA.SOLV.lig_0>
-48.6728

>  <SCORE.INTRA.VDW>
-0.112541

>  <SCORE.INTRA.VDW.0>
-1.10662

>  <SCORE.INTRA.norm>
0.0193614

>  <SCORE.RESTR>
0.374118

>  <SCORE.RESTR.CAVITY>
0.374118

>  <SCORE.RESTR.norm>
0.0138562

>  <SCORE.SYSTEM>
0

>  <SCORE.SYSTEM.CONST>
0

>  <SCORE.SYSTEM.DIHEDRAL>
0

>  <SCORE.SYSTEM.SOLV>
0

>  <SCORE.SYSTEM.norm>
0

>  <SCORE.heavy>
27

>  <SCORE.norm>
-0.468808

>  <RMSD>
5.953

$$$$
ligand
 OpenBabel11021811483D
libRbt.so/2013.1/901 2013/11/27
 27 29  0  0  0  0  0  0  0  0999 V2000
   48.2509   53.1314   34.6313 N   0  0  0  0  0  0  0  0  0  0  0  0
   48.0602   53.4425   33.2086 C   0  0  2  0  0  0  0  0  0  0  0  0
   49.2200   54.2710   32.7440 C   0  0  0  0  0  0  0  0  0  0  0  0
   49.6997   54.0814   31.6376 O   0  0  0  0  0  0  0  0  0  0  0  0
   46.7565   54.2286   33.0045 C   0  0  0  0  0  0  0  0  0  0  0  0
   46.7461   55.4237   33.9532 C   0  0  0  0  0  0  0  0  0  0  0  0
   45.2569   56.4608   33.7975 S   0  0  2  0  0  0  0  0  0  0  0  0
   43.9082   55.2798   33.4866 C   0  0  0  0  0  0  0  0  0  0  0  0
   45.2335   57.3284   32.1874 C   0  0  0  0  0  0  0  0  0  0  0  0
   46.3561   58.3279   32.3207 C   0  0  1  0  0  0  0  0  0  0  0  0
   47.4725   57.6377   31.8646 O   0  0  0  0  0  0  0  0  0  0  0  0
   46.4169   59.5945   31.4657 C   0  0  1  0  0  0  0  0  0  0  0  0
   45.7782   60.6821   32.0707 O   0  0  0  0  0  0  0  0  0  0  0  0
   48.0107   59.7425   31.3727 C   0  0  1  0  0  0  0  0  0  0  0  0
   48.6794   59.7959   32.6413 O   0  0  0  0  0  0  0  0  0  0  0  0
   48.0318   58.3831   30.7125 C   0  0  1  0  0  0  0  0  0  0  0  0
   49.6701   55.1437   33.4697 O   0  0  0  0  0  0  0  0  0  0  0  0
   49.2255   56.0255   26.4363 N   0  0  0  0  0  0  0  0  0  0  0  0
   48.2369   56.8730   26.7260 C   0  0  0  0  0  0  0  0  0  0  0  0
   48.1238   57.4369   27.9279 N   0  0  0  0  0  0  0  0  0  0  0  0
   48.9286   57.0785   28.9373 C   0  0  0  0  0  0  0  0  0  0  0  0
   49.9613   56.1203   28.6843 C   0  0  0  0  0  0  0  0  0  0  0  0
   50.0795   55.6090   27.3626 C   0  0  0  0  0  0  0  0  0  0  0  0
   51.0497   54.7044   27.0338 N   0  0  0  0  0  0  0  0  0  0  0  0
   50.6183   55.9299   29.8450 N   0  0  0  0  0  0  0  0  0  0  0  0
   50.0781   56.6788   30.7811 C   0  0  0  0  0  0  0  0  0  0  0  0
   49.0379   57.4271   30.2872 N   0  0  0  0  0  0  0  0  0  0  0  0
  2  1  1  1  0  0  0
  2  3  1  0  0  0  0
  2  5  1  0  0  0  0
  3  4  1  0  0  0  0
  3 17  1  0  0  0  0
  5  6  1  0  0  0  0
  7  6  1  6  0  0  0
  7  8  1  0  0  0  0
  7  9  1  0  0  0  0
 10  9  1  6  0  0  0
 10 11  1  0  0  0  0
 10 12  1  0  0  0  0
 11 16  1  0  0  0  0
 12 13  1  1  0  0  0
 12 14  1  0  0  0  0
 14 15  1  1  0  0  0
 14 16  1  0  0  0  0
 16 27  1  1  0  0  0
 18 19  2  0  0  0  0
 18 23  1  0  0  0  0
 19 20  1  0  0  0  0
 20 21  2  0  0  0  0
 21 22  1  0  0  0  0
 21 27  1  0  0  0  0
 22 23  2  0  0  0  0
 22 25  1  0  0  0  0
 23 24  1  0  0  0  0
 25 26  2  0  0  0  0
 26 27  1  0  0  0  0
M  END
>  <CHROM.1>
140.68478795,51.85156913,179.19033821,36.94285451,-69.45943611,89.31509150
125.97933550,47.93676551,56.56200480,31.27213478,-2.62788199,0.88163078,-0.67300022

>  <Name>
ligand

>  <RI>
0

>  <Rbt.Current_Directory>
/home/itssahil/PROJECTS/Mol_Feturizer/New_Systems/rnas/3IQN

>  <Rbt.Executable>
rbdock ($Id: //depot/dev/client3/rdock/2013.1/src/exe/rbdock.cxx#4 $)

>  <Rbt.Library>
libRbt.so (2013.1, Build901 2013/11/27)

>  <Rbt.Parameter_File>
/export/apps/rDock/src/rDock_2013.1_src/data/scripts/dock_solv.prm

>  <Rbt.Receptor>
prm/pocket_docking_7.prm

>  <SCORE>
-20.8533

>  <SCORE.INTER>
-17.9156

>  <SCORE.INTER.CONST>
1

>  <SCORE.INTER.POLAR>
0

>  <SCORE.INTER.ROT>
7

>  <SCORE.INTER.SOLV>
13.8083

>  <SCORE.INTER.VDW>
-24.8132

>  <SCORE.INTER.norm>
-0.663541

>  <SCORE.INTRA>
-2.93773

>  <SCORE.INTRA.DIHEDRAL>
-3.50267

>  <SCORE.INTRA.DIHEDRAL.0>
10.0365

>  <SCORE.INTRA.POLAR>
0

>  <SCORE.INTRA.POLAR.0>
0

>  <SCORE.INTRA.REPUL>
0

>  <SCORE.INTRA.REPUL.0>
0

>  <SCORE.INTRA.SOLV>
-0.303582

>  <SCORE.INTRA.SOLV.lig_0>
-48.6728

>  <SCORE.INTRA.VDW>
-1.0346

>  <SCORE.INTRA.VDW.0>
-1.10662

>  <SCORE.INTRA.norm>
-0.108805

>  <SCORE.RESTR>
0

>  <SCORE.RESTR.CAVITY>
0

>  <SCORE.RESTR.norm>
0

>  <SCORE.SYSTEM>
0

>  <SCORE.SYSTEM.CONST>
0

>  <SCORE.SYSTEM.DIHEDRAL>
0

>  <SCORE.SYSTEM.SOLV>
0

>  <SCORE.SYSTEM.norm>
0

>  <SCORE.heavy>
27

>  <SCORE.norm>
-0.772345

>  <RMSD>
5.967

$$$$
ligand
 OpenBabel11021811483D
libRbt.so/2013.1/901 2013/11/27
 27 29  0  0  0  0  0  0  0  0999 V2000
   45.4985   60.2206   31.3836 N   0  0  0  0  0  0  0  0  0  0  0  0
   46.4542   59.5332   30.5054 C   0  0  2  0  0  0  0  0  0  0  0  0
   45.8499   58.2314   30.0724 C   0  0  0  0  0  0  0  0  0  0  0  0
   45.8710   57.9119   28.8944 O   0  0  0  0  0  0  0  0  0  0  0  0
   47.7677   59.2627   31.2544 C   0  0  0  0  0  0  0  0  0  0  0  0
   47.4506   58.5568   32.5694 C   0  0  0  0  0  0  0  0  0  0  0  0
   48.8683   57.6506   33.2667 S   0  0  2  0  0  0  0  0  0  0  0  0
   50.3106   58.6891   32.8772 C   0  0  0  0  0  0  0  0  0  0  0  0
   49.2890   56.2033   32.2302 C   0  0  0  0  0  0  0  0  0  0  0  0
   48.1674   55.2365   32.5208 C   0  0  1  0  0  0  0  0  0  0  0  0
   48.0365   54.5142   31.3411 O   0  0  0  0  0  0  0  0  0  0  0  0
   48.3148   54.1116   33.5463 C   0  0  1  0  0  0  0  0  0  0  0  0
   47.9122   54.4979   34.8291 O   0  0  0  0  0  0  0  0  0  0  0  0
   47.3500   53.0328   32.8564 C   0  0  1  0  0  0  0  0  0  0  0  0
   46.0158   53.4993   32.6078 O   0  0  0  0  0  0  0  0  0  0  0  0
   48.2634   53.0835   31.6533 C   0  0  1  0  0  0  0  0  0  0  0  0
   45.3525   57.4884   30.9038 O   0  0  0  0  0  0  0  0  0  0  0  0
   51.5073   52.9378   27.8160 N   0  0  0  0  0  0  0  0  0  0  0  0
   51.5991   53.4973   29.0235 C   0  0  0  0  0  0  0  0  0  0  0  0
   50.6308   53.3752   29.9305 N   0  0  0  0  0  0  0  0  0  0  0  0
   49.4662   52.7889   29.6226 C   0  0  0  0  0  0  0  0  0  0  0  0
   49.3025   52.2341   28.3133 C   0  0  0  0  0  0  0  0  0  0  0  0
   50.3989   52.3298   27.4128 C   0  0  0  0  0  0  0  0  0  0  0  0
   50.3304   51.8101   26.1507 N   0  0  0  0  0  0  0  0  0  0  0  0
   48.0606   51.7150   28.2554 N   0  0  0  0  0  0  0  0  0  0  0  0
   47.4523   51.9070   29.4051 C   0  0  0  0  0  0  0  0  0  0  0  0
   48.2676   52.5516   30.3028 N   0  0  0  0  0  0  0  0  0  0  0  0
  2  1  1  1  0  0  0
  2  3  1  0  0  0  0
  2  5  1  0  0  0  0
  3  4  1  0  0  0  0
  3 17  1  0  0  0  0
  5  6  1  0  0  0  0
  7  6  1  6  0  0  0
  7  8  1  0  0  0  0
  7  9  1  0  0  0  0
 10  9  1  6  0  0  0
 10 11  1  0  0  0  0
 10 12  1  0  0  0  0
 11 16  1  0  0  0  0
 12 13  1  1  0  0  0
 12 14  1  0  0  0  0
 14 15  1  6  0  0  0
 14 16  1  0  0  0  0
 16 27  1  6  0  0  0
 18 19  2  0  0  0  0
 18 23  1  0  0  0  0
 19 20  1  0  0  0  0
 20 21  2  0  0  0  0
 21 22  1  0  0  0  0
 21 27  1  0  0  0  0
 22 23  2  0  0  0  0
 22 25  1  0  0  0  0
 23 24  1  0  0  0  0
 25 26  2  0  0  0  0
 26 27  1  0  0  0  0
M  END
>  <CHROM.1>
132.25108279,51.96911142,159.13286939,36.53821143,-72.95366124,149.70165187
77.45690561,48.26356931,55.26081054,30.90741570,2.84190063,-1.20810018,1.75966612

>  <Name>
ligand

>  <RI>
0

>  <Rbt.Current_Directory>
/home/itssahil/PROJECTS/Mol_Feturizer/New_Systems/rnas/3IQN

>  <Rbt.Executable>
rbdock ($Id: //depot/dev/client3/rdock/2013.1/src/exe/rbdock.cxx#4 $)

>  <Rbt.Library>
libRbt.so (2013.1, Build901 2013/11/27)

>  <Rbt.Parameter_File>
/export/apps/rDock/src/rDock_2013.1_src/data/scripts/dock_solv.prm

>  <Rbt.Receptor>
prm/pocket_docking_4.prm

>  <SCORE>
-15.4109

>  <SCORE.INTER>
-14.0914

>  <SCORE.INTER.CONST>
1

>  <SCORE.INTER.POLAR>
0

>  <SCORE.INTER.ROT>
7

>  <SCORE.INTER.SOLV>
14.5042

>  <SCORE.INTER.VDW>
-22.4956

>  <SCORE.INTER.norm>
-0.521902

>  <SCORE.INTRA>
-1.31956

>  <SCORE.INTRA.DIHEDRAL>
-1.91605

>  <SCORE.INTRA.DIHEDRAL.0>
10.0365

>  <SCORE.INTRA.POLAR>
0

>  <SCORE.INTRA.POLAR.0>
0

>  <SCORE.INTRA.REPUL>
0

>  <SCORE.INTRA.REPUL.0>
0

>  <SCORE.INTRA.SOLV>
-0.325729

>  <SCORE.INTRA.SOLV.lig_0>
-48.6728

>  <SCORE.INTRA.VDW>
-0.198669

>  <SCORE.INTRA.VDW.0>
-1.10662

>  <SCORE.INTRA.norm>
-0.0488726

>  <SCORE.RESTR>
0

>  <SCORE.RESTR.CAVITY>
0

>  <SCORE.RESTR.norm>
0

>  <SCORE.SYSTEM>
0

>  <SCORE.SYSTEM.CONST>
0

>  <SCORE.SYSTEM.DIHEDRAL>
0

>  <SCORE.SYSTEM.SOLV>
0

>  <SCORE.SYSTEM.norm>
0

>  <SCORE.heavy>
27

>  <SCORE.norm>
-0.570775

>  <RMSD>
5.969

$$$$
ligand
 OpenBabel11021811483D
libRbt.so/2013.1/901 2013/11/27
 27 29  0  0  0  0  0  0  0  0999 V2000
   46.4965   58.4184   29.2667 N   0  0  0  0  0  0  0  0  0  0  0  0
   46.3760   58.4916   30.7287 C   0  0  2  0  0  0  0  0  0  0  0  0
   46.3833   59.9348   31.1342 C   0  0  0  0  0  0  0  0  0  0  0  0
   47.3971   60.6009   30.9973 O   0  0  0  0  0  0  0  0  0  0  0  0
   47.5535   57.7669   31.3978 C   0  0  0  0  0  0  0  0  0  0  0  0
   47.2363   57.5697   32.8773 C   0  0  0  0  0  0  0  0  0  0  0  0
   48.7048   57.2085   33.8924 S   0  0  2  0  0  0  0  0  0  0  0  0
   49.8521   58.5757   33.5387 C   0  0  0  0  0  0  0  0  0  0  0  0
   49.6791   55.8423   33.1644 C   0  0  0  0  0  0  0  0  0  0  0  0
   48.6216   54.9528   32.5581 C   0  0  1  0  0  0  0  0  0  0  0  0
   49.1269   54.6440   31.3011 O   0  0  0  0  0  0  0  0  0  0  0  0
   48.3228   53.5588   33.1119 C   0  0  1  0  0  0  0  0  0  0  0  0
   47.3238   53.5725   34.0909 O   0  0  0  0  0  0  0  0  0  0  0  0
   47.8857   52.8478   31.7429 C   0  0  1  0  0  0  0  0  0  0  0  0
   46.8141   53.5016   31.0474 O   0  0  0  0  0  0  0  0  0  0  0  0
   49.2635   53.1711   31.2124 C   0  0  1  0  0  0  0  0  0  0  0  0
   45.3687   60.4422   31.5857 O   0  0  0  0  0  0  0  0  0  0  0  0
   48.0679   51.8742   26.5053 N   0  0  0  0  0  0  0  0  0  0  0  0
   47.3429   51.8845   27.6250 C   0  0  0  0  0  0  0  0  0  0  0  0
   47.8411   52.3205   28.7812 N   0  0  0  0  0  0  0  0  0  0  0  0
   49.1345   52.6507   28.8951 C   0  0  0  0  0  0  0  0  0  0  0  0
   49.9635   52.5888   27.7300 C   0  0  0  0  0  0  0  0  0  0  0  0
   49.3574   52.1870   26.5079 C   0  0  0  0  0  0  0  0  0  0  0  0
   50.0748   52.1191   25.3466 N   0  0  0  0  0  0  0  0  0  0  0  0
   51.2032   52.9593   28.1055 N   0  0  0  0  0  0  0  0  0  0  0  0
   51.2064   53.2354   29.3910 C   0  0  0  0  0  0  0  0  0  0  0  0
   49.9574   53.0811   29.9407 N   0  0  0  0  0  0  0  0  0  0  0  0
  2  1  1  6  0  0  0
  2  3  1  0  0  0  0
  2  5  1  0  0  0  0
  3  4  1  0  0  0  0
  3 17  1  0  0  0  0
  5  6  1  0  0  0  0
  7  6  1  6  0  0  0
  7  8  1  0  0  0  0
  7  9  1  0  0  0  0
 10  9  1  1  0  0  0
 10 11  1  0  0  0  0
 10 12  1  0  0  0  0
 11 16  1  0  0  0  0
 12 13  1  1  0  0  0
 12 14  1  0  0  0  0
 14 15  1  6  0  0  0
 14 16  1  0  0  0  0
 16 27  1  6  0  0  0
 18 19  2  0  0  0  0
 18 23  1  0  0  0  0
 19 20  1  0  0  0  0
 20 21  2  0  0  0  0
 21 22  1  0  0  0  0
 21 27  1  0  0  0  0
 22 23  2  0  0  0  0
 22 25  1  0  0  0  0
 23 24  1  0  0  0  0
 25 26  2  0  0  0  0
 26 27  1  0  0  0  0
M  END
>  <CHROM.1>
-67.79602159,-166.64560245,-162.01283124,54.40619681,-34.20225346,134.72274757
-104.95293755,48.36720193,55.23083278,30.70431134,2.26286842,-1.19210063
1.26595928

>  <Name>
ligand

>  <RI>
0

>  <Rbt.Current_Directory>
/home/itssahil/PROJECTS/Mol_Feturizer/New_Systems/rnas/3IQN

>  <Rbt.Executable>
rbdock ($Id: //depot/dev/client3/rdock/2013.1/src/exe/rbdock.cxx#4 $)

>  <Rbt.Library>
libRbt.so (2013.1, Build901 2013/11/27)

>  <Rbt.Parameter_File>
/export/apps/rDock/src/rDock_2013.1_src/data/scripts/dock_solv.prm

>  <Rbt.Receptor>
prm/pocket_docking_6.prm

>  <SCORE>
-16.7658

>  <SCORE.INTER>
-16.3046

>  <SCORE.INTER.CONST>
1

>  <SCORE.INTER.POLAR>
0

>  <SCORE.INTER.ROT>
7

>  <SCORE.INTER.SOLV>
9.74767

>  <SCORE.INTER.VDW>
-22.3856

>  <SCORE.INTER.norm>
-0.603875

>  <SCORE.INTRA>
-0.462156

>  <SCORE.INTRA.DIHEDRAL>
1.64153

>  <SCORE.INTRA.DIHEDRAL.0>
10.0365

>  <SCORE.INTRA.POLAR>
0

>  <SCORE.INTRA.POLAR.0>
0

>  <SCORE.INTRA.REPUL>
0

>  <SCORE.INTRA.REPUL.0>
0

>  <SCORE.INTRA.SOLV>
-0.730191

>  <SCORE.INTRA.SOLV.lig_0>
-48.6728

>  <SCORE.INTRA.VDW>
-0.917824

>  <SCORE.INTRA.VDW.0>
-1.10662

>  <SCORE.INTRA.norm>
-0.0171169

>  <SCORE.RESTR>
0.000945346

>  <SCORE.RESTR.CAVITY>
0.000945346

>  <SCORE.RESTR.norm>
3.50128e-05

>  <SCORE.SYSTEM>
0

>  <SCORE.SYSTEM.CONST>
0

>  <SCORE.SYSTEM.DIHEDRAL>
0

>  <SCORE.SYSTEM.SOLV>
0

>  <SCORE.SYSTEM.norm>
0

>  <SCORE.heavy>
27

>  <SCORE.norm>
-0.620957

>  <RMSD>
5.980

$$$$
ligand
 OpenBabel11021811483D
libRbt.so/2013.1/901 2013/11/27
 27 29  0  0  0  0  0  0  0  0999 V2000
   45.3526   57.3518   29.6971 N   0  0  0  0  0  0  0  0  0  0  0  0
   46.4050   57.8287   30.6040 C   0  0  2  0  0  0  0  0  0  0  0  0
   46.1548   59.2764   30.9022 C   0  0  0  0  0  0  0  0  0  0  0  0
   46.2632   59.6904   32.0454 O   0  0  0  0  0  0  0  0  0  0  0  0
   47.7852   57.6732   29.9480 C   0  0  0  0  0  0  0  0  0  0  0  0
   48.8510   58.1889   30.9105 C   0  0  0  0  0  0  0  0  0  0  0  0
   48.7185   57.4844   32.5849 S   0  0  2  0  0  0  0  0  0  0  0  0
   49.7932   58.5360   33.6093 C   0  0  0  0  0  0  0  0  0  0  0  0
   49.6658   55.9247   32.7115 C   0  0  0  0  0  0  0  0  0  0  0  0
   48.8037   54.9388   31.9620 C   0  0  1  0  0  0  0  0  0  0  0  0
   49.1045   55.1808   30.6272 O   0  0  0  0  0  0  0  0  0  0  0  0
   49.0353   53.4297   32.0526 C   0  0  1  0  0  0  0  0  0  0  0  0
   48.2988   52.8341   33.0820 O   0  0  0  0  0  0  0  0  0  0  0  0
   48.5454   53.0250   30.5806 C   0  0  1  0  0  0  0  0  0  0  0  0
   47.2123   53.4481   30.2588 O   0  0  0  0  0  0  0  0  0  0  0  0
   49.6333   53.9259   30.0428 C   0  0  1  0  0  0  0  0  0  0  0  0
   45.8587   60.0390   29.9958 O   0  0  0  0  0  0  0  0  0  0  0  0
   49.6417   52.2234   25.3131 N   0  0  0  0  0  0  0  0  0  0  0  0
   49.2645   51.6451   26.4545 C   0  0  0  0  0  0  0  0  0  0  0  0
   49.2932   52.2971   27.6161 N   0  0  0  0  0  0  0  0  0  0  0  0
   49.8223   53.5247   27.7060 C   0  0  0  0  0  0  0  0  0  0  0  0
   50.3007   54.1546   26.5131 C   0  0  0  0  0  0  0  0  0  0  0  0
   50.1752   53.4381   25.2911 C   0  0  0  0  0  0  0  0  0  0  0  0
   50.5910   53.9756   24.1054 N   0  0  0  0  0  0  0  0  0  0  0  0
   50.7817   55.3620   26.8681 N   0  0  0  0  0  0  0  0  0  0  0  0
   50.6454   55.5226   28.1660 C   0  0  0  0  0  0  0  0  0  0  0  0
   50.0453   54.4322   28.7464 N   0  0  0  0  0  0  0  0  0  0  0  0
  2  1  1  6  0  0  0
  2  3  1  0  0  0  0
  2  5  1  0  0  0  0
  3  4  1  0  0  0  0
  3 17  1  0  0  0  0
  5  6  1  0  0  0  0
  7  6  1  6  0  0  0
  7  8  1  0  0  0  0
  7  9  1  0  0  0  0
 10  9  1  1  0  0  0
 10 11  1  0  0  0  0
 10 12  1  0  0  0  0
 11 16  1  0  0  0  0
 12 13  1  1  0  0  0
 12 14  1  0  0  0  0
 14 15  1  1  0  0  0
 14 16  1  0  0  0  0
 16 27  1  6  0  0  0
 18 19  2  0  0  0  0
 18 23  1  0  0  0  0
 19 20  1  0  0  0  0
 20 21  2  0  0  0  0
 21 22  1  0  0  0  0
 21 27  1  0  0  0  0
 22 23  2  0  0  0  0
 22 25  1  0  0  0  0
 23 24  1  0  0  0  0
 25 26  2  0  0  0  0
 26 27  1  0  0  0  0
M  END
>  <CHROM.1>
136.26001552,179.48718098,50.84798818,-166.43011429,-74.51396041,80.42727600
-142.86613061,48.69163534,55.54472606,29.80675197,2.52580725,-1.17842926
1.72864093

>  <Name>
ligand

>  <RI>
0

>  <Rbt.Current_Directory>
/home/itssahil/PROJECTS/Mol_Feturizer/New_Systems/rnas/3IQN

>  <Rbt.Executable>
rbdock ($Id: //depot/dev/client3/rdock/2013.1/src/exe/rbdock.cxx#4 $)

>  <Rbt.Library>
libRbt.so (2013.1, Build901 2013/11/27)

>  <Rbt.Parameter_File>
/export/apps/rDock/src/rDock_2013.1_src/data/scripts/dock_solv.prm

>  <Rbt.Receptor>
prm/pocket_docking_5.prm

>  <SCORE>
-14.5752

>  <SCORE.INTER>
-10.3302

>  <SCORE.INTER.CONST>
1

>  <SCORE.INTER.POLAR>
0

>  <SCORE.INTER.ROT>
7

>  <SCORE.INTER.SOLV>
7.70646

>  <SCORE.INTER.VDW>
-17.7223

>  <SCORE.INTER.norm>
-0.3826

>  <SCORE.INTRA>
-4.24501

>  <SCORE.INTRA.DIHEDRAL>
-3.98046

>  <SCORE.INTRA.DIHEDRAL.0>
10.0365

>  <SCORE.INTRA.POLAR>
0

>  <SCORE.INTRA.POLAR.0>
0

>  <SCORE.INTRA.REPUL>
0

>  <SCORE.INTRA.REPUL.0>
0

>  <SCORE.INTRA.SOLV>
-0.565316

>  <SCORE.INTRA.SOLV.lig_0>
-48.6728

>  <SCORE.INTRA.VDW>
-1.97212

>  <SCORE.INTRA.VDW.0>
-1.10662

>  <SCORE.INTRA.norm>
-0.157223

>  <SCORE.RESTR>
0

>  <SCORE.RESTR.CAVITY>
0

>  <SCORE.RESTR.norm>
0

>  <SCORE.SYSTEM>
0

>  <SCORE.SYSTEM.CONST>
0

>  <SCORE.SYSTEM.DIHEDRAL>
0

>  <SCORE.SYSTEM.SOLV>
0

>  <SCORE.SYSTEM.norm>
0

>  <SCORE.heavy>
27

>  <SCORE.norm>
-0.539823

>  <RMSD>
5.985

$$$$
ligand
 OpenBabel11021811483D
libRbt.so/2013.1/901 2013/11/27
 27 29  0  0  0  0  0  0  0  0999 V2000
   50.3855   55.1912   34.1275 N   0  0  0  0  0  0  0  0  0  0  0  0
   49.0320   54.6211   34.1119 C   0  0  2  0  0  0  0  0  0  0  0  0
   48.9224   53.6898   32.9422 C   0  0  0  0  0  0  0  0  0  0  0  0
   48.3766   52.6060   33.0754 O   0  0  0  0  0  0  0  0  0  0  0  0
   47.9848   55.7367   33.9766 C   0  0  0  0  0  0  0  0  0  0  0  0
   46.5935   55.1104   33.9676 C   0  0  0  0  0  0  0  0  0  0  0  0
   45.2473   56.3344   33.8846 S   0  0  2  0  0  0  0  0  0  0  0  0
   43.7338   55.3384   33.7180 C   0  0  0  0  0  0  0  0  0  0  0  0
   45.2131   57.1543   32.2498 C   0  0  0  0  0  0  0  0  0  0  0  0
   46.3047   58.1899   32.3633 C   0  0  1  0  0  0  0  0  0  0  0  0
   47.4463   57.5176   31.9443 O   0  0  0  0  0  0  0  0  0  0  0  0
   46.3405   59.4287   31.4671 C   0  0  1  0  0  0  0  0  0  0  0  0
   45.6630   60.5168   32.0274 O   0  0  0  0  0  0  0  0  0  0  0  0
   47.9305   59.6197   31.3886 C   0  0  1  0  0  0  0  0  0  0  0  0
   48.5805   59.7346   32.6629 O   0  0  0  0  0  0  0  0  0  0  0  0
   47.9992   58.2404   30.7747 C   0  0  1  0  0  0  0  0  0  0  0  0
   49.3665   54.0270   31.8560 O   0  0  0  0  0  0  0  0  0  0  0  0
   49.4153   55.9034   26.5555 N   0  0  0  0  0  0  0  0  0  0  0  0
   48.4018   56.7352   26.8015 C   0  0  0  0  0  0  0  0  0  0  0  0
   48.2276   57.2968   27.9971 N   0  0  0  0  0  0  0  0  0  0  0  0
   48.9930   56.9507   29.0408 C   0  0  0  0  0  0  0  0  0  0  0  0
   50.0507   56.0089   28.8334 C   0  0  0  0  0  0  0  0  0  0  0  0
   50.2344   55.5000   27.5183 C   0  0  0  0  0  0  0  0  0  0  0  0
   51.2321   54.6109   27.2325 N   0  0  0  0  0  0  0  0  0  0  0  0
   50.6592   55.8284   30.0218 N   0  0  0  0  0  0  0  0  0  0  0  0
   50.0670   56.5683   30.9332 C   0  0  0  0  0  0  0  0  0  0  0  0
   49.0378   57.3005   30.3941 N   0  0  0  0  0  0  0  0  0  0  0  0
  2  1  1  6  0  0  0
  2  3  1  0  0  0  0
  2  5  1  0  0  0  0
  3  4  1  0  0  0  0
  3 17  1  0  0  0  0
  5  6  1  0  0  0  0
  7  6  1  6  0  0  0
  7  8  1  0  0  0  0
  7  9  1  0  0  0  0
 10  9  1  6  0  0  0
 10 11  1  0  0  0  0
 10 12  1  0  0  0  0
 11 16  1  0  0  0  0
 12 13  1  1  0  0  0
 12 14  1  0  0  0  0
 14 15  1  1  0  0  0
 14 16  1  0  0  0  0
 16 27  1  1  0  0  0
 18 19  2  0  0  0  0
 18 23  1  0  0  0  0
 19 20  1  0  0  0  0
 20 21  2  0  0  0  0
 21 22  1  0  0  0  0
 21 27  1  0  0  0  0
 22 23  2  0  0  0  0
 22 25  1  0  0  0  0
 23 24  1  0  0  0  0
 25 26  2  0  0  0  0
 26 27  1  0  0  0  0
M  END
>  <CHROM.1>
136.61536857,-179.84711279,177.47428798,174.48172002,-80.02759764,88.96563901
128.69508337,48.01524218,56.50715038,31.38688486,-2.62052102,0.84278160,-0.78983739

>  <Name>
ligand

>  <RI>
0

>  <Rbt.Current_Directory>
/home/itssahil/PROJECTS/Mol_Feturizer/New_Systems/rnas/3IQN

>  <Rbt.Executable>
rbdock ($Id: //depot/dev/client3/rdock/2013.1/src/exe/rbdock.cxx#4 $)

>  <Rbt.Library>
libRbt.so (2013.1, Build901 2013/11/27)

>  <Rbt.Parameter_File>
/export/apps/rDock/src/rDock_2013.1_src/data/scripts/dock_solv.prm

>  <Rbt.Receptor>
prm/pocket_docking_6.prm

>  <SCORE>
-21.4787

>  <SCORE.INTER>
-17.1652

>  <SCORE.INTER.CONST>
1

>  <SCORE.INTER.POLAR>
0

>  <SCORE.INTER.ROT>
7

>  <SCORE.INTER.SOLV>
18.2219

>  <SCORE.INTER.VDW>
-25.7841

>  <SCORE.INTER.norm>
-0.63575

>  <SCORE.INTRA>
-4.31346

>  <SCORE.INTRA.DIHEDRAL>
-3.8767

>  <SCORE.INTRA.DIHEDRAL.0>
10.0365

>  <SCORE.INTRA.POLAR>
0

>  <SCORE.INTRA.POLAR.0>
0

>  <SCORE.INTRA.REPUL>
0

>  <SCORE.INTRA.REPUL.0>
0

>  <SCORE.INTRA.SOLV>
-0.662435

>  <SCORE.INTRA.SOLV.lig_0>
-48.6728

>  <SCORE.INTRA.VDW>
-2.04389

>  <SCORE.INTRA.VDW.0>
-1.10662

>  <SCORE.INTRA.norm>
-0.159758

>  <SCORE.RESTR>
0

>  <SCORE.RESTR.CAVITY>
0

>  <SCORE.RESTR.norm>
0

>  <SCORE.SYSTEM>
0

>  <SCORE.SYSTEM.CONST>
0

>  <SCORE.SYSTEM.DIHEDRAL>
0

>  <SCORE.SYSTEM.SOLV>
0

>  <SCORE.SYSTEM.norm>
0

>  <SCORE.heavy>
27

>  <SCORE.norm>
-0.795507

>  <RMSD>
5.989

$$$$
ligand
 OpenBabel11021811483D
libRbt.so/2013.1/901 2013/11/27
 27 29  0  0  0  0  0  0  0  0999 V2000
   52.4963   55.3790   27.9148 N   0  0  0  0  0  0  0  0  0  0  0  0
   51.7789   54.2103   27.3886 C   0  0  2  0  0  0  0  0  0  0  0  0
   52.3458   53.8715   26.0427 C   0  0  0  0  0  0  0  0  0  0  0  0
   52.7367   52.7378   25.8142 O   0  0  0  0  0  0  0  0  0  0  0  0
   50.2815   54.5223   27.2484 C   0  0  0  0  0  0  0  0  0  0  0  0
   49.6296   54.4466   28.6259 C   0  0  0  0  0  0  0  0  0  0  0  0
   50.0271   55.8661   29.6957 S   0  0  2  0  0  0  0  0  0  0  0  0
   49.2516   55.4662   31.2923 C   0  0  0  0  0  0  0  0  0  0  0  0
   49.0064   57.3188   29.2554 C   0  0  0  0  0  0  0  0  0  0  0  0
   47.9480   56.7328   28.3535 C   0  0  1  0  0  0  0  0  0  0  0  0
   47.1293   56.0195   29.2206 O   0  0  0  0  0  0  0  0  0  0  0  0
   46.9256   57.6105   27.6300 C   0  0  1  0  0  0  0  0  0  0  0  0
   47.3609   58.0077   26.3613 O   0  0  0  0  0  0  0  0  0  0  0  0
   45.6998   56.5774   27.6059 C   0  0  1  0  0  0  0  0  0  0  0  0
   45.9986   55.3121   26.9982 O   0  0  0  0  0  0  0  0  0  0  0  0
   45.7592   56.5742   29.1161 C   0  0  1  0  0  0  0  0  0  0  0  0
   52.3994   54.7287   25.1749 O   0  0  0  0  0  0  0  0  0  0  0  0
   41.0801   55.2126   30.3492 N   0  0  0  0  0  0  0  0  0  0  0  0
   41.5452   55.9322   29.3268 C   0  0  0  0  0  0  0  0  0  0  0  0
   42.8493   56.1398   29.1488 N   0  0  0  0  0  0  0  0  0  0  0  0
   43.7434   55.7383   30.0622 C   0  0  0  0  0  0  0  0  0  0  0  0
   43.2771   55.0203   31.2093 C   0  0  0  0  0  0  0  0  0  0  0  0
   41.8817   54.7644   31.3069 C   0  0  0  0  0  0  0  0  0  0  0  0
   41.3577   54.0703   32.3611 N   0  0  0  0  0  0  0  0  0  0  0  0
   44.3557   54.7386   31.9658 N   0  0  0  0  0  0  0  0  0  0  0  0
   45.4333   55.2228   31.3886 C   0  0  0  0  0  0  0  0  0  0  0  0
   45.1313   55.8405   30.1998 N   0  0  0  0  0  0  0  0  0  0  0  0
  2  1  1  6  0  0  0
  2  3  1  0  0  0  0
  2  5  1  0  0  0  0
  3  4  1  0  0  0  0
  3 17  1  0  0  0  0
  5  6  1  0  0  0  0
  7  6  1  6  0  0  0
  7  8  1  0  0  0  0
  7  9  1  0  0  0  0
 10  9  1  1  0  0  0
 10 11  1  0  0  0  0
 10 12  1  0  0  0  0
 11 16  1  0  0  0  0
 12 13  1  6  0  0  0
 12 14  1  0  0  0  0
 14 15  1  6  0  0  0
 14 16  1  0  0  0  0
 16 27  1  1  0  0  0
 18 19  2  0  0  0  0
 18 23  1  0  0  0  0
 19 20  1  0  0  0  0
 20 21  2  0  0  0  0
 21 22  1  0  0  0  0
 21 27  1  0  0  0  0
 22 23  2  0  0  0  0
 22 25  1  0  0  0  0
 23 24  1  0  0  0  0
 25 26  2  0  0  0  0
 26 27  1  0  0  0  0
M  END
>  <CHROM.1>
126.72233224,-77.77391357,74.13797359,-175.55292347,12.83176047,72.55241751
-156.87580129,47.20676082,55.49943348,28.89518097,-0.33242182,-0.20581000
1.93385786

>  <Name>
ligand

>  <RI>
0

>  <Rbt.Current_Directory>
/home/itssahil/PROJECTS/Mol_Feturizer/New_Systems/rnas/3IQN

>  <Rbt.Executable>
rbdock ($Id: //depot/dev/client3/rdock/2013.1/src/exe/rbdock.cxx#4 $)

>  <Rbt.Library>
libRbt.so (2013.1, Build901 2013/11/27)

>  <Rbt.Parameter_File>
/export/apps/rDock/src/rDock_2013.1_src/data/scripts/dock_solv.prm

>  <Rbt.Receptor>
prm/pocket_docking_8.prm

>  <SCORE>
-8.0449

>  <SCORE.INTER>
-7.6973

>  <SCORE.INTER.CONST>
1

>  <SCORE.INTER.POLAR>
0

>  <SCORE.INTER.ROT>
7

>  <SCORE.INTER.SOLV>
13.8599

>  <SCORE.INTER.VDW>
-18.0182

>  <SCORE.INTER.norm>
-0.285085

>  <SCORE.INTRA>
-0.347598

>  <SCORE.INTRA.DIHEDRAL>
-0.598338

>  <SCORE.INTRA.DIHEDRAL.0>
10.0365

>  <SCORE.INTRA.POLAR>
0

>  <SCORE.INTRA.POLAR.0>
0

>  <SCORE.INTRA.REPUL>
0

>  <SCORE.INTRA.REPUL.0>
0

>  <SCORE.INTRA.SOLV>
1.28374

>  <SCORE.INTRA.SOLV.lig_0>
-48.6728

>  <SCORE.INTRA.VDW>
-0.690301

>  <SCORE.INTRA.VDW.0>
-1.10662

>  <SCORE.INTRA.norm>
-0.012874

>  <SCORE.RESTR>
0

>  <SCORE.RESTR.CAVITY>
0

>  <SCORE.RESTR.norm>
0

>  <SCORE.SYSTEM>
0

>  <SCORE.SYSTEM.CONST>
0

>  <SCORE.SYSTEM.DIHEDRAL>
0

>  <SCORE.SYSTEM.SOLV>
0

>  <SCORE.SYSTEM.norm>
0

>  <SCORE.heavy>
27

>  <SCORE.norm>
-0.297959

>  <RMSD>
6.058

$$$$
ligand
 OpenBabel11021811483D
libRbt.so/2013.1/901 2013/11/27
 27 29  0  0  0  0  0  0  0  0999 V2000
   49.6283   54.4325   28.0173 N   0  0  0  0  0  0  0  0  0  0  0  0
   49.3660   53.2365   28.8286 C   0  0  2  0  0  0  0  0  0  0  0  0
   50.4270   53.1358   29.8829 C   0  0  0  0  0  0  0  0  0  0  0  0
   51.5978   53.3163   29.5882 O   0  0  0  0  0  0  0  0  0  0  0  0
   49.3985   51.9776   27.9491 C   0  0  0  0  0  0  0  0  0  0  0  0
   48.2840   52.0708   26.9111 C   0  0  0  0  0  0  0  0  0  0  0  0
   46.6140   52.0764   27.6382 S   0  0  2  0  0  0  0  0  0  0  0  0
   45.4934   51.9599   26.2095 C   0  0  0  0  0  0  0  0  0  0  0  0
   46.1566   53.7544   28.2048 C   0  0  0  0  0  0  0  0  0  0  0  0
   45.0430   53.4919   29.1886 C   0  0  1  0  0  0  0  0  0  0  0  0
   45.7006   53.0199   30.3179 O   0  0  0  0  0  0  0  0  0  0  0  0
   44.2042   54.6248   29.7817 C   0  0  1  0  0  0  0  0  0  0  0  0
   43.0629   54.9027   29.0221 O   0  0  0  0  0  0  0  0  0  0  0  0
   43.8932   53.9676   31.2107 C   0  0  1  0  0  0  0  0  0  0  0  0
   43.2701   52.6763   31.1500 O   0  0  0  0  0  0  0  0  0  0  0  0
   45.3860   53.9301   31.4441 C   0  0  1  0  0  0  0  0  0  0  0  0
   50.1128   52.8886   31.0366 O   0  0  0  0  0  0  0  0  0  0  0  0
   45.1772   52.8919   36.3581 N   0  0  0  0  0  0  0  0  0  0  0  0
   44.2793   53.4379   35.5365 C   0  0  0  0  0  0  0  0  0  0  0  0
   44.5152   53.5821   34.2331 N   0  0  0  0  0  0  0  0  0  0  0  0
   45.7170   53.2985   33.7133 C   0  0  0  0  0  0  0  0  0  0  0  0
   46.7309   52.7728   34.5761 C   0  0  0  0  0  0  0  0  0  0  0  0
   46.3962   52.5712   35.9434 C   0  0  0  0  0  0  0  0  0  0  0  0
   47.3011   52.0567   36.8289 N   0  0  0  0  0  0  0  0  0  0  0  0
   47.8310   52.5793   33.8227 N   0  0  0  0  0  0  0  0  0  0  0  0
   47.5822   52.9432   32.5840 C   0  0  0  0  0  0  0  0  0  0  0  0
   46.2895   53.3837   32.4402 N   0  0  0  0  0  0  0  0  0  0  0  0
  2  1  1  6  0  0  0
  2  3  1  0  0  0  0
  2  5  1  0  0  0  0
  3  4  1  0  0  0  0
  3 17  1  0  0  0  0
  5  6  1  0  0  0  0
  7  6  1  6  0  0  0
  7  8  1  0  0  0  0
  7  9  1  0  0  0  0
 10  9  1  6  0  0  0
 10 11  1  0  0  0  0
 10 12  1  0  0  0  0
 11 16  1  0  0  0  0
 12 13  1  6  0  0  0
 12 14  1  0  0  0  0
 14 15  1  6  0  0  0
 14 16  1  0  0  0  0
 16 27  1  1  0  0  0
 18 19  2  0  0  0  0
 18 23  1  0  0  0  0
 19 20  1  0  0  0  0
 20 21  2  0  0  0  0
 21 22  1  0  0  0  0
 21 27  1  0  0  0  0
 22 23  2  0  0  0  0
 22 25  1  0  0  0  0
 23 24  1  0  0  0  0
 25 26  2  0  0  0  0
 26 27  1  0  0  0  0
M  END
>  <CHROM.1>
-44.80546582,-62.65640596,-64.05750009,-172.42346016,-160.06428397,75.76465707
-138.42122180,46.65197119,53.09490970,30.93445509,-1.25317761,-0.12230383
1.58917163

>  <Name>
ligand

>  <RI>
0

>  <Rbt.Current_Directory>
/home/itssahil/PROJECTS/Mol_Feturizer/New_Systems/rnas/3IQN

>  <Rbt.Executable>
rbdock ($Id: //depot/dev/client3/rdock/2013.1/src/exe/rbdock.cxx#4 $)

>  <Rbt.Library>
libRbt.so (2013.1, Build901 2013/11/27)

>  <Rbt.Parameter_File>
/export/apps/rDock/src/rDock_2013.1_src/data/scripts/dock_solv.prm

>  <Rbt.Receptor>
prm/pocket_docking_6.prm

>  <SCORE>
-11.6816

>  <SCORE.INTER>
-8.14235

>  <SCORE.INTER.CONST>
1

>  <SCORE.INTER.POLAR>
0

>  <SCORE.INTER.ROT>
7

>  <SCORE.INTER.SOLV>
13.5773

>  <SCORE.INTER.VDW>
-18.2207

>  <SCORE.INTER.norm>
-0.301568

>  <SCORE.INTRA>
-3.53922

>  <SCORE.INTRA.DIHEDRAL>
-3.72043

>  <SCORE.INTRA.DIHEDRAL.0>
10.0365

>  <SCORE.INTRA.POLAR>
0

>  <SCORE.INTRA.POLAR.0>
0

>  <SCORE.INTRA.REPUL>
0

>  <SCORE.INTRA.REPUL.0>
0

>  <SCORE.INTRA.SOLV>
1.08943

>  <SCORE.INTRA.SOLV.lig_0>
-48.6728

>  <SCORE.INTRA.VDW>
-2.22371

>  <SCORE.INTRA.VDW.0>
-1.10662

>  <SCORE.INTRA.norm>
-0.131082

>  <SCORE.RESTR>
0

>  <SCORE.RESTR.CAVITY>
0

>  <SCORE.RESTR.norm>
0

>  <SCORE.SYSTEM>
0

>  <SCORE.SYSTEM.CONST>
0

>  <SCORE.SYSTEM.DIHEDRAL>
0

>  <SCORE.SYSTEM.SOLV>
0

>  <SCORE.SYSTEM.norm>
0

>  <SCORE.heavy>
27

>  <SCORE.norm>
-0.43265

>  <RMSD>
6.077

$$$$
ligand
 OpenBabel11021811483D
libRbt.so/2013.1/901 2013/11/27
 27 29  0  0  0  0  0  0  0  0999 V2000
   44.3887   56.2416   31.5487 N   0  0  0  0  0  0  0  0  0  0  0  0
   45.0286   55.6103   32.7104 C   0  0  2  0  0  0  0  0  0  0  0  0
   43.9578   55.0362   33.5887 C   0  0  0  0  0  0  0  0  0  0  0  0
   44.2596   54.4782   34.6316 O   0  0  0  0  0  0  0  0  0  0  0  0
   45.8378   56.6477   33.5029 C   0  0  0  0  0  0  0  0  0  0  0  0
   46.9186   57.2293   32.5964 C   0  0  0  0  0  0  0  0  0  0  0  0
   48.3887   57.8109   33.5009 S   0  0  2  0  0  0  0  0  0  0  0  0
   49.3249   58.7785   32.2771 C   0  0  0  0  0  0  0  0  0  0  0  0
   49.5856   56.4488   33.7419 C   0  0  0  0  0  0  0  0  0  0  0  0
   48.7246   55.3249   34.2640 C   0  0  1  0  0  0  0  0  0  0  0  0
   48.2095   54.7384   33.1144 O   0  0  0  0  0  0  0  0  0  0  0  0
   49.3235   54.1116   34.9769 C   0  0  1  0  0  0  0  0  0  0  0  0
   49.4073   54.2896   36.3618 O   0  0  0  0  0  0  0  0  0  0  0  0
   48.2464   53.0138   34.5237 C   0  0  1  0  0  0  0  0  0  0  0  0
   46.8880   53.3407   34.8516 O   0  0  0  0  0  0  0  0  0  0  0  0
   48.6346   53.3190   33.0953 C   0  0  1  0  0  0  0  0  0  0  0  0
   42.7858   55.1435   33.2637 O   0  0  0  0  0  0  0  0  0  0  0  0
   50.6630   52.9072   28.5144 N   0  0  0  0  0  0  0  0  0  0  0  0
   51.1907   53.2912   29.6777 C   0  0  0  0  0  0  0  0  0  0  0  0
   50.4847   53.2809   30.8076 N   0  0  0  0  0  0  0  0  0  0  0  0
   49.1742   53.0027   30.8005 C   0  0  0  0  0  0  0  0  0  0  0  0
   48.5544   52.6507   29.5592 C   0  0  0  0  0  0  0  0  0  0  0  0
   49.3757   52.6066   28.3992 C   0  0  0  0  0  0  0  0  0  0  0  0
   48.8655   52.2623   27.1790 N   0  0  0  0  0  0  0  0  0  0  0  0
   47.2512   52.4259   29.8168 N   0  0  0  0  0  0  0  0  0  0  0  0
   47.0199   52.6135   31.0975 C   0  0  0  0  0  0  0  0  0  0  0  0
   48.1670   52.9571   31.7696 N   0  0  0  0  0  0  0  0  0  0  0  0
  2  1  1  6  0  0  0
  2  3  1  0  0  0  0
  2  5  1  0  0  0  0
  3  4  1  0  0  0  0
  3 17  1  0  0  0  0
  5  6  1  0  0  0  0
  7  6  1  6  0  0  0
  7  8  1  0  0  0  0
  7  9  1  0  0  0  0
 10  9  1  6  0  0  0
 10 11  1  0  0  0  0
 10 12  1  0  0  0  0
 11 16  1  0  0  0  0
 12 13  1  1  0  0  0
 12 14  1  0  0  0  0
 14 15  1  6  0  0  0
 14 16  1  0  0  0  0
 16 27  1  6  0  0  0
 18 19  2  0  0  0  0
 18 23  1  0  0  0  0
 19 20  1  0  0  0  0
 20 21  2  0  0  0  0
 21 22  1  0  0  0  0
 21 27  1  0  0  0  0
 22 23  2  0  0  0  0
 22 25  1  0  0  0  0
 23 24  1  0  0  0  0
 25 26  2  0  0  0  0
 26 27  1  0  0  0  0
M  END
>  <CHROM.1>
-178.79172223,-60.44229991,-152.26522495,-167.48672541,-48.15114199,84.43796248
97.73332678,47.78010189,54.63526383,32.37534265,2.12138162,0.06168039,0.93874770

>  <Name>
ligand

>  <RI>
0

>  <Rbt.Current_Directory>
/home/itssahil/PROJECTS/Mol_Feturizer/New_Systems/rnas/3IQN

>  <Rbt.Executable>
rbdock ($Id: //depot/dev/client3/rdock/2013.1/src/exe/rbdock.cxx#4 $)

>  <Rbt.Library>
libRbt.so (2013.1, Build901 2013/11/27)

>  <Rbt.Parameter_File>
/export/apps/rDock/src/rDock_2013.1_src/data/scripts/dock_solv.prm

>  <Rbt.Receptor>
prm/pocket_docking_6.prm

>  <SCORE>
-22.2572

>  <SCORE.INTER>
-19.9897

>  <SCORE.INTER.CONST>
1

>  <SCORE.INTER.POLAR>
0

>  <SCORE.INTER.ROT>
7

>  <SCORE.INTER.SOLV>
11.2432

>  <SCORE.INTER.VDW>
-25.3409

>  <SCORE.INTER.norm>
-0.740361

>  <SCORE.INTRA>
-2.26749

>  <SCORE.INTRA.DIHEDRAL>
-0.827285

>  <SCORE.INTRA.DIHEDRAL.0>
10.0365

>  <SCORE.INTRA.POLAR>
0

>  <SCORE.INTRA.POLAR.0>
0

>  <SCORE.INTRA.REPUL>
0

>  <SCORE.INTRA.REPUL.0>
0

>  <SCORE.INTRA.SOLV>
0.304355

>  <SCORE.INTRA.SOLV.lig_0>
-48.6728

>  <SCORE.INTRA.VDW>
-2.00603

>  <SCORE.INTRA.VDW.0>
-1.10662

>  <SCORE.INTRA.norm>
-0.0839811

>  <SCORE.RESTR>
0

>  <SCORE.RESTR.CAVITY>
0

>  <SCORE.RESTR.norm>
0

>  <SCORE.SYSTEM>
0

>  <SCORE.SYSTEM.CONST>
0

>  <SCORE.SYSTEM.DIHEDRAL>
0

>  <SCORE.SYSTEM.SOLV>
0

>  <SCORE.SYSTEM.norm>
0

>  <SCORE.heavy>
27

>  <SCORE.norm>
-0.824342

>  <RMSD>
6.083

$$$$
ligand
 OpenBabel11021811483D
libRbt.so/2013.1/901 2013/11/27
 27 29  0  0  0  0  0  0  0  0999 V2000
   48.9502   57.2828   31.3399 N   0  0  0  0  0  0  0  0  0  0  0  0
   48.1879   57.5864   32.5581 C   0  0  2  0  0  0  0  0  0  0  0  0
   47.6082   58.9625   32.4251 C   0  0  0  0  0  0  0  0  0  0  0  0
   48.3481   59.9303   32.3474 O   0  0  0  0  0  0  0  0  0  0  0  0
   49.1061   57.5356   33.7884 C   0  0  0  0  0  0  0  0  0  0  0  0
   49.6457   56.1169   33.9444 C   0  0  0  0  0  0  0  0  0  0  0  0
   48.4106   54.9361   34.5752 S   0  0  2  0  0  0  0  0  0  0  0  0
   49.2032   54.1780   36.0269 C   0  0  0  0  0  0  0  0  0  0  0  0
   48.3243   53.4527   33.5084 C   0  0  0  0  0  0  0  0  0  0  0  0
   47.5335   53.9337   32.3167 C   0  0  1  0  0  0  0  0  0  0  0  0
   48.3260   53.5872   31.2293 O   0  0  0  0  0  0  0  0  0  0  0  0
   46.1960   53.3032   31.9258 C   0  0  1  0  0  0  0  0  0  0  0  0
   45.1056   53.9397   32.5280 O   0  0  0  0  0  0  0  0  0  0  0  0
   46.2849   53.5209   30.3398 C   0  0  1  0  0  0  0  0  0  0  0  0
   46.4910   54.8825   29.9358 O   0  0  0  0  0  0  0  0  0  0  0  0
   47.5399   52.6791   30.3613 C   0  0  1  0  0  0  0  0  0  0  0  0
   46.3967   59.1074   32.3791 O   0  0  0  0  0  0  0  0  0  0  0  0
   50.3035   55.0175   26.8737 N   0  0  0  0  0  0  0  0  0  0  0  0
   49.3311   55.4650   27.6697 C   0  0  0  0  0  0  0  0  0  0  0  0
   48.7504   54.6826   28.5785 N   0  0  0  0  0  0  0  0  0  0  0  0
   49.0332   53.3748   28.6456 C   0  0  0  0  0  0  0  0  0  0  0  0
   50.0242   52.8410   27.7615 C   0  0  0  0  0  0  0  0  0  0  0  0
   50.6629   53.7402   26.8640 C   0  0  0  0  0  0  0  0  0  0  0  0
   51.6322   53.3143   25.9999 N   0  0  0  0  0  0  0  0  0  0  0  0
   50.1181   51.5223   28.0215 N   0  0  0  0  0  0  0  0  0  0  0  0
   49.2730   51.2037   28.9770 C   0  0  0  0  0  0  0  0  0  0  0  0
   48.5798   52.3030   29.4211 N   0  0  0  0  0  0  0  0  0  0  0  0
  2  1  1  6  0  0  0
  2  3  1  0  0  0  0
  2  5  1  0  0  0  0
  3  4  1  0  0  0  0
  3 17  1  0  0  0  0
  5  6  1  0  0  0  0
  7  6  1  6  0  0  0
  7  8  1  0  0  0  0
  7  9  1  0  0  0  0
 10  9  1  1  0  0  0
 10 11  1  0  0  0  0
 10 12  1  0  0  0  0
 11 16  1  0  0  0  0
 12 13  1  1  0  0  0
 12 14  1  0  0  0  0
 14 15  1  1  0  0  0
 14 16  1  0  0  0  0
 16 27  1  6  0  0  0
 18 19  2  0  0  0  0
 18 23  1  0  0  0  0
 19 20  1  0  0  0  0
 20 21  2  0  0  0  0
 21 22  1  0  0  0  0
 21 27  1  0  0  0  0
 22 23  2  0  0  0  0
 22 25  1  0  0  0  0
 23 24  1  0  0  0  0
 25 26  2  0  0  0  0
 26 27  1  0  0  0  0
M  END
>  <CHROM.1>
-63.90596825,-62.95390568,-74.24464148,-126.09308799,-76.95325737,127.63256239
-65.33613967,48.44490734,54.82369286,31.02106380,-2.41708739,-1.23337810
-2.94806833

>  <Name>
ligand

>  <RI>
0

>  <Rbt.Current_Directory>
/home/itssahil/PROJECTS/Mol_Feturizer/New_Systems/rnas/3IQN

>  <Rbt.Executable>
rbdock ($Id: //depot/dev/client3/rdock/2013.1/src/exe/rbdock.cxx#4 $)

>  <Rbt.Library>
libRbt.so (2013.1, Build901 2013/11/27)

>  <Rbt.Parameter_File>
/export/apps/rDock/src/rDock_2013.1_src/data/scripts/dock_solv.prm

>  <Rbt.Receptor>
prm/pocket_docking_6.prm

>  <SCORE>
-13.7838

>  <SCORE.INTER>
-14.3808

>  <SCORE.INTER.CONST>
1

>  <SCORE.INTER.POLAR>
0

>  <SCORE.INTER.ROT>
7

>  <SCORE.INTER.SOLV>
5.98599

>  <SCORE.INTER.VDW>
-19.8492

>  <SCORE.INTER.norm>
-0.532623

>  <SCORE.INTRA>
0.597021

>  <SCORE.INTRA.DIHEDRAL>
3.44966

>  <SCORE.INTRA.DIHEDRAL.0>
10.0365

>  <SCORE.INTRA.POLAR>
0

>  <SCORE.INTRA.POLAR.0>
0

>  <SCORE.INTRA.REPUL>
0

>  <SCORE.INTRA.REPUL.0>
0

>  <SCORE.INTRA.SOLV>
2.03265

>  <SCORE.INTRA.SOLV.lig_0>
-48.6728

>  <SCORE.INTRA.VDW>
-2.14414

>  <SCORE.INTRA.VDW.0>
-1.10662

>  <SCORE.INTRA.norm>
0.0221119

>  <SCORE.RESTR>
0

>  <SCORE.RESTR.CAVITY>
0

>  <SCORE.RESTR.norm>
0

>  <SCORE.SYSTEM>
0

>  <SCORE.SYSTEM.CONST>
0

>  <SCORE.SYSTEM.DIHEDRAL>
0

>  <SCORE.SYSTEM.SOLV>
0

>  <SCORE.SYSTEM.norm>
0

>  <SCORE.heavy>
27

>  <SCORE.norm>
-0.510511

>  <RMSD>
6.101

$$$$
ligand
 OpenBabel11021811483D
libRbt.so/2013.1/901 2013/11/27
 27 29  0  0  0  0  0  0  0  0999 V2000
   47.9559   52.8217   34.3744 N   0  0  0  0  0  0  0  0  0  0  0  0
   48.4284   53.8001   33.3861 C   0  0  2  0  0  0  0  0  0  0  0  0
   49.4772   54.6565   34.0296 C   0  0  0  0  0  0  0  0  0  0  0  0
   49.9584   55.5952   33.4152 O   0  0  0  0  0  0  0  0  0  0  0  0
   47.2654   54.6852   32.9135 C   0  0  0  0  0  0  0  0  0  0  0  0
   46.7546   55.5033   34.0959 C   0  0  0  0  0  0  0  0  0  0  0  0
   45.2491   56.4577   33.7214 S   0  0  2  0  0  0  0  0  0  0  0  0
   44.0150   55.2024   33.2614 C   0  0  0  0  0  0  0  0  0  0  0  0
   45.3968   57.2979   32.1033 C   0  0  0  0  0  0  0  0  0  0  0  0
   46.5866   58.2058   32.2964 C   0  0  1  0  0  0  0  0  0  0  0  0
   47.6568   57.4579   31.8210 O   0  0  0  0  0  0  0  0  0  0  0  0
   46.7512   59.5028   31.5028 C   0  0  1  0  0  0  0  0  0  0  0  0
   46.1838   60.6049   32.1510 O   0  0  0  0  0  0  0  0  0  0  0  0
   48.3527   59.5384   31.4349 C   0  0  1  0  0  0  0  0  0  0  0  0
   49.0047   59.4845   32.7121 O   0  0  0  0  0  0  0  0  0  0  0  0
   48.2854   58.2130   30.7117 C   0  0  1  0  0  0  0  0  0  0  0  0
   49.8344   54.4202   35.1730 O   0  0  0  0  0  0  0  0  0  0  0  0
   49.3089   55.9101   26.3623 N   0  0  0  0  0  0  0  0  0  0  0  0
   48.3783   56.8107   26.6819 C   0  0  0  0  0  0  0  0  0  0  0  0
   48.3062   57.3452   27.9003 N   0  0  0  0  0  0  0  0  0  0  0  0
   49.0896   56.9061   28.8944 C   0  0  0  0  0  0  0  0  0  0  0  0
   50.0573   55.8910   28.6080 C   0  0  0  0  0  0  0  0  0  0  0  0
   50.1375   55.4122   27.2714 C   0  0  0  0  0  0  0  0  0  0  0  0
   51.0459   54.4570   26.9112 N   0  0  0  0  0  0  0  0  0  0  0  0
   50.7046   55.6246   29.7592 N   0  0  0  0  0  0  0  0  0  0  0  0
   50.2173   56.3789   30.7196 C   0  0  0  0  0  0  0  0  0  0  0  0
   49.2260   57.2070   30.2533 N   0  0  0  0  0  0  0  0  0  0  0  0
  2  1  1  1  0  0  0
  2  3  1  0  0  0  0
  2  5  1  0  0  0  0
  3  4  1  0  0  0  0
  3 17  1  0  0  0  0
  5  6  1  0  0  0  0
  7  6  1  6  0  0  0
  7  8  1  0  0  0  0
  7  9  1  0  0  0  0
 10  9  1  6  0  0  0
 10 11  1  0  0  0  0
 10 12  1  0  0  0  0
 11 16  1  0  0  0  0
 12 13  1  1  0  0  0
 12 14  1  0  0  0  0
 14 15  1  1  0  0  0
 14 16  1  0  0  0  0
 16 27  1  1  0  0  0
 18 19  2  0  0  0  0
 18 23  1  0  0  0  0
 19 20  1  0  0  0  0
 20 21  2  0  0  0  0
 21 22  1  0  0  0  0
 21 27  1  0  0  0  0
 22 23  2  0  0  0  0
 22 25  1  0  0  0  0
 23 24  1  0  0  0  0
 25 26  2  0  0  0  0
 26 27  1  0  0  0  0
M  END
>  <CHROM.1>
-175.68630511,64.32314636,-173.37027425,60.37584672,-60.84617112,93.83747259
124.49336602,48.10542322,56.51437646,31.41976528,-2.34811292,0.86475266,-0.88998085

>  <Name>
ligand

>  <RI>
0

>  <Rbt.Current_Directory>
/home/itssahil/PROJECTS/Mol_Feturizer/New_Systems/rnas/3IQN

>  <Rbt.Executable>
rbdock ($Id: //depot/dev/client3/rdock/2013.1/src/exe/rbdock.cxx#4 $)

>  <Rbt.Library>
libRbt.so (2013.1, Build901 2013/11/27)

>  <Rbt.Parameter_File>
/export/apps/rDock/src/rDock_2013.1_src/data/scripts/dock_solv.prm

>  <Rbt.Receptor>
prm/pocket_docking_4.prm

>  <SCORE>
-21.703

>  <SCORE.INTER>
-18.7368

>  <SCORE.INTER.CONST>
1

>  <SCORE.INTER.POLAR>
0

>  <SCORE.INTER.ROT>
7

>  <SCORE.INTER.SOLV>
13.3134

>  <SCORE.INTER.VDW>
-25.1956

>  <SCORE.INTER.norm>
-0.693954

>  <SCORE.INTRA>
-2.96622

>  <SCORE.INTRA.DIHEDRAL>
-3.41449

>  <SCORE.INTRA.DIHEDRAL.0>
10.0365

>  <SCORE.INTRA.POLAR>
0

>  <SCORE.INTRA.POLAR.0>
0

>  <SCORE.INTRA.REPUL>
0

>  <SCORE.INTRA.REPUL.0>
0

>  <SCORE.INTRA.SOLV>
-0.269772

>  <SCORE.INTRA.SOLV.lig_0>
-48.6728

>  <SCORE.INTRA.VDW>
-1.12409

>  <SCORE.INTRA.VDW.0>
-1.10662

>  <SCORE.INTRA.norm>
-0.10986

>  <SCORE.RESTR>
0

>  <SCORE.RESTR.CAVITY>
0

>  <SCORE.RESTR.norm>
0

>  <SCORE.SYSTEM>
0

>  <SCORE.SYSTEM.CONST>
0

>  <SCORE.SYSTEM.DIHEDRAL>
0

>  <SCORE.SYSTEM.SOLV>
0

>  <SCORE.SYSTEM.norm>
0

>  <SCORE.heavy>
27

>  <SCORE.norm>
-0.803814

>  <RMSD>
6.140

$$$$
ligand
 OpenBabel11021811483D
libRbt.so/2013.1/901 2013/11/27
 27 29  0  0  0  0  0  0  0  0999 V2000
   48.1273   60.4811   31.5041 N   0  0  0  0  0  0  0  0  0  0  0  0
   47.4894   59.1742   31.7100 C   0  0  2  0  0  0  0  0  0  0  0  0
   46.0224   59.3910   31.9299 C   0  0  0  0  0  0  0  0  0  0  0  0
   45.5960   60.5178   32.1270 O   0  0  0  0  0  0  0  0  0  0  0  0
   48.0920   58.4740   32.9372 C   0  0  0  0  0  0  0  0  0  0  0  0
   47.4646   57.0898   33.0743 C   0  0  0  0  0  0  0  0  0  0  0  0
   48.4153   55.9652   34.1462 S   0  0  2  0  0  0  0  0  0  0  0  0
   49.8789   55.5228   33.1601 C   0  0  0  0  0  0  0  0  0  0  0  0
   47.6288   54.3154   34.2185 C   0  0  0  0  0  0  0  0  0  0  0  0
   46.7520   54.3000   32.9905 C   0  0  1  0  0  0  0  0  0  0  0  0
   47.6475   54.1154   31.9442 O   0  0  0  0  0  0  0  0  0  0  0  0
   45.7483   53.1764   32.7276 C   0  0  1  0  0  0  0  0  0  0  0  0
   44.4839   53.4501   33.2598 O   0  0  0  0  0  0  0  0  0  0  0  0
   45.7976   53.1835   31.1250 C   0  0  1  0  0  0  0  0  0  0  0  0
   45.5051   54.4540   30.5254 O   0  0  0  0  0  0  0  0  0  0  0  0
   47.2719   52.8696   31.2351 C   0  0  1  0  0  0  0  0  0  0  0  0
   45.2578   58.4398   31.8952 O   0  0  0  0  0  0  0  0  0  0  0  0
   47.9663   51.7115   26.3931 N   0  0  0  0  0  0  0  0  0  0  0  0
   46.8620   51.7366   27.1409 C   0  0  0  0  0  0  0  0  0  0  0  0
   46.8838   52.1288   28.4141 N   0  0  0  0  0  0  0  0  0  0  0  0
   48.0407   52.3957   29.0347 C   0  0  0  0  0  0  0  0  0  0  0  0
   49.2566   52.3149   28.2838 C   0  0  0  0  0  0  0  0  0  0  0  0
   49.1626   51.9632   26.9092 C   0  0  0  0  0  0  0  0  0  0  0  0
   50.2740   51.8815   26.1181 N   0  0  0  0  0  0  0  0  0  0  0  0
   50.2632   52.6201   29.1256 N   0  0  0  0  0  0  0  0  0  0  0  0
   49.7734   52.8737   30.3192 C   0  0  0  0  0  0  0  0  0  0  0  0
   48.4042   52.7689   30.3325 N   0  0  0  0  0  0  0  0  0  0  0  0
  2  1  1  1  0  0  0
  2  3  1  0  0  0  0
  2  5  1  0  0  0  0
  3  4  1  0  0  0  0
  3 17  1  0  0  0  0
  5  6  1  0  0  0  0
  7  6  1  6  0  0  0
  7  8  1  0  0  0  0
  7  9  1  0  0  0  0
 10  9  1  1  0  0  0
 10 11  1  0  0  0  0
 10 12  1  0  0  0  0
 11 16  1  0  0  0  0
 12 13  1  6  0  0  0
 12 14  1  0  0  0  0
 14 15  1  1  0  0  0
 14 16  1  0  0  0  0
 16 27  1  6  0  0  0
 18 19  2  0  0  0  0
 18 23  1  0  0  0  0
 19 20  1  0  0  0  0
 20 21  2  0  0  0  0
 21 22  1  0  0  0  0
 21 27  1  0  0  0  0
 22 23  2  0  0  0  0
 22 25  1  0  0  0  0
 23 24  1  0  0  0  0
 25 26  2  0  0  0  0
 26 27  1  0  0  0  0
M  END
>  <CHROM.1>
-11.64194627,-176.80873784,162.44288127,-73.04342525,19.76103304,75.20532166
-137.75545092,47.54898418,54.85452213,31.06846338,-2.16270499,-1.21764952
-3.05471260

>  <Name>
ligand

>  <RI>
0

>  <Rbt.Current_Directory>
/home/itssahil/PROJECTS/Mol_Feturizer/New_Systems/rnas/3IQN

>  <Rbt.Executable>
rbdock ($Id: //depot/dev/client3/rdock/2013.1/src/exe/rbdock.cxx#4 $)

>  <Rbt.Library>
libRbt.so (2013.1, Build901 2013/11/27)

>  <Rbt.Parameter_File>
/export/apps/rDock/src/rDock_2013.1_src/data/scripts/dock_solv.prm

>  <Rbt.Receptor>
prm/pocket_docking_6.prm

>  <SCORE>
-14.6604

>  <SCORE.INTER>
-13.888

>  <SCORE.INTER.CONST>
1

>  <SCORE.INTER.POLAR>
0

>  <SCORE.INTER.ROT>
7

>  <SCORE.INTER.SOLV>
13.2269

>  <SCORE.INTER.VDW>
-21.9343

>  <SCORE.INTER.norm>
-0.514369

>  <SCORE.INTRA>
-0.793909

>  <SCORE.INTRA.DIHEDRAL>
-2.15631

>  <SCORE.INTRA.DIHEDRAL.0>
10.0365

>  <SCORE.INTRA.POLAR>
0

>  <SCORE.INTRA.POLAR.0>
0

>  <SCORE.INTRA.REPUL>
0

>  <SCORE.INTRA.REPUL.0>
0

>  <SCORE.INTRA.SOLV>
-0.855812

>  <SCORE.INTRA.SOLV.lig_0>
-48.6728

>  <SCORE.INTRA.VDW>
0.71215

>  <SCORE.INTRA.VDW.0>
-1.10662

>  <SCORE.INTRA.norm>
-0.029404

>  <SCORE.RESTR>
0.0214616

>  <SCORE.RESTR.CAVITY>
0.0214616

>  <SCORE.RESTR.norm>
0.000794874

>  <SCORE.SYSTEM>
0

>  <SCORE.SYSTEM.CONST>
0

>  <SCORE.SYSTEM.DIHEDRAL>
0

>  <SCORE.SYSTEM.SOLV>
0

>  <SCORE.SYSTEM.norm>
0

>  <SCORE.heavy>
27

>  <SCORE.norm>
-0.542978

>  <RMSD>
6.156

$$$$
ligand
 OpenBabel11021811483D
libRbt.so/2013.1/901 2013/11/27
 27 29  0  0  0  0  0  0  0  0999 V2000
   47.9565   53.7854   31.1830 N   0  0  0  0  0  0  0  0  0  0  0  0
   49.0819   54.6982   30.9434 C   0  0  2  0  0  0  0  0  0  0  0  0
   50.2279   53.9047   30.3916 C   0  0  0  0  0  0  0  0  0  0  0  0
   50.4596   52.7872   30.8248 O   0  0  0  0  0  0  0  0  0  0  0  0
   49.5115   55.3713   32.2556 C   0  0  0  0  0  0  0  0  0  0  0  0
   48.4069   56.3216   32.7085 C   0  0  0  0  0  0  0  0  0  0  0  0
   48.2337   57.7913   31.6469 S   0  0  2  0  0  0  0  0  0  0  0  0
   49.4374   58.9814   32.3142 C   0  0  0  0  0  0  0  0  0  0  0  0
   46.7001   58.7051   32.0456 C   0  0  0  0  0  0  0  0  0  0  0  0
   45.6245   57.8679   31.3980 C   0  0  1  0  0  0  0  0  0  0  0  0
   45.9689   57.8666   30.0519 O   0  0  0  0  0  0  0  0  0  0  0  0
   45.4898   56.3697   31.6744 C   0  0  1  0  0  0  0  0  0  0  0  0
   44.6366   56.0963   32.7487 O   0  0  0  0  0  0  0  0  0  0  0  0
   44.9114   55.9160   30.2495 C   0  0  1  0  0  0  0  0  0  0  0  0
   43.7165   56.6008   29.8459 O   0  0  0  0  0  0  0  0  0  0  0  0
   46.1806   56.4603   29.6354 C   0  0  1  0  0  0  0  0  0  0  0  0
   50.9158   54.3747   29.4990 O   0  0  0  0  0  0  0  0  0  0  0  0
   48.1020   53.6411   25.9436 N   0  0  0  0  0  0  0  0  0  0  0  0
   47.6861   53.3191   27.1695 C   0  0  0  0  0  0  0  0  0  0  0  0
   47.1517   54.2222   27.9905 N   0  0  0  0  0  0  0  0  0  0  0  0
   47.1246   55.5214   27.6644 C   0  0  0  0  0  0  0  0  0  0  0  0
   47.6239   55.9176   26.3828 C   0  0  0  0  0  0  0  0  0  0  0  0
   48.1136   54.8986   25.5202 C   0  0  0  0  0  0  0  0  0  0  0  0
   48.5910   55.1907   24.2734 N   0  0  0  0  0  0  0  0  0  0  0  0
   47.4914   57.2559   26.3024 N   0  0  0  0  0  0  0  0  0  0  0  0
   46.9632   57.7108   27.4173 C   0  0  0  0  0  0  0  0  0  0  0  0
   46.6963   56.6920   28.2985 N   0  0  0  0  0  0  0  0  0  0  0  0
  2  1  1  1  0  0  0
  2  3  1  0  0  0  0
  2  5  1  0  0  0  0
  3  4  1  0  0  0  0
  3 17  1  0  0  0  0
  5  6  1  0  0  0  0
  7  6  1  1  0  0  0
  7  8  1  0  0  0  0
  7  9  1  0  0  0  0
 10  9  1  1  0  0  0
 10 11  1  0  0  0  0
 10 12  1  0  0  0  0
 11 16  1  0  0  0  0
 12 13  1  1  0  0  0
 12 14  1  0  0  0  0
 14 15  1  6  0  0  0
 14 16  1  0  0  0  0
 16 27  1  6  0  0  0
 18 19  2  0  0  0  0
 18 23  1  0  0  0  0
 19 20  1  0  0  0  0
 20 21  2  0  0  0  0
 21 22  1  0  0  0  0
 21 27  1  0  0  0  0
 22 23  2  0  0  0  0
 22 25  1  0  0  0  0
 23 24  1  0  0  0  0
 25 26  2  0  0  0  0
 26 27  1  0  0  0  0
M  END
>  <CHROM.1>
-38.91695055,-68.26218633,-69.77020860,-85.94758281,-76.63040863,-59.92386649
174.20452036,47.54970682,55.96614131,29.67819889,-1.82543290,0.60623546,-1.84687482

>  <Name>
ligand

>  <RI>
0

>  <Rbt.Current_Directory>
/home/itssahil/PROJECTS/Mol_Feturizer/New_Systems/rnas/3IQN

>  <Rbt.Executable>
rbdock ($Id: //depot/dev/client3/rdock/2013.1/src/exe/rbdock.cxx#4 $)

>  <Rbt.Library>
libRbt.so (2013.1, Build901 2013/11/27)

>  <Rbt.Parameter_File>
/export/apps/rDock/src/rDock_2013.1_src/data/scripts/dock_solv.prm

>  <Rbt.Receptor>
prm/pocket_docking_4.prm

>  <SCORE>
-12.7673

>  <SCORE.INTER>
-9.14702

>  <SCORE.INTER.CONST>
1

>  <SCORE.INTER.POLAR>
0

>  <SCORE.INTER.ROT>
7

>  <SCORE.INTER.SOLV>
10.2179

>  <SCORE.INTER.VDW>
-17.7706

>  <SCORE.INTER.norm>
-0.338779

>  <SCORE.INTRA>
-3.6203

>  <SCORE.INTRA.DIHEDRAL>
-4.97975

>  <SCORE.INTRA.DIHEDRAL.0>
10.0365

>  <SCORE.INTRA.POLAR>
0

>  <SCORE.INTRA.POLAR.0>
0

>  <SCORE.INTRA.REPUL>
0

>  <SCORE.INTRA.REPUL.0>
0

>  <SCORE.INTRA.SOLV>
2.69803

>  <SCORE.INTRA.SOLV.lig_0>
-48.6728

>  <SCORE.INTRA.VDW>
-2.47944

>  <SCORE.INTRA.VDW.0>
-1.10662

>  <SCORE.INTRA.norm>
-0.134085

>  <SCORE.RESTR>
0

>  <SCORE.RESTR.CAVITY>
0

>  <SCORE.RESTR.norm>
0

>  <SCORE.SYSTEM>
0

>  <SCORE.SYSTEM.CONST>
0

>  <SCORE.SYSTEM.DIHEDRAL>
0

>  <SCORE.SYSTEM.SOLV>
0

>  <SCORE.SYSTEM.norm>
0

>  <SCORE.heavy>
27

>  <SCORE.norm>
-0.472864

>  <RMSD>
6.159

$$$$
ligand
 OpenBabel11021811483D
libRbt.so/2013.1/901 2013/11/27
 27 29  0  0  0  0  0  0  0  0999 V2000
   49.7503   59.1534   33.5594 N   0  0  0  0  0  0  0  0  0  0  0  0
   49.1853   58.3365   32.4774 C   0  0  2  0  0  0  0  0  0  0  0  0
   48.3740   59.2265   31.5845 C   0  0  0  0  0  0  0  0  0  0  0  0
   47.8996   60.2617   32.0244 O   0  0  0  0  0  0  0  0  0  0  0  0
   48.2845   57.2348   33.0555 C   0  0  0  0  0  0  0  0  0  0  0  0
   49.1238   56.3304   33.9532 C   0  0  0  0  0  0  0  0  0  0  0  0
   48.1860   54.9388   34.6614 S   0  0  2  0  0  0  0  0  0  0  0  0
   49.4219   53.9818   35.5925 C   0  0  0  0  0  0  0  0  0  0  0  0
   47.7940   53.6973   33.3765 C   0  0  0  0  0  0  0  0  0  0  0  0
   46.4213   54.1123   32.9069 C   0  0  1  0  0  0  0  0  0  0  0  0
   46.5858   54.3244   31.5436 O   0  0  0  0  0  0  0  0  0  0  0  0
   45.2361   53.1458   32.9190 C   0  0  1  0  0  0  0  0  0  0  0  0
   44.5137   53.1967   34.1158 O   0  0  0  0  0  0  0  0  0  0  0  0
   44.4428   53.7263   31.6524 C   0  0  1  0  0  0  0  0  0  0  0  0
   44.1278   55.1239   31.7358 O   0  0  0  0  0  0  0  0  0  0  0  0
   45.6673   53.4106   30.8245 C   0  0  1  0  0  0  0  0  0  0  0  0
   48.2043   58.9188   30.4152 O   0  0  0  0  0  0  0  0  0  0  0  0
   49.1786   51.5079   27.7718 N   0  0  0  0  0  0  0  0  0  0  0  0
   48.8702   51.2272   29.0389 C   0  0  0  0  0  0  0  0  0  0  0  0
   47.8521   51.8189   29.6624 N   0  0  0  0  0  0  0  0  0  0  0  0
   47.1713   52.8153   29.0806 C   0  0  0  0  0  0  0  0  0  0  0  0
   47.5160   53.1927   27.7437 C   0  0  0  0  0  0  0  0  0  0  0  0
   48.5628   52.4744   27.1030 C   0  0  0  0  0  0  0  0  0  0  0  0
   48.9411   52.7604   25.8213 N   0  0  0  0  0  0  0  0  0  0  0  0
   46.6995   54.2060   27.3949 N   0  0  0  0  0  0  0  0  0  0  0  0
   45.8943   54.4834   28.3967 C   0  0  0  0  0  0  0  0  0  0  0  0
   46.1195   53.6523   29.4666 N   0  0  0  0  0  0  0  0  0  0  0  0
  2  1  1  1  0  0  0
  2  3  1  0  0  0  0
  2  5  1  0  0  0  0
  3  4  1  0  0  0  0
  3 17  1  0  0  0  0
  5  6  1  0  0  0  0
  7  6  1  6  0  0  0
  7  8  1  0  0  0  0
  7  9  1  0  0  0  0
 10  9  1  6  0  0  0
 10 11  1  0  0  0  0
 10 12  1  0  0  0  0
 11 16  1  0  0  0  0
 12 13  1  1  0  0  0
 12 14  1  0  0  0  0
 14 15  1  1  0  0  0
 14 16  1  0  0  0  0
 16 27  1  6  0  0  0
 18 19  2  0  0  0  0
 18 23  1  0  0  0  0
 19 20  1  0  0  0  0
 20 21  2  0  0  0  0
 21 22  1  0  0  0  0
 21 27  1  0  0  0  0
 22 23  2  0  0  0  0
 22 25  1  0  0  0  0
 23 24  1  0  0  0  0
 25 26  2  0  0  0  0
 26 27  1  0  0  0  0
M  END
>  <CHROM.1>
-24.86684271,-61.16530391,-177.96815372,176.81011028,-93.56398096,122.34269253
88.40389201,47.42606034,54.79106982,31.29009208,-1.30955970,-1.14718257,-2.05625673

>  <Name>
ligand

>  <RI>
0

>  <Rbt.Current_Directory>
/home/itssahil/PROJECTS/Mol_Feturizer/New_Systems/rnas/3IQN

>  <Rbt.Executable>
rbdock ($Id: //depot/dev/client3/rdock/2013.1/src/exe/rbdock.cxx#4 $)

>  <Rbt.Library>
libRbt.so (2013.1, Build901 2013/11/27)

>  <Rbt.Parameter_File>
/export/apps/rDock/src/rDock_2013.1_src/data/scripts/dock_solv.prm

>  <Rbt.Receptor>
prm/pocket_docking_7.prm

>  <SCORE>
-13.789

>  <SCORE.INTER>
-11.8466

>  <SCORE.INTER.CONST>
1

>  <SCORE.INTER.POLAR>
0

>  <SCORE.INTER.ROT>
7

>  <SCORE.INTER.SOLV>
12.7332

>  <SCORE.INTER.VDW>
-20.4088

>  <SCORE.INTER.norm>
-0.438764

>  <SCORE.INTRA>
-1.94236

>  <SCORE.INTRA.DIHEDRAL>
0.116065

>  <SCORE.INTRA.DIHEDRAL.0>
10.0365

>  <SCORE.INTRA.POLAR>
0

>  <SCORE.INTRA.POLAR.0>
0

>  <SCORE.INTRA.REPUL>
0

>  <SCORE.INTRA.REPUL.0>
0

>  <SCORE.INTRA.SOLV>
-0.403266

>  <SCORE.INTRA.SOLV.lig_0>
-48.6728

>  <SCORE.INTRA.VDW>
-1.79876

>  <SCORE.INTRA.VDW.0>
-1.10662

>  <SCORE.INTRA.norm>
-0.0719394

>  <SCORE.RESTR>
0

>  <SCORE.RESTR.CAVITY>
0

>  <SCORE.RESTR.norm>
0

>  <SCORE.SYSTEM>
0

>  <SCORE.SYSTEM.CONST>
0

>  <SCORE.SYSTEM.DIHEDRAL>
0

>  <SCORE.SYSTEM.SOLV>
0

>  <SCORE.SYSTEM.norm>
0

>  <SCORE.heavy>
27

>  <SCORE.norm>
-0.510704

>  <RMSD>
6.170

$$$$
ligand
 OpenBabel11021811483D
libRbt.so/2013.1/901 2013/11/27
 27 29  0  0  0  0  0  0  0  0999 V2000
   48.6890   57.3685   31.1690 N   0  0  0  0  0  0  0  0  0  0  0  0
   47.9108   57.6063   32.3919 C   0  0  2  0  0  0  0  0  0  0  0  0
   47.1938   58.9154   32.2515 C   0  0  0  0  0  0  0  0  0  0  0  0
   45.9761   58.9542   32.3277 O   0  0  0  0  0  0  0  0  0  0  0  0
   48.8405   57.6614   33.6134 C   0  0  0  0  0  0  0  0  0  0  0  0
   49.5246   56.3072   33.7755 C   0  0  0  0  0  0  0  0  0  0  0  0
   48.4033   54.9919   34.3501 S   0  0  2  0  0  0  0  0  0  0  0  0
   49.2382   54.2820   35.8024 C   0  0  0  0  0  0  0  0  0  0  0  0
   48.4911   53.5345   33.2481 C   0  0  0  0  0  0  0  0  0  0  0  0
   47.6473   53.9471   32.0671 C   0  0  1  0  0  0  0  0  0  0  0  0
   48.4066   53.5680   30.9668 O   0  0  0  0  0  0  0  0  0  0  0  0
   46.3099   53.2744   31.7544 C   0  0  1  0  0  0  0  0  0  0  0  0
   45.2293   53.9159   32.3688 O   0  0  0  0  0  0  0  0  0  0  0  0
   46.3360   53.4234   30.1582 C   0  0  1  0  0  0  0  0  0  0  0  0
   46.4989   54.7694   29.6879 O   0  0  0  0  0  0  0  0  0  0  0  0
   47.6082   52.6075   30.1693 C   0  0  1  0  0  0  0  0  0  0  0  0
   47.8335   59.9406   32.0770 O   0  0  0  0  0  0  0  0  0  0  0  0
   50.2890   54.8724   26.5704 N   0  0  0  0  0  0  0  0  0  0  0  0
   49.3406   55.3384   27.3845 C   0  0  0  0  0  0  0  0  0  0  0  0
   48.7806   54.5744   28.3215 N   0  0  0  0  0  0  0  0  0  0  0  0
   49.0584   53.2663   28.4028 C   0  0  0  0  0  0  0  0  0  0  0  0
   50.0226   52.7125   27.5016 C   0  0  0  0  0  0  0  0  0  0  0  0
   50.6415   53.5932   26.5724 C   0  0  0  0  0  0  0  0  0  0  0  0
   51.5851   53.1477   25.6899 N   0  0  0  0  0  0  0  0  0  0  0  0
   50.1167   51.3978   27.7810 N   0  0  0  0  0  0  0  0  0  0  0  0
   49.2960   51.0998   28.7640 C   0  0  0  0  0  0  0  0  0  0  0  0
   48.6206   52.2101   29.2080 N   0  0  0  0  0  0  0  0  0  0  0  0
  2  1  1  6  0  0  0
  2  3  1  0  0  0  0
  2  5  1  0  0  0  0
  3  4  1  0  0  0  0
  3 17  1  0  0  0  0
  5  6  1  0  0  0  0
  7  6  1  6  0  0  0
  7  8  1  0  0  0  0
  7  9  1  0  0  0  0
 10  9  1  1  0  0  0
 10 11  1  0  0  0  0
 10 12  1  0  0  0  0
 11 16  1  0  0  0  0
 12 13  1  1  0  0  0
 12 14  1  0  0  0  0
 14 15  1  1  0  0  0
 14 16  1  0  0  0  0
 16 27  1  6  0  0  0
 18 19  2  0  0  0  0
 18 23  1  0  0  0  0
 19 20  1  0  0  0  0
 20 21  2  0  0  0  0
 21 22  1  0  0  0  0
 21 27  1  0  0  0  0
 22 23  2  0  0  0  0
 22 25  1  0  0  0  0
 23 24  1  0  0  0  0
 25 26  2  0  0  0  0
 26 27  1  0  0  0  0
M  END
>  <CHROM.1>
121.33775161,-62.81782783,-71.40408073,-127.20239552,-78.54325959,134.79717234
-63.12681358,48.38968170,54.78869305,30.80079663,-2.69184689,-1.26640078
3.02358472

>  <Name>
ligand

>  <RI>
0

>  <Rbt.Current_Directory>
/home/itssahil/PROJECTS/Mol_Feturizer/New_Systems/rnas/3IQN

>  <Rbt.Executable>
rbdock ($Id: //depot/dev/client3/rdock/2013.1/src/exe/rbdock.cxx#4 $)

>  <Rbt.Library>
libRbt.so (2013.1, Build901 2013/11/27)

>  <Rbt.Parameter_File>
/export/apps/rDock/src/rDock_2013.1_src/data/scripts/dock_solv.prm

>  <Rbt.Receptor>
prm/pocket_docking_6.prm

>  <SCORE>
-13.7953

>  <SCORE.INTER>
-14.0825

>  <SCORE.INTER.CONST>
1

>  <SCORE.INTER.POLAR>
0

>  <SCORE.INTER.ROT>
7

>  <SCORE.INTER.SOLV>
4.88078

>  <SCORE.INTER.VDW>
-19.2819

>  <SCORE.INTER.norm>
-0.521573

>  <SCORE.INTRA>
0.28718

>  <SCORE.INTRA.DIHEDRAL>
2.77337

>  <SCORE.INTRA.DIHEDRAL.0>
10.0365

>  <SCORE.INTRA.POLAR>
0

>  <SCORE.INTRA.POLAR.0>
0

>  <SCORE.INTRA.REPUL>
0

>  <SCORE.INTRA.REPUL.0>
0

>  <SCORE.INTRA.SOLV>
2.03277

>  <SCORE.INTRA.SOLV.lig_0>
-48.6728

>  <SCORE.INTRA.VDW>
-2.11589

>  <SCORE.INTRA.VDW.0>
-1.10662

>  <SCORE.INTRA.norm>
0.0106363

>  <SCORE.RESTR>
0

>  <SCORE.RESTR.CAVITY>
0

>  <SCORE.RESTR.norm>
0

>  <SCORE.SYSTEM>
0

>  <SCORE.SYSTEM.CONST>
0

>  <SCORE.SYSTEM.DIHEDRAL>
0

>  <SCORE.SYSTEM.SOLV>
0

>  <SCORE.SYSTEM.norm>
0

>  <SCORE.heavy>
27

>  <SCORE.norm>
-0.510937

>  <RMSD>
6.179

$$$$
ligand
 OpenBabel11021811483D
libRbt.so/2013.1/901 2013/11/27
 27 29  0  0  0  0  0  0  0  0999 V2000
   47.5066   57.3698   26.9450 N   0  0  0  0  0  0  0  0  0  0  0  0
   48.5849   57.3895   27.9421 C   0  0  2  0  0  0  0  0  0  0  0  0
   49.4687   56.2011   27.7093 C   0  0  0  0  0  0  0  0  0  0  0  0
   48.9918   55.1614   27.2830 O   0  0  0  0  0  0  0  0  0  0  0  0
   48.0006   57.3215   29.3610 C   0  0  0  0  0  0  0  0  0  0  0  0
   49.0542   57.8047   30.3533 C   0  0  0  0  0  0  0  0  0  0  0  0
   48.6815   57.3623   32.0804 S   0  0  2  0  0  0  0  0  0  0  0  0
   49.9271   58.2561   33.0600 C   0  0  0  0  0  0  0  0  0  0  0  0
   49.2241   55.6542   32.4462 C   0  0  0  0  0  0  0  0  0  0  0  0
   48.4187   54.8241   31.4769 C   0  0  1  0  0  0  0  0  0  0  0  0
   49.2683   54.6649   30.3890 O   0  0  0  0  0  0  0  0  0  0  0  0
   48.0394   53.3730   31.7758 C   0  0  1  0  0  0  0  0  0  0  0  0
   46.8069   53.2635   32.4285 O   0  0  0  0  0  0  0  0  0  0  0  0
   48.0343   52.8140   30.2731 C   0  0  1  0  0  0  0  0  0  0  0  0
   47.1718   53.5273   29.3748 O   0  0  0  0  0  0  0  0  0  0  0  0
   49.4897   53.2132   30.1902 C   0  0  1  0  0  0  0  0  0  0  0  0
   50.6661   56.2839   27.9329 O   0  0  0  0  0  0  0  0  0  0  0  0
   50.1961   51.2104   25.6340 N   0  0  0  0  0  0  0  0  0  0  0  0
   49.2128   51.0507   26.5212 C   0  0  0  0  0  0  0  0  0  0  0  0
   49.1863   51.7247   27.6703 N   0  0  0  0  0  0  0  0  0  0  0  0
   50.2143   52.5003   28.0398 C   0  0  0  0  0  0  0  0  0  0  0  0
   51.3210   52.6452   27.1439 C   0  0  0  0  0  0  0  0  0  0  0  0
   51.2585   51.9597   25.8995 C   0  0  0  0  0  0  0  0  0  0  0  0
   52.2654   52.0596   24.9809 N   0  0  0  0  0  0  0  0  0  0  0  0
   52.2116   53.4599   27.7426 N   0  0  0  0  0  0  0  0  0  0  0  0
   51.7520   53.8194   28.9209 C   0  0  0  0  0  0  0  0  0  0  0  0
   50.5146   53.2756   29.1643 N   0  0  0  0  0  0  0  0  0  0  0  0
  2  1  1  6  0  0  0
  2  3  1  0  0  0  0
  2  5  1  0  0  0  0
  3  4  1  0  0  0  0
  3 17  1  0  0  0  0
  5  6  1  0  0  0  0
  7  6  1  6  0  0  0
  7  8  1  0  0  0  0
  7  9  1  0  0  0  0
 10  9  1  1  0  0  0
 10 11  1  0  0  0  0
 10 12  1  0  0  0  0
 11 16  1  0  0  0  0
 12 13  1  6  0  0  0
 12 14  1  0  0  0  0
 14 15  1  6  0  0  0
 14 16  1  0  0  0  0
 16 27  1  6  0  0  0
 18 19  2  0  0  0  0
 18 23  1  0  0  0  0
 19 20  1  0  0  0  0
 20 21  2  0  0  0  0
 21 22  1  0  0  0  0
 21 27  1  0  0  0  0
 22 23  2  0  0  0  0
 22 25  1  0  0  0  0
 23 24  1  0  0  0  0
 25 26  2  0  0  0  0
 26 27  1  0  0  0  0
M  END
>  <CHROM.1>
-32.47899712,-161.25243651,-164.31863989,-171.66539967,-60.59061271,94.69864132
-127.81665021,49.38328847,54.57326904,29.18940889,-2.40371593,-1.15614780
-3.08771740

>  <Name>
ligand

>  <RI>
0

>  <Rbt.Current_Directory>
/home/itssahil/PROJECTS/Mol_Feturizer/New_Systems/rnas/3IQN

>  <Rbt.Executable>
rbdock ($Id: //depot/dev/client3/rdock/2013.1/src/exe/rbdock.cxx#4 $)

>  <Rbt.Library>
libRbt.so (2013.1, Build901 2013/11/27)

>  <Rbt.Parameter_File>
/export/apps/rDock/src/rDock_2013.1_src/data/scripts/dock_solv.prm

>  <Rbt.Receptor>
prm/pocket_docking_7.prm

>  <SCORE>
-17.0503

>  <SCORE.INTER>
-11.4687

>  <SCORE.INTER.CONST>
1

>  <SCORE.INTER.POLAR>
0

>  <SCORE.INTER.ROT>
7

>  <SCORE.INTER.SOLV>
9.89784

>  <SCORE.INTER.VDW>
-19.2117

>  <SCORE.INTER.norm>
-0.424765

>  <SCORE.INTRA>
-5.58162

>  <SCORE.INTRA.DIHEDRAL>
-0.846825

>  <SCORE.INTRA.DIHEDRAL.0>
10.0365

>  <SCORE.INTRA.POLAR>
0

>  <SCORE.INTRA.POLAR.0>
0

>  <SCORE.INTRA.REPUL>
0

>  <SCORE.INTRA.REPUL.0>
0

>  <SCORE.INTRA.SOLV>
-0.524447

>  <SCORE.INTRA.SOLV.lig_0>
-48.6728

>  <SCORE.INTRA.VDW>
-4.89599

>  <SCORE.INTRA.VDW.0>
-1.10662

>  <SCORE.INTRA.norm>
-0.206727

>  <SCORE.RESTR>
0

>  <SCORE.RESTR.CAVITY>
0

>  <SCORE.RESTR.norm>
0

>  <SCORE.SYSTEM>
0

>  <SCORE.SYSTEM.CONST>
0

>  <SCORE.SYSTEM.DIHEDRAL>
0

>  <SCORE.SYSTEM.SOLV>
0

>  <SCORE.SYSTEM.norm>
0

>  <SCORE.heavy>
27

>  <SCORE.norm>
-0.631492

>  <RMSD>
6.182

$$$$
ligand
 OpenBabel11021811483D
libRbt.so/2013.1/901 2013/11/27
 27 29  0  0  0  0  0  0  0  0999 V2000
   47.0316   54.2244   35.4435 N   0  0  0  0  0  0  0  0  0  0  0  0
   47.3076   53.1568   34.4732 C   0  0  2  0  0  0  0  0  0  0  0  0
   48.7276   53.2902   34.0114 C   0  0  0  0  0  0  0  0  0  0  0  0
   49.2529   52.3824   33.3868 O   0  0  0  0  0  0  0  0  0  0  0  0
   46.3646   53.2759   33.2666 C   0  0  0  0  0  0  0  0  0  0  0  0
   46.5905   54.6268   32.5940 C   0  0  0  0  0  0  0  0  0  0  0  0
   45.7248   56.0013   33.4179 S   0  0  2  0  0  0  0  0  0  0  0  0
   44.0210   55.4019   33.6376 C   0  0  0  0  0  0  0  0  0  0  0  0
   45.3848   57.3568   32.2377 C   0  0  0  0  0  0  0  0  0  0  0  0
   46.5956   58.2461   32.3798 C   0  0  1  0  0  0  0  0  0  0  0  0
   47.6413   57.4631   31.9062 O   0  0  0  0  0  0  0  0  0  0  0  0
   46.7693   59.5152   31.5442 C   0  0  1  0  0  0  0  0  0  0  0  0
   46.2367   60.6474   32.1698 O   0  0  0  0  0  0  0  0  0  0  0  0
   48.3695   59.5168   31.4437 C   0  0  1  0  0  0  0  0  0  0  0  0
   49.0461   59.4879   32.7090 O   0  0  0  0  0  0  0  0  0  0  0  0
   48.2618   58.1720   30.7625 C   0  0  1  0  0  0  0  0  0  0  0  0
   49.3481   54.3145   34.2493 O   0  0  0  0  0  0  0  0  0  0  0  0
   49.3355   55.9070   26.4052 N   0  0  0  0  0  0  0  0  0  0  0  0
   48.4343   56.8418   26.7109 C   0  0  0  0  0  0  0  0  0  0  0  0
   48.3430   57.3563   27.9366 N   0  0  0  0  0  0  0  0  0  0  0  0
   49.0714   56.8647   28.9478 C   0  0  0  0  0  0  0  0  0  0  0  0
   50.0034   55.8134   28.6742 C   0  0  0  0  0  0  0  0  0  0  0  0
   50.1093   55.3564   27.3318 C   0  0  0  0  0  0  0  0  0  0  0  0
   50.9874   54.3688   26.9837 N   0  0  0  0  0  0  0  0  0  0  0  0
   50.5980   55.4974   29.8412 N   0  0  0  0  0  0  0  0  0  0  0  0
   50.1108   56.2545   30.7994 C   0  0  0  0  0  0  0  0  0  0  0  0
   49.1733   57.1341   30.3163 N   0  0  0  0  0  0  0  0  0  0  0  0
  2  1  1  1  0  0  0
  2  3  1  0  0  0  0
  2  5  1  0  0  0  0
  3  4  1  0  0  0  0
  3 17  1  0  0  0  0
  5  6  1  0  0  0  0
  7  6  1  6  0  0  0
  7  8  1  0  0  0  0
  7  9  1  0  0  0  0
 10  9  1  6  0  0  0
 10 11  1  0  0  0  0
 10 12  1  0  0  0  0
 11 16  1  0  0  0  0
 12 13  1  1  0  0  0
 12 14  1  0  0  0  0
 14 15  1  1  0  0  0
 14 16  1  0  0  0  0
 16 27  1  1  0  0  0
 18 19  2  0  0  0  0
 18 23  1  0  0  0  0
 19 20  1  0  0  0  0
 20 21  2  0  0  0  0
 21 22  1  0  0  0  0
 21 27  1  0  0  0  0
 22 23  2  0  0  0  0
 22 25  1  0  0  0  0
 23 24  1  0  0  0  0
 25 26  2  0  0  0  0
 26 27  1  0  0  0  0
M  END
>  <CHROM.1>
167.13124531,60.49024600,-81.10669057,-48.91216042,-91.58843562,65.50785824
128.92493627,47.95729395,56.23884609,31.43773990,-2.41711536,0.95148028,-0.57708695

>  <Name>
ligand

>  <RI>
0

>  <Rbt.Current_Directory>
/home/itssahil/PROJECTS/Mol_Feturizer/New_Systems/rnas/3IQN

>  <Rbt.Executable>
rbdock ($Id: //depot/dev/client3/rdock/2013.1/src/exe/rbdock.cxx#4 $)

>  <Rbt.Library>
libRbt.so (2013.1, Build901 2013/11/27)

>  <Rbt.Parameter_File>
/export/apps/rDock/src/rDock_2013.1_src/data/scripts/dock_solv.prm

>  <Rbt.Receptor>
prm/pocket_docking_4.prm

>  <SCORE>
-18.3028

>  <SCORE.INTER>
-17.4334

>  <SCORE.INTER.CONST>
1

>  <SCORE.INTER.POLAR>
0

>  <SCORE.INTER.ROT>
7

>  <SCORE.INTER.SOLV>
12.1311

>  <SCORE.INTER.VDW>
-23.9327

>  <SCORE.INTER.norm>
-0.645683

>  <SCORE.INTRA>
-0.869311

>  <SCORE.INTRA.DIHEDRAL>
-2.53173

>  <SCORE.INTRA.DIHEDRAL.0>
10.0365

>  <SCORE.INTRA.POLAR>
0

>  <SCORE.INTRA.POLAR.0>
0

>  <SCORE.INTRA.REPUL>
0

>  <SCORE.INTRA.REPUL.0>
0

>  <SCORE.INTRA.SOLV>
1.55305

>  <SCORE.INTRA.SOLV.lig_0>
-48.6728

>  <SCORE.INTRA.VDW>
-0.379972

>  <SCORE.INTRA.VDW.0>
-1.10662

>  <SCORE.INTRA.norm>
-0.0321967

>  <SCORE.RESTR>
0

>  <SCORE.RESTR.CAVITY>
0

>  <SCORE.RESTR.norm>
0

>  <SCORE.SYSTEM>
0

>  <SCORE.SYSTEM.CONST>
0

>  <SCORE.SYSTEM.DIHEDRAL>
0

>  <SCORE.SYSTEM.SOLV>
0

>  <SCORE.SYSTEM.norm>
0

>  <SCORE.heavy>
27

>  <SCORE.norm>
-0.67788

>  <RMSD>
6.189

$$$$
ligand
 OpenBabel11021811483D
libRbt.so/2013.1/901 2013/11/27
 27 29  0  0  0  0  0  0  0  0999 V2000
   49.4607   58.6081   33.9037 N   0  0  0  0  0  0  0  0  0  0  0  0
   49.0667   59.1541   32.5983 C   0  0  2  0  0  0  0  0  0  0  0  0
   47.5777   59.0416   32.4663 C   0  0  0  0  0  0  0  0  0  0  0  0
   47.0071   58.0310   32.8449 O   0  0  0  0  0  0  0  0  0  0  0  0
   49.7411   58.3663   31.4651 C   0  0  0  0  0  0  0  0  0  0  0  0
   49.4916   56.8767   31.6821 C   0  0  0  0  0  0  0  0  0  0  0  0
   50.2041   55.8242   30.3775 S   0  0  2  0  0  0  0  0  0  0  0  0
   49.0734   56.0186   28.9653 C   0  0  0  0  0  0  0  0  0  0  0  0
   49.8973   54.0554   30.7284 C   0  0  0  0  0  0  0  0  0  0  0  0
   48.6038   54.0799   31.5053 C   0  0  1  0  0  0  0  0  0  0  0  0
   47.6275   53.9055   30.5320 O   0  0  0  0  0  0  0  0  0  0  0  0
   48.2366   52.9770   32.4992 C   0  0  1  0  0  0  0  0  0  0  0  0
   48.6735   53.2573   33.7982 O   0  0  0  0  0  0  0  0  0  0  0  0
   46.6435   53.0189   32.3230 C   0  0  1  0  0  0  0  0  0  0  0  0
   46.0523   54.3065   32.5509 O   0  0  0  0  0  0  0  0  0  0  0  0
   46.8623   52.6813   30.8661 C   0  0  1  0  0  0  0  0  0  0  0  0
   46.9397   59.9695   31.9941 O   0  0  0  0  0  0  0  0  0  0  0  0
   47.6812   51.8159   25.9826 N   0  0  0  0  0  0  0  0  0  0  0  0
   48.5255   51.9208   27.0100 C   0  0  0  0  0  0  0  0  0  0  0  0
   48.0953   52.1041   28.2577 N   0  0  0  0  0  0  0  0  0  0  0  0
   46.7981   52.3168   28.5165 C   0  0  0  0  0  0  0  0  0  0  0  0
   45.8667   52.2790   27.4305 C   0  0  0  0  0  0  0  0  0  0  0  0
   46.3764   52.0053   26.1314 C   0  0  0  0  0  0  0  0  0  0  0  0
   45.5517   51.9342   25.0441 N   0  0  0  0  0  0  0  0  0  0  0  0
   44.6464   52.5246   27.9463 N   0  0  0  0  0  0  0  0  0  0  0  0
   44.7499   52.7133   29.2434 C   0  0  0  0  0  0  0  0  0  0  0  0
   46.0497   52.5842   29.6672 N   0  0  0  0  0  0  0  0  0  0  0  0
  2  1  1  1  0  0  0
  2  3  1  0  0  0  0
  2  5  1  0  0  0  0
  3  4  1  0  0  0  0
  3 17  1  0  0  0  0
  5  6  1  0  0  0  0
  7  6  1  1  0  0  0
  7  8  1  0  0  0  0
  7  9  1  0  0  0  0
 10  9  1  6  0  0  0
 10 11  1  0  0  0  0
 10 12  1  0  0  0  0
 11 16  1  0  0  0  0
 12 13  1  1  0  0  0
 12 14  1  0  0  0  0
 14 15  1  6  0  0  0
 14 16  1  0  0  0  0
 16 27  1  6  0  0  0
 18 19  2  0  0  0  0
 18 23  1  0  0  0  0
 19 20  1  0  0  0  0
 20 21  2  0  0  0  0
 21 22  1  0  0  0  0
 21 27  1  0  0  0  0
 22 23  2  0  0  0  0
 22 25  1  0  0  0  0
 23 24  1  0  0  0  0
 25 26  2  0  0  0  0
 26 27  1  0  0  0  0
M  END
>  <CHROM.1>
-41.44133182,51.03022110,178.47020268,-76.11091440,29.25371645,93.05818862
66.23053915,47.75231195,54.66819765,30.32415291,0.88735586,1.13179766,1.34839104

>  <Name>
ligand

>  <RI>
0

>  <Rbt.Current_Directory>
/home/itssahil/PROJECTS/Mol_Feturizer/New_Systems/rnas/3IQN

>  <Rbt.Executable>
rbdock ($Id: //depot/dev/client3/rdock/2013.1/src/exe/rbdock.cxx#4 $)

>  <Rbt.Library>
libRbt.so (2013.1, Build901 2013/11/27)

>  <Rbt.Parameter_File>
/export/apps/rDock/src/rDock_2013.1_src/data/scripts/dock_solv.prm

>  <Rbt.Receptor>
prm/pocket_docking_5.prm

>  <SCORE>
-12.5464

>  <SCORE.INTER>
-11.456

>  <SCORE.INTER.CONST>
1

>  <SCORE.INTER.POLAR>
0

>  <SCORE.INTER.ROT>
7

>  <SCORE.INTER.SOLV>
20.1018

>  <SCORE.INTER.VDW>
-22.6046

>  <SCORE.INTER.norm>
-0.424295

>  <SCORE.INTRA>
-1.0904

>  <SCORE.INTRA.DIHEDRAL>
-1.74747

>  <SCORE.INTRA.DIHEDRAL.0>
10.0365

>  <SCORE.INTRA.POLAR>
0

>  <SCORE.INTRA.POLAR.0>
0

>  <SCORE.INTRA.REPUL>
0

>  <SCORE.INTRA.REPUL.0>
0

>  <SCORE.INTRA.SOLV>
-0.14729

>  <SCORE.INTRA.SOLV.lig_0>
-48.6728

>  <SCORE.INTRA.VDW>
-0.14302

>  <SCORE.INTRA.VDW.0>
-1.10662

>  <SCORE.INTRA.norm>
-0.0403851

>  <SCORE.RESTR>
0

>  <SCORE.RESTR.CAVITY>
0

>  <SCORE.RESTR.norm>
0

>  <SCORE.SYSTEM>
0

>  <SCORE.SYSTEM.CONST>
0

>  <SCORE.SYSTEM.DIHEDRAL>
0

>  <SCORE.SYSTEM.SOLV>
0

>  <SCORE.SYSTEM.norm>
0

>  <SCORE.heavy>
27

>  <SCORE.norm>
-0.46468

>  <RMSD>
6.208

$$$$
ligand
 OpenBabel11021811483D
libRbt.so/2013.1/901 2013/11/27
 27 29  0  0  0  0  0  0  0  0999 V2000
   49.5595   59.1433   33.7169 N   0  0  0  0  0  0  0  0  0  0  0  0
   49.7507   58.2144   32.5954 C   0  0  2  0  0  0  0  0  0  0  0  0
   48.7252   58.5200   31.5454 C   0  0  0  0  0  0  0  0  0  0  0  0
   47.6647   59.0354   31.8615 O   0  0  0  0  0  0  0  0  0  0  0  0
   49.5798   56.7634   33.0694 C   0  0  0  0  0  0  0  0  0  0  0  0
   48.2203   56.6217   33.7477 C   0  0  0  0  0  0  0  0  0  0  0  0
   47.8690   54.9294   34.3223 S   0  0  2  0  0  0  0  0  0  0  0  0
   49.1327   54.6061   35.5908 C   0  0  0  0  0  0  0  0  0  0  0  0
   48.4076   53.6964   33.0832 C   0  0  0  0  0  0  0  0  0  0  0  0
   47.6009   54.0635   31.8619 C   0  0  1  0  0  0  0  0  0  0  0  0
   48.3999   53.6567   30.8004 O   0  0  0  0  0  0  0  0  0  0  0  0
   46.2803   53.3688   31.5264 C   0  0  1  0  0  0  0  0  0  0  0  0
   45.1744   54.0196   32.0834 O   0  0  0  0  0  0  0  0  0  0  0  0
   46.3591   53.4674   29.9280 C   0  0  1  0  0  0  0  0  0  0  0  0
   46.5268   54.7993   29.4206 O   0  0  0  0  0  0  0  0  0  0  0  0
   47.6368   52.6641   30.0077 C   0  0  1  0  0  0  0  0  0  0  0  0
   48.9623   58.2657   30.3750 O   0  0  0  0  0  0  0  0  0  0  0  0
   50.3666   54.8197   26.3786 N   0  0  0  0  0  0  0  0  0  0  0  0
   49.3857   55.3011   27.1437 C   0  0  0  0  0  0  0  0  0  0  0  0
   48.8167   54.5690   28.1006 N   0  0  0  0  0  0  0  0  0  0  0  0
   49.1210   53.2730   28.2516 C   0  0  0  0  0  0  0  0  0  0  0  0
   50.1221   52.7002   27.4041 C   0  0  0  0  0  0  0  0  0  0  0  0
   50.7472   53.5505   26.4510 C   0  0  0  0  0  0  0  0  0  0  0  0
   51.7247   53.0863   25.6165 N   0  0  0  0  0  0  0  0  0  0  0  0
   50.2374   51.4027   27.7482 N   0  0  0  0  0  0  0  0  0  0  0  0
   49.3962   51.1320   28.7218 C   0  0  0  0  0  0  0  0  0  0  0  0
   48.6843   52.2458   29.0941 N   0  0  0  0  0  0  0  0  0  0  0  0
  2  1  1  1  0  0  0
  2  3  1  0  0  0  0
  2  5  1  0  0  0  0
  3  4  1  0  0  0  0
  3 17  1  0  0  0  0
  5  6  1  0  0  0  0
  7  6  1  6  0  0  0
  7  8  1  0  0  0  0
  7  9  1  0  0  0  0
 10  9  1  1  0  0  0
 10 11  1  0  0  0  0
 10 12  1  0  0  0  0
 11 16  1  0  0  0  0
 12 13  1  1  0  0  0
 12 14  1  0  0  0  0
 14 15  1  1  0  0  0
 14 16  1  0  0  0  0
 16 27  1  6  0  0  0
 18 19  2  0  0  0  0
 18 23  1  0  0  0  0
 19 20  1  0  0  0  0
 20 21  2  0  0  0  0
 21 22  1  0  0  0  0
 21 27  1  0  0  0  0
 22 23  2  0  0  0  0
 22 25  1  0  0  0  0
 23 24  1  0  0  0  0
 25 26  2  0  0  0  0
 26 27  1  0  0  0  0
M  END
>  <CHROM.1>
-26.44716999,54.97190105,178.49738611,63.76864136,-59.72327766,151.35450975
-64.37473730,48.59984015,54.80238318,30.65172497,-2.00978101,-1.07404676
-2.49878309

>  <Name>
ligand

>  <RI>
0

>  <Rbt.Current_Directory>
/home/itssahil/PROJECTS/Mol_Feturizer/New_Systems/rnas/3IQN

>  <Rbt.Executable>
rbdock ($Id: //depot/dev/client3/rdock/2013.1/src/exe/rbdock.cxx#4 $)

>  <Rbt.Library>
libRbt.so (2013.1, Build901 2013/11/27)

>  <Rbt.Parameter_File>
/export/apps/rDock/src/rDock_2013.1_src/data/scripts/dock_solv.prm

>  <Rbt.Receptor>
prm/pocket_docking_6.prm

>  <SCORE>
-12.6928

>  <SCORE.INTER>
-9.96062

>  <SCORE.INTER.CONST>
1

>  <SCORE.INTER.POLAR>
0

>  <SCORE.INTER.ROT>
7

>  <SCORE.INTER.SOLV>
12.3981

>  <SCORE.INTER.VDW>
-19.0398

>  <SCORE.INTER.norm>
-0.368912

>  <SCORE.INTRA>
-2.73218

>  <SCORE.INTRA.DIHEDRAL>
-4.07992

>  <SCORE.INTRA.DIHEDRAL.0>
10.0365

>  <SCORE.INTRA.POLAR>
0

>  <SCORE.INTRA.POLAR.0>
0

>  <SCORE.INTRA.REPUL>
0

>  <SCORE.INTRA.REPUL.0>
0

>  <SCORE.INTRA.SOLV>
0.0168254

>  <SCORE.INTRA.SOLV.lig_0>
-48.6728

>  <SCORE.INTRA.VDW>
-0.700631

>  <SCORE.INTRA.VDW.0>
-1.10662

>  <SCORE.INTRA.norm>
-0.101192

>  <SCORE.RESTR>
0

>  <SCORE.RESTR.CAVITY>
0

>  <SCORE.RESTR.norm>
0

>  <SCORE.SYSTEM>
0

>  <SCORE.SYSTEM.CONST>
0

>  <SCORE.SYSTEM.DIHEDRAL>
0

>  <SCORE.SYSTEM.SOLV>
0

>  <SCORE.SYSTEM.norm>
0

>  <SCORE.heavy>
27

>  <SCORE.norm>
-0.470104

>  <RMSD>
6.213

$$$$
ligand
 OpenBabel11021811483D
libRbt.so/2013.1/901 2013/11/27
 27 29  0  0  0  0  0  0  0  0999 V2000
   46.8855   52.1618   35.3138 N   0  0  0  0  0  0  0  0  0  0  0  0
   46.8750   53.1834   34.2586 C   0  0  2  0  0  0  0  0  0  0  0  0
   47.7986   52.7437   33.1626 C   0  0  0  0  0  0  0  0  0  0  0  0
   48.9115   52.3229   33.4360 O   0  0  0  0  0  0  0  0  0  0  0  0
   47.3513   54.5325   34.8175 C   0  0  0  0  0  0  0  0  0  0  0  0
   47.2279   55.5913   33.7258 C   0  0  0  0  0  0  0  0  0  0  0  0
   45.6100   56.4277   33.7059 S   0  0  2  0  0  0  0  0  0  0  0  0
   44.4342   55.1360   33.1968 C   0  0  0  0  0  0  0  0  0  0  0  0
   45.4603   57.5204   32.2466 C   0  0  0  0  0  0  0  0  0  0  0  0
   46.6801   58.4024   32.3527 C   0  0  1  0  0  0  0  0  0  0  0  0
   47.7077   57.6107   31.8550 O   0  0  0  0  0  0  0  0  0  0  0  0
   46.8396   59.6670   31.5075 C   0  0  1  0  0  0  0  0  0  0  0  0
   46.3310   60.8051   32.1422 O   0  0  0  0  0  0  0  0  0  0  0  0
   48.4365   59.6577   31.3647 C   0  0  1  0  0  0  0  0  0  0  0  0
   49.1463   59.6296   32.6117 O   0  0  0  0  0  0  0  0  0  0  0  0
   48.3022   58.3109   30.6922 C   0  0  1  0  0  0  0  0  0  0  0  0
   47.4268   52.7939   32.0007 O   0  0  0  0  0  0  0  0  0  0  0  0
   49.2161   55.9924   26.3266 N   0  0  0  0  0  0  0  0  0  0  0  0
   48.3286   56.9333   26.6529 C   0  0  0  0  0  0  0  0  0  0  0  0
   48.2818   57.4622   27.8749 N   0  0  0  0  0  0  0  0  0  0  0  0
   49.0442   56.9803   28.8656 C   0  0  0  0  0  0  0  0  0  0  0  0
   49.9634   55.9233   28.5717 C   0  0  0  0  0  0  0  0  0  0  0  0
   50.0208   55.4504   27.2318 C   0  0  0  0  0  0  0  0  0  0  0  0
   50.8837   54.4563   26.8646 N   0  0  0  0  0  0  0  0  0  0  0  0
   50.5980   55.6191   29.7206 N   0  0  0  0  0  0  0  0  0  0  0  0
   50.1467   56.3888   30.6864 C   0  0  0  0  0  0  0  0  0  0  0  0
   49.1949   57.2653   30.2264 N   0  0  0  0  0  0  0  0  0  0  0  0
  2  1  1  1  0  0  0
  2  3  1  0  0  0  0
  2  5  1  0  0  0  0
  3  4  1  0  0  0  0
  3 17  1  0  0  0  0
  5  6  1  0  0  0  0
  7  6  1  6  0  0  0
  7  8  1  0  0  0  0
  7  9  1  0  0  0  0
 10  9  1  6  0  0  0
 10 11  1  0  0  0  0
 10 12  1  0  0  0  0
 11 16  1  0  0  0  0
 12 13  1  1  0  0  0
 12 14  1  0  0  0  0
 14 15  1  1  0  0  0
 14 16  1  0  0  0  0
 16 27  1  1  0  0  0
 18 19  2  0  0  0  0
 18 23  1  0  0  0  0
 19 20  1  0  0  0  0
 20 21  2  0  0  0  0
 21 22  1  0  0  0  0
 21 27  1  0  0  0  0
 22 23  2  0  0  0  0
 22 25  1  0  0  0  0
 23 24  1  0  0  0  0
 25 26  2  0  0  0  0
 26 27  1  0  0  0  0
M  END
>  <CHROM.1>
-46.55822426,-175.76370220,89.65865635,-67.46985944,-54.30244478,79.67415365
128.22988259,47.88693958,56.26839225,31.36784973,-2.46969749,1.02309789,-0.37382124

>  <Name>
ligand

>  <RI>
0

>  <Rbt.Current_Directory>
/home/itssahil/PROJECTS/Mol_Feturizer/New_Systems/rnas/3IQN

>  <Rbt.Executable>
rbdock ($Id: //depot/dev/client3/rdock/2013.1/src/exe/rbdock.cxx#4 $)

>  <Rbt.Library>
libRbt.so (2013.1, Build901 2013/11/27)

>  <Rbt.Parameter_File>
/export/apps/rDock/src/rDock_2013.1_src/data/scripts/dock_solv.prm

>  <Rbt.Receptor>
prm/pocket_docking_4.prm

>  <SCORE>
-20.9884

>  <SCORE.INTER>
-18.4313

>  <SCORE.INTER.CONST>
1

>  <SCORE.INTER.POLAR>
0

>  <SCORE.INTER.ROT>
7

>  <SCORE.INTER.SOLV>
14.6557

>  <SCORE.INTER.VDW>
-25.4394

>  <SCORE.INTER.norm>
-0.68264

>  <SCORE.INTRA>
-2.55713

>  <SCORE.INTRA.DIHEDRAL>
-2.51682

>  <SCORE.INTRA.DIHEDRAL.0>
10.0365

>  <SCORE.INTRA.POLAR>
0

>  <SCORE.INTRA.POLAR.0>
0

>  <SCORE.INTRA.REPUL>
0

>  <SCORE.INTRA.REPUL.0>
0

>  <SCORE.INTRA.SOLV>
-0.73711

>  <SCORE.INTRA.SOLV.lig_0>
-48.6728

>  <SCORE.INTRA.VDW>
-0.930163

>  <SCORE.INTRA.VDW.0>
-1.10662

>  <SCORE.INTRA.norm>
-0.0947085

>  <SCORE.RESTR>
0

>  <SCORE.RESTR.CAVITY>
0

>  <SCORE.RESTR.norm>
0

>  <SCORE.SYSTEM>
0

>  <SCORE.SYSTEM.CONST>
0

>  <SCORE.SYSTEM.DIHEDRAL>
0

>  <SCORE.SYSTEM.SOLV>
0

>  <SCORE.SYSTEM.norm>
0

>  <SCORE.heavy>
27

>  <SCORE.norm>
-0.777349

>  <RMSD>
6.215

$$$$
ligand
 OpenBabel11021811483D
libRbt.so/2013.1/901 2013/11/27
 27 29  0  0  0  0  0  0  0  0999 V2000
   48.7271   53.1361   34.1903 N   0  0  0  0  0  0  0  0  0  0  0  0
   49.2254   54.4018   33.6360 C   0  0  2  0  0  0  0  0  0  0  0  0
   49.1261   55.4565   34.6968 C   0  0  0  0  0  0  0  0  0  0  0  0
   49.3062   56.6290   34.4087 O   0  0  0  0  0  0  0  0  0  0  0  0
   48.3846   54.8193   32.4202 C   0  0  0  0  0  0  0  0  0  0  0  0
   46.9060   54.6763   32.7689 C   0  0  0  0  0  0  0  0  0  0  0  0
   46.2474   56.0788   33.7263 S   0  0  2  0  0  0  0  0  0  0  0  0
   44.4810   55.6976   33.9387 C   0  0  0  0  0  0  0  0  0  0  0  0
   46.0789   57.5642   32.6723 C   0  0  0  0  0  0  0  0  0  0  0  0
   47.4929   57.8190   32.2112 C   0  0  1  0  0  0  0  0  0  0  0  0
   47.4866   57.4182   30.8807 O   0  0  0  0  0  0  0  0  0  0  0  0
   48.0633   59.2333   32.0954 C   0  0  1  0  0  0  0  0  0  0  0  0
   48.6894   59.6580   33.2720 O   0  0  0  0  0  0  0  0  0  0  0  0
   49.0707   58.9842   30.8731 C   0  0  1  0  0  0  0  0  0  0  0  0
   50.0192   57.9289   31.0881 O   0  0  0  0  0  0  0  0  0  0  0  0
   47.8679   58.5845   30.0499 C   0  0  1  0  0  0  0  0  0  0  0  0
   48.8498   55.1387   35.8428 O   0  0  0  0  0  0  0  0  0  0  0  0
   50.1305   55.2403   27.0556 N   0  0  0  0  0  0  0  0  0  0  0  0
   50.4714   55.7198   28.2529 C   0  0  0  0  0  0  0  0  0  0  0  0
   49.6945   56.5766   28.9143 N   0  0  0  0  0  0  0  0  0  0  0  0
   48.5949   57.0910   28.3475 C   0  0  0  0  0  0  0  0  0  0  0  0
   48.2306   56.6522   27.0347 C   0  0  0  0  0  0  0  0  0  0  0  0
   49.0587   55.6802   26.4089 C   0  0  0  0  0  0  0  0  0  0  0  0
   48.7708   55.1959   25.1638 N   0  0  0  0  0  0  0  0  0  0  0  0
   47.1071   57.3130   26.6936 N   0  0  0  0  0  0  0  0  0  0  0  0
   46.7575   58.1163   27.6741 C   0  0  0  0  0  0  0  0  0  0  0  0
   47.6238   58.0195   28.7353 N   0  0  0  0  0  0  0  0  0  0  0  0
  2  1  1  1  0  0  0
  2  3  1  0  0  0  0
  2  5  1  0  0  0  0
  3  4  1  0  0  0  0
  3 17  1  0  0  0  0
  5  6  1  0  0  0  0
  7  6  1  6  0  0  0
  7  8  1  0  0  0  0
  7  9  1  0  0  0  0
 10  9  1  6  0  0  0
 10 11  1  0  0  0  0
 10 12  1  0  0  0  0
 11 16  1  0  0  0  0
 12 13  1  1  0  0  0
 12 14  1  0  0  0  0
 14 15  1  1  0  0  0
 14 16  1  0  0  0  0
 16 27  1  6  0  0  0
 18 19  2  0  0  0  0
 18 23  1  0  0  0  0
 19 20  1  0  0  0  0
 20 21  2  0  0  0  0
 21 22  1  0  0  0  0
 21 27  1  0  0  0  0
 22 23  2  0  0  0  0
 22 25  1  0  0  0  0
 23 24  1  0  0  0  0
 25 26  2  0  0  0  0
 26 27  1  0  0  0  0
M  END
>  <CHROM.1>
-169.68013051,46.72173882,80.85520186,177.53348967,-60.35368720,106.18237716
-73.98391425,48.13760718,56.60448412,31.10566969,-1.91260126,1.15805665,-1.14245133

>  <Name>
ligand

>  <RI>
0

>  <Rbt.Current_Directory>
/home/itssahil/PROJECTS/Mol_Feturizer/New_Systems/rnas/3IQN

>  <Rbt.Executable>
rbdock ($Id: //depot/dev/client3/rdock/2013.1/src/exe/rbdock.cxx#4 $)

>  <Rbt.Library>
libRbt.so (2013.1, Build901 2013/11/27)

>  <Rbt.Parameter_File>
/export/apps/rDock/src/rDock_2013.1_src/data/scripts/dock_solv.prm

>  <Rbt.Receptor>
prm/pocket_docking_5.prm

>  <SCORE>
-17.7316

>  <SCORE.INTER>
-16.1226

>  <SCORE.INTER.CONST>
1

>  <SCORE.INTER.POLAR>
0

>  <SCORE.INTER.ROT>
7

>  <SCORE.INTER.SOLV>
14.8775

>  <SCORE.INTER.VDW>
-23.9743

>  <SCORE.INTER.norm>
-0.597135

>  <SCORE.INTRA>
-1.60894

>  <SCORE.INTRA.DIHEDRAL>
-0.173951

>  <SCORE.INTRA.DIHEDRAL.0>
10.0365

>  <SCORE.INTRA.POLAR>
0

>  <SCORE.INTRA.POLAR.0>
0

>  <SCORE.INTRA.REPUL>
0

>  <SCORE.INTRA.REPUL.0>
0

>  <SCORE.INTRA.SOLV>
0.986317

>  <SCORE.INTRA.SOLV.lig_0>
-48.6728

>  <SCORE.INTRA.VDW>
-2.01512

>  <SCORE.INTRA.VDW.0>
-1.10662

>  <SCORE.INTRA.norm>
-0.0595904

>  <SCORE.RESTR>
0

>  <SCORE.RESTR.CAVITY>
0

>  <SCORE.RESTR.norm>
0

>  <SCORE.SYSTEM>
0

>  <SCORE.SYSTEM.CONST>
0

>  <SCORE.SYSTEM.DIHEDRAL>
0

>  <SCORE.SYSTEM.SOLV>
0

>  <SCORE.SYSTEM.norm>
0

>  <SCORE.heavy>
27

>  <SCORE.norm>
-0.656725

>  <RMSD>
6.229

$$$$
ligand
 OpenBabel11021811483D
libRbt.so/2013.1/901 2013/11/27
 27 29  0  0  0  0  0  0  0  0999 V2000
   49.2813   53.8389   35.9418 N   0  0  0  0  0  0  0  0  0  0  0  0
   48.7794   54.2650   34.6288 C   0  0  2  0  0  0  0  0  0  0  0  0
   49.4990   55.5179   34.2291 C   0  0  0  0  0  0  0  0  0  0  0  0
   49.4760   56.4939   34.9620 O   0  0  0  0  0  0  0  0  0  0  0  0
   47.2704   54.5429   34.6992 C   0  0  0  0  0  0  0  0  0  0  0  0
   46.8286   55.2063   33.3980 C   0  0  0  0  0  0  0  0  0  0  0  0
   45.4139   56.3351   33.6029 S   0  0  2  0  0  0  0  0  0  0  0  0
   43.9499   55.2769   33.3855 C   0  0  0  0  0  0  0  0  0  0  0  0
   45.2056   57.3924   32.1249 C   0  0  0  0  0  0  0  0  0  0  0  0
   46.3563   58.3626   32.2331 C   0  0  1  0  0  0  0  0  0  0  0  0
   47.4427   57.6464   31.7460 O   0  0  0  0  0  0  0  0  0  0  0  0
   46.4273   59.6310   31.3815 C   0  0  1  0  0  0  0  0  0  0  0  0
   45.8321   60.7318   32.0066 O   0  0  0  0  0  0  0  0  0  0  0  0
   48.0215   59.7390   31.2482 C   0  0  1  0  0  0  0  0  0  0  0  0
   48.7234   59.7701   32.4995 O   0  0  0  0  0  0  0  0  0  0  0  0
   47.9913   58.3824   30.5827 C   0  0  1  0  0  0  0  0  0  0  0  0
   50.1189   55.5511   33.1777 O   0  0  0  0  0  0  0  0  0  0  0  0
   49.0772   56.0864   26.2447 N   0  0  0  0  0  0  0  0  0  0  0  0
   48.1198   56.9599   26.5610 C   0  0  0  0  0  0  0  0  0  0  0  0
   48.0335   57.4990   27.7764 N   0  0  0  0  0  0  0  0  0  0  0  0
   48.8320   57.0901   28.7714 C   0  0  0  0  0  0  0  0  0  0  0  0
   49.8299   56.1037   28.4890 C   0  0  0  0  0  0  0  0  0  0  0  0
   49.9223   55.6197   27.1550 C   0  0  0  0  0  0  0  0  0  0  0  0
   50.8591   54.6908   26.7986 N   0  0  0  0  0  0  0  0  0  0  0  0
   50.4873   55.8641   29.6404 N   0  0  0  0  0  0  0  0  0  0  0  0
   49.9788   56.6087   30.5973 C   0  0  0  0  0  0  0  0  0  0  0  0
   48.9616   57.4031   30.1283 N   0  0  0  0  0  0  0  0  0  0  0  0
  2  1  1  1  0  0  0
  2  3  1  0  0  0  0
  2  5  1  0  0  0  0
  3  4  1  0  0  0  0
  3 17  1  0  0  0  0
  5  6  1  0  0  0  0
  7  6  1  6  0  0  0
  7  8  1  0  0  0  0
  7  9  1  0  0  0  0
 10  9  1  6  0  0  0
 10 11  1  0  0  0  0
 10 12  1  0  0  0  0
 11 16  1  0  0  0  0
 12 13  1  1  0  0  0
 12 14  1  0  0  0  0
 14 15  1  1  0  0  0
 14 16  1  0  0  0  0
 16 27  1  1  0  0  0
 18 19  2  0  0  0  0
 18 23  1  0  0  0  0
 19 20  1  0  0  0  0
 20 21  2  0  0  0  0
 21 22  1  0  0  0  0
 21 27  1  0  0  0  0
 22 23  2  0  0  0  0
 22 25  1  0  0  0  0
 23 24  1  0  0  0  0
 25 26  2  0  0  0  0
 26 27  1  0  0  0  0
M  END
>  <CHROM.1>
-56.27182136,170.41944771,-149.96771084,-88.83566343,-72.97980796,80.37384730
127.60156400,48.01126934,56.76907914,31.46577466,-2.05580852,0.78308928,-1.12866561

>  <Name>
ligand

>  <RI>
0

>  <Rbt.Current_Directory>
/home/itssahil/PROJECTS/Mol_Feturizer/New_Systems/rnas/3IQN

>  <Rbt.Executable>
rbdock ($Id: //depot/dev/client3/rdock/2013.1/src/exe/rbdock.cxx#4 $)

>  <Rbt.Library>
libRbt.so (2013.1, Build901 2013/11/27)

>  <Rbt.Parameter_File>
/export/apps/rDock/src/rDock_2013.1_src/data/scripts/dock_solv.prm

>  <Rbt.Receptor>
prm/pocket_docking_8.prm

>  <SCORE>
-21.5789

>  <SCORE.INTER>
-19.0669

>  <SCORE.INTER.CONST>
1

>  <SCORE.INTER.POLAR>
0

>  <SCORE.INTER.ROT>
7

>  <SCORE.INTER.SOLV>
16.6561

>  <SCORE.INTER.VDW>
-26.53

>  <SCORE.INTER.norm>
-0.70618

>  <SCORE.INTRA>
-2.53086

>  <SCORE.INTRA.DIHEDRAL>
-1.0549

>  <SCORE.INTRA.DIHEDRAL.0>
10.0365

>  <SCORE.INTRA.POLAR>
0

>  <SCORE.INTRA.POLAR.0>
0

>  <SCORE.INTRA.REPUL>
0

>  <SCORE.INTRA.REPUL.0>
0

>  <SCORE.INTRA.SOLV>
-1.12526

>  <SCORE.INTRA.SOLV.lig_0>
-48.6728

>  <SCORE.INTRA.VDW>
-1.44078

>  <SCORE.INTRA.VDW.0>
-1.10662

>  <SCORE.INTRA.norm>
-0.0937356

>  <SCORE.RESTR>
0.0188765

>  <SCORE.RESTR.CAVITY>
0.0188765

>  <SCORE.RESTR.norm>
0.000699129

>  <SCORE.SYSTEM>
0

>  <SCORE.SYSTEM.CONST>
0

>  <SCORE.SYSTEM.DIHEDRAL>
0

>  <SCORE.SYSTEM.SOLV>
0

>  <SCORE.SYSTEM.norm>
0

>  <SCORE.heavy>
27

>  <SCORE.norm>
-0.799217

>  <RMSD>
6.247

$$$$
ligand
 OpenBabel11021811483D
libRbt.so/2013.1/901 2013/11/27
 27 29  0  0  0  0  0  0  0  0999 V2000
   46.0446   59.9538   30.4903 N   0  0  0  0  0  0  0  0  0  0  0  0
   46.4297   59.5856   31.8591 C   0  0  2  0  0  0  0  0  0  0  0  0
   47.9258   59.5246   31.9314 C   0  0  0  0  0  0  0  0  0  0  0  0
   48.4836   59.5209   33.0173 O   0  0  0  0  0  0  0  0  0  0  0  0
   45.8440   58.2142   32.2273 C   0  0  0  0  0  0  0  0  0  0  0  0
   46.3477   57.1770   31.2280 C   0  0  0  0  0  0  0  0  0  0  0  0
   45.7953   55.4820   31.6010 S   0  0  2  0  0  0  0  0  0  0  0  0
   43.9890   55.5331   31.3890 C   0  0  0  0  0  0  0  0  0  0  0  0
   45.8476   55.1618   33.4012 C   0  0  0  0  0  0  0  0  0  0  0  0
   47.3264   55.1000   33.6951 C   0  0  1  0  0  0  0  0  0  0  0  0
   47.3842   54.8101   35.0527 O   0  0  0  0  0  0  0  0  0  0  0  0
   48.2208   54.0029   33.1159 C   0  0  1  0  0  0  0  0  0  0  0  0
   48.7848   54.3625   31.8873 O   0  0  0  0  0  0  0  0  0  0  0  0
   49.2796   53.9012   34.3156 C   0  0  1  0  0  0  0  0  0  0  0  0
   49.9232   55.1398   34.6491 O   0  0  0  0  0  0  0  0  0  0  0  0
   48.1229   53.5360   35.2172 C   0  0  1  0  0  0  0  0  0  0  0  0
   48.5799   59.4629   30.9023 O   0  0  0  0  0  0  0  0  0  0  0  0
   44.2495   52.2931   38.1703 N   0  0  0  0  0  0  0  0  0  0  0  0
   44.3215   52.4939   36.8535 C   0  0  0  0  0  0  0  0  0  0  0  0
   45.4749   52.7702   36.2464 N   0  0  0  0  0  0  0  0  0  0  0  0
   46.5934   52.9824   36.9526 C   0  0  0  0  0  0  0  0  0  0  0  0
   46.5429   52.8424   38.3762 C   0  0  0  0  0  0  0  0  0  0  0  0
   45.3002   52.4730   38.9605 C   0  0  0  0  0  0  0  0  0  0  0  0
   45.1717   52.3013   40.3102 N   0  0  0  0  0  0  0  0  0  0  0  0
   47.7776   53.1092   38.8447 N   0  0  0  0  0  0  0  0  0  0  0  0
   48.5725   53.4034   37.8396 C   0  0  0  0  0  0  0  0  0  0  0  0
   47.9111   53.3297   36.6383 N   0  0  0  0  0  0  0  0  0  0  0  0
  2  1  1  6  0  0  0
  2  3  1  0  0  0  0
  2  5  1  0  0  0  0
  3  4  1  0  0  0  0
  3 17  1  0  0  0  0
  5  6  1  0  0  0  0
  7  6  1  1  0  0  0
  7  8  1  0  0  0  0
  7  9  1  0  0  0  0
 10  9  1  6  0  0  0
 10 11  1  0  0  0  0
 10 12  1  0  0  0  0
 11 16  1  0  0  0  0
 12 13  1  6  0  0  0
 12 14  1  0  0  0  0
 14 15  1  1  0  0  0
 14 16  1  0  0  0  0
 16 27  1  1  0  0  0
 18 19  2  0  0  0  0
 18 23  1  0  0  0  0
 19 20  1  0  0  0  0
 20 21  2  0  0  0  0
 21 22  1  0  0  0  0
 21 27  1  0  0  0  0
 22 23  2  0  0  0  0
 22 25  1  0  0  0  0
 23 24  1  0  0  0  0
 25 26  2  0  0  0  0
 26 27  1  0  0  0  0
M  END
>  <CHROM.1>
164.32397275,58.32045093,177.00101131,65.32997834,-70.75748318,-177.97814360
71.15379576,46.88192501,55.21999165,34.39320113,1.48240052,-0.18804522,-0.88437002

>  <Name>
ligand

>  <RI>
0

>  <Rbt.Current_Directory>
/home/itssahil/PROJECTS/Mol_Feturizer/New_Systems/rnas/3IQN

>  <Rbt.Executable>
rbdock ($Id: //depot/dev/client3/rdock/2013.1/src/exe/rbdock.cxx#4 $)

>  <Rbt.Library>
libRbt.so (2013.1, Build901 2013/11/27)

>  <Rbt.Parameter_File>
/export/apps/rDock/src/rDock_2013.1_src/data/scripts/dock_solv.prm

>  <Rbt.Receptor>
prm/pocket_docking_8.prm

>  <SCORE>
-19.7401

>  <SCORE.INTER>
-15.7466

>  <SCORE.INTER.CONST>
1

>  <SCORE.INTER.POLAR>
0

>  <SCORE.INTER.ROT>
7

>  <SCORE.INTER.SOLV>
12.0293

>  <SCORE.INTER.VDW>
-22.7742

>  <SCORE.INTER.norm>
-0.583209

>  <SCORE.INTRA>
-3.99349

>  <SCORE.INTRA.DIHEDRAL>
-6.45403

>  <SCORE.INTRA.DIHEDRAL.0>
10.0365

>  <SCORE.INTRA.POLAR>
0

>  <SCORE.INTRA.POLAR.0>
0

>  <SCORE.INTRA.REPUL>
0

>  <SCORE.INTRA.REPUL.0>
0

>  <SCORE.INTRA.SOLV>
-0.165145

>  <SCORE.INTRA.SOLV.lig_0>
-48.6728

>  <SCORE.INTRA.VDW>
-0.683899

>  <SCORE.INTRA.VDW.0>
-1.10662

>  <SCORE.INTRA.norm>
-0.147907

>  <SCORE.RESTR>
0

>  <SCORE.RESTR.CAVITY>
0

>  <SCORE.RESTR.norm>
0

>  <SCORE.SYSTEM>
0

>  <SCORE.SYSTEM.CONST>
0

>  <SCORE.SYSTEM.DIHEDRAL>
0

>  <SCORE.SYSTEM.SOLV>
0

>  <SCORE.SYSTEM.norm>
0

>  <SCORE.heavy>
27

>  <SCORE.norm>
-0.731116

>  <RMSD>
6.257

$$$$
ligand
 OpenBabel11021811483D
libRbt.so/2013.1/901 2013/11/27
 27 29  0  0  0  0  0  0  0  0999 V2000
   47.3400   59.1223   31.9058 N   0  0  0  0  0  0  0  0  0  0  0  0
   48.2078   58.4592   32.8879 C   0  0  2  0  0  0  0  0  0  0  0  0
   49.6133   58.4743   32.3664 C   0  0  0  0  0  0  0  0  0  0  0  0
   50.5467   58.6386   33.1358 O   0  0  0  0  0  0  0  0  0  0  0  0
   47.7579   57.0063   33.1021 C   0  0  0  0  0  0  0  0  0  0  0  0
   48.6223   56.3764   34.1905 C   0  0  0  0  0  0  0  0  0  0  0  0
   48.1766   54.6500   34.5626 S   0  0  2  0  0  0  0  0  0  0  0  0
   49.3710   54.1339   35.8344 C   0  0  0  0  0  0  0  0  0  0  0  0
   48.7151   53.5344   33.2168 C   0  0  0  0  0  0  0  0  0  0  0  0
   47.8268   53.9344   32.0644 C   0  0  1  0  0  0  0  0  0  0  0  0
   48.5557   53.5682   30.9395 O   0  0  0  0  0  0  0  0  0  0  0  0
   46.4907   53.2408   31.7947 C   0  0  1  0  0  0  0  0  0  0  0  0
   45.4207   53.8647   32.4449 O   0  0  0  0  0  0  0  0  0  0  0  0
   46.4623   53.3914   30.1987 C   0  0  1  0  0  0  0  0  0  0  0  0
   46.5885   54.7402   29.7251 O   0  0  0  0  0  0  0  0  0  0  0  0
   47.7470   52.5959   30.1672 C   0  0  1  0  0  0  0  0  0  0  0  0
   49.8189   58.3063   31.1747 O   0  0  0  0  0  0  0  0  0  0  0  0
   50.3942   54.9389   26.5935 N   0  0  0  0  0  0  0  0  0  0  0  0
   49.4697   55.3920   27.4418 C   0  0  0  0  0  0  0  0  0  0  0  0
   48.9155   54.6056   28.3635 N   0  0  0  0  0  0  0  0  0  0  0  0
   49.1731   53.2912   28.3951 C   0  0  0  0  0  0  0  0  0  0  0  0
   50.1101   52.7530   27.4565 C   0  0  0  0  0  0  0  0  0  0  0  0
   50.7253   53.6549   26.5452 C   0  0  0  0  0  0  0  0  0  0  0  0
   51.6439   53.2247   25.6294 N   0  0  0  0  0  0  0  0  0  0  0  0
   50.1878   51.4283   27.6894 N   0  0  0  0  0  0  0  0  0  0  0  0
   49.3816   51.1101   28.6782 C   0  0  0  0  0  0  0  0  0  0  0  0
   48.7336   52.2153   29.1729 N   0  0  0  0  0  0  0  0  0  0  0  0
  2  1  1  6  0  0  0
  2  3  1  0  0  0  0
  2  5  1  0  0  0  0
  3  4  1  0  0  0  0
  3 17  1  0  0  0  0
  5  6  1  0  0  0  0
  7  6  1  6  0  0  0
  7  8  1  0  0  0  0
  7  9  1  0  0  0  0
 10  9  1  1  0  0  0
 10 11  1  0  0  0  0
 10 12  1  0  0  0  0
 11 16  1  0  0  0  0
 12 13  1  1  0  0  0
 12 14  1  0  0  0  0
 14 15  1  1  0  0  0
 14 16  1  0  0  0  0
 16 27  1  6  0  0  0
 18 19  2  0  0  0  0
 18 23  1  0  0  0  0
 19 20  1  0  0  0  0
 20 21  2  0  0  0  0
 21 22  1  0  0  0  0
 21 27  1  0  0  0  0
 22 23  2  0  0  0  0
 22 25  1  0  0  0  0
 23 24  1  0  0  0  0
 25 26  2  0  0  0  0
 26 27  1  0  0  0  0
M  END
>  <CHROM.1>
142.75700217,-176.41403965,179.18898399,178.39349044,-67.79664956,154.92384830
-60.39276816,48.68877296,54.73887595,30.85589278,-2.02155369,-1.09867704
-2.48404179

>  <Name>
ligand

>  <RI>
0

>  <Rbt.Current_Directory>
/home/itssahil/PROJECTS/Mol_Feturizer/New_Systems/rnas/3IQN

>  <Rbt.Executable>
rbdock ($Id: //depot/dev/client3/rdock/2013.1/src/exe/rbdock.cxx#4 $)

>  <Rbt.Library>
libRbt.so (2013.1, Build901 2013/11/27)

>  <Rbt.Parameter_File>
/export/apps/rDock/src/rDock_2013.1_src/data/scripts/dock_solv.prm

>  <Rbt.Receptor>
prm/pocket_docking_8.prm

>  <SCORE>
-17.7425

>  <SCORE.INTER>
-13.5031

>  <SCORE.INTER.CONST>
1

>  <SCORE.INTER.POLAR>
0

>  <SCORE.INTER.ROT>
7

>  <SCORE.INTER.SOLV>
7.20928

>  <SCORE.INTER.VDW>
-19.6718

>  <SCORE.INTER.norm>
-0.500115

>  <SCORE.INTRA>
-4.23944

>  <SCORE.INTRA.DIHEDRAL>
-5.02632

>  <SCORE.INTRA.DIHEDRAL.0>
10.0365

>  <SCORE.INTRA.POLAR>
0

>  <SCORE.INTRA.POLAR.0>
0

>  <SCORE.INTRA.REPUL>
0

>  <SCORE.INTRA.REPUL.0>
0

>  <SCORE.INTRA.SOLV>
-0.631527

>  <SCORE.INTRA.SOLV.lig_0>
-48.6728

>  <SCORE.INTRA.VDW>
-1.41052

>  <SCORE.INTRA.VDW.0>
-1.10662

>  <SCORE.INTRA.norm>
-0.157016

>  <SCORE.RESTR>
0

>  <SCORE.RESTR.CAVITY>
0

>  <SCORE.RESTR.norm>
0

>  <SCORE.SYSTEM>
0

>  <SCORE.SYSTEM.CONST>
0

>  <SCORE.SYSTEM.DIHEDRAL>
0

>  <SCORE.SYSTEM.SOLV>
0

>  <SCORE.SYSTEM.norm>
0

>  <SCORE.heavy>
27

>  <SCORE.norm>
-0.657131

>  <RMSD>
6.258

$$$$
ligand
 OpenBabel11021811483D
libRbt.so/2013.1/901 2013/11/27
 27 29  0  0  0  0  0  0  0  0999 V2000
   44.3258   56.0570   31.5557 N   0  0  0  0  0  0  0  0  0  0  0  0
   45.6338   56.2875   32.1829 C   0  0  2  0  0  0  0  0  0  0  0  0
   45.5039   56.0419   33.6561 C   0  0  0  0  0  0  0  0  0  0  0  0
   46.2972   55.3077   34.2235 O   0  0  0  0  0  0  0  0  0  0  0  0
   46.0921   57.7341   31.9446 C   0  0  0  0  0  0  0  0  0  0  0  0
   47.6141   57.7596   31.8400 C   0  0  0  0  0  0  0  0  0  0  0  0
   48.4557   57.4686   33.4289 S   0  0  2  0  0  0  0  0  0  0  0  0
   49.7222   58.7716   33.5205 C   0  0  0  0  0  0  0  0  0  0  0  0
   49.5660   56.0189   33.3212 C   0  0  0  0  0  0  0  0  0  0  0  0
   48.7420   55.0127   32.5560 C   0  0  1  0  0  0  0  0  0  0  0  0
   49.2159   55.1155   31.2538 O   0  0  0  0  0  0  0  0  0  0  0  0
   48.8685   53.5087   32.8031 C   0  0  1  0  0  0  0  0  0  0  0  0
   47.9782   53.0478   33.7787 O   0  0  0  0  0  0  0  0  0  0  0  0
   48.5359   52.9953   31.3210 C   0  0  1  0  0  0  0  0  0  0  0  0
   47.2798   53.4533   30.7995 O   0  0  0  0  0  0  0  0  0  0  0  0
   49.7337   53.7873   30.8494 C   0  0  1  0  0  0  0  0  0  0  0  0
   44.6131   56.5906   34.2853 O   0  0  0  0  0  0  0  0  0  0  0  0
   49.7101   51.9504   26.1703 N   0  0  0  0  0  0  0  0  0  0  0  0
   49.1441   51.5035   27.2926 C   0  0  0  0  0  0  0  0  0  0  0  0
   49.2286   52.1771   28.4391 N   0  0  0  0  0  0  0  0  0  0  0  0
   49.9939   53.2719   28.5420 C   0  0  0  0  0  0  0  0  0  0  0  0
   50.6728   53.7465   27.3747 C   0  0  0  0  0  0  0  0  0  0  0  0
   50.4847   53.0277   26.1623 C   0  0  0  0  0  0  0  0  0  0  0  0
   51.0828   53.4251   24.9995 N   0  0  0  0  0  0  0  0  0  0  0  0
   51.3690   54.8411   27.7388 N   0  0  0  0  0  0  0  0  0  0  0  0
   51.1810   55.0729   29.0193 C   0  0  0  0  0  0  0  0  0  0  0  0
   50.3293   54.1510   29.5766 N   0  0  0  0  0  0  0  0  0  0  0  0
  2  1  1  6  0  0  0
  2  3  1  0  0  0  0
  2  5  1  0  0  0  0
  3  4  1  0  0  0  0
  3 17  1  0  0  0  0
  5  6  1  0  0  0  0
  7  6  1  6  0  0  0
  7  8  1  0  0  0  0
  7  9  1  0  0  0  0
 10  9  1  1  0  0  0
 10 11  1  0  0  0  0
 10 12  1  0  0  0  0
 11 16  1  0  0  0  0
 12 13  1  1  0  0  0
 12 14  1  0  0  0  0
 14 15  1  6  0  0  0
 14 16  1  0  0  0  0
 16 27  1  6  0  0  0
 18 19  2  0  0  0  0
 18 23  1  0  0  0  0
 19 20  1  0  0  0  0
 20 21  2  0  0  0  0
 21 22  1  0  0  0  0
 21 27  1  0  0  0  0
 22 23  2  0  0  0  0
 22 25  1  0  0  0  0
 23 24  1  0  0  0  0
 25 26  2  0  0  0  0
 26 27  1  0  0  0  0
M  END
>  <CHROM.1>
129.66979854,-147.60390098,-71.38049969,-132.76852920,-42.71285860,99.07484969
-133.01260508,48.50389451,54.91630755,30.92614235,2.11932810,0.55472501,0.74068432

>  <Name>
ligand

>  <RI>
0

>  <Rbt.Current_Directory>
/home/itssahil/PROJECTS/Mol_Feturizer/New_Systems/rnas/3IQN

>  <Rbt.Executable>
rbdock ($Id: //depot/dev/client3/rdock/2013.1/src/exe/rbdock.cxx#4 $)

>  <Rbt.Library>
libRbt.so (2013.1, Build901 2013/11/27)

>  <Rbt.Parameter_File>
/export/apps/rDock/src/rDock_2013.1_src/data/scripts/dock_solv.prm

>  <Rbt.Receptor>
prm/pocket_docking_5.prm

>  <SCORE>
-14.6145

>  <SCORE.INTER>
-14.0577

>  <SCORE.INTER.CONST>
1

>  <SCORE.INTER.POLAR>
0

>  <SCORE.INTER.ROT>
7

>  <SCORE.INTER.SOLV>
7.40587

>  <SCORE.INTER.VDW>
-20.1071

>  <SCORE.INTER.norm>
-0.520655

>  <SCORE.INTRA>
-0.55679

>  <SCORE.INTRA.DIHEDRAL>
6.23572

>  <SCORE.INTRA.DIHEDRAL.0>
10.0365

>  <SCORE.INTRA.POLAR>
0

>  <SCORE.INTRA.POLAR.0>
0

>  <SCORE.INTRA.REPUL>
0

>  <SCORE.INTRA.REPUL.0>
0

>  <SCORE.INTRA.SOLV>
-0.0853187

>  <SCORE.INTRA.SOLV.lig_0>
-48.6728

>  <SCORE.INTRA.VDW>
-3.63199

>  <SCORE.INTRA.VDW.0>
-1.10662

>  <SCORE.INTRA.norm>
-0.0206219

>  <SCORE.RESTR>
0

>  <SCORE.RESTR.CAVITY>
0

>  <SCORE.RESTR.norm>
0

>  <SCORE.SYSTEM>
0

>  <SCORE.SYSTEM.CONST>
0

>  <SCORE.SYSTEM.DIHEDRAL>
0

>  <SCORE.SYSTEM.SOLV>
0

>  <SCORE.SYSTEM.norm>
0

>  <SCORE.heavy>
27

>  <SCORE.norm>
-0.541277

>  <RMSD>
6.261

$$$$
ligand
 OpenBabel11021811483D
libRbt.so/2013.1/901 2013/11/27
 27 29  0  0  0  0  0  0  0  0999 V2000
   46.9576   52.3000   35.5262 N   0  0  0  0  0  0  0  0  0  0  0  0
   46.9697   53.2120   34.3749 C   0  0  2  0  0  0  0  0  0  0  0  0
   47.8929   52.6517   33.3350 C   0  0  0  0  0  0  0  0  0  0  0  0
   48.9252   52.0949   33.6733 O   0  0  0  0  0  0  0  0  0  0  0  0
   47.4639   54.6025   34.8010 C   0  0  0  0  0  0  0  0  0  0  0  0
   47.2193   55.5853   33.6598 C   0  0  0  0  0  0  0  0  0  0  0  0
   45.5819   56.3803   33.7252 S   0  0  2  0  0  0  0  0  0  0  0  0
   44.4101   55.0458   33.3296 C   0  0  0  0  0  0  0  0  0  0  0  0
   45.3075   57.4274   32.2507 C   0  0  0  0  0  0  0  0  0  0  0  0
   46.4506   58.4106   32.3115 C   0  0  1  0  0  0  0  0  0  0  0  0
   47.5421   57.6806   31.8570 O   0  0  0  0  0  0  0  0  0  0  0  0
   46.5108   59.6380   31.4011 C   0  0  1  0  0  0  0  0  0  0  0  0
   45.9077   60.7623   31.9747 O   0  0  0  0  0  0  0  0  0  0  0  0
   48.1039   59.7520   31.2604 C   0  0  1  0  0  0  0  0  0  0  0  0
   48.8070   59.8473   32.5079 O   0  0  0  0  0  0  0  0  0  0  0  0
   48.0835   58.3654   30.6595 C   0  0  1  0  0  0  0  0  0  0  0  0
   47.5996   52.7415   32.1532 O   0  0  0  0  0  0  0  0  0  0  0  0
   49.2841   55.9928   26.3936 N   0  0  0  0  0  0  0  0  0  0  0  0
   48.3231   56.8767   26.6669 C   0  0  0  0  0  0  0  0  0  0  0  0
   48.2040   57.4361   27.8703 N   0  0  0  0  0  0  0  0  0  0  0  0
   48.9699   57.0390   28.8953 C   0  0  0  0  0  0  0  0  0  0  0  0
   49.9698   56.0425   28.6587 C   0  0  0  0  0  0  0  0  0  0  0  0
   50.0989   55.5363   27.3361 C   0  0  0  0  0  0  0  0  0  0  0  0
   51.0402   54.5964   27.0229 N   0  0  0  0  0  0  0  0  0  0  0  0
   50.5911   55.8180   29.8330 N   0  0  0  0  0  0  0  0  0  0  0  0
   50.0589   56.5810   30.7622 C   0  0  0  0  0  0  0  0  0  0  0  0
   49.0610   57.3734   30.2501 N   0  0  0  0  0  0  0  0  0  0  0  0
  2  1  1  1  0  0  0
  2  3  1  0  0  0  0
  2  5  1  0  0  0  0
  3  4  1  0  0  0  0
  3 17  1  0  0  0  0
  5  6  1  0  0  0  0
  7  6  1  6  0  0  0
  7  8  1  0  0  0  0
  7  9  1  0  0  0  0
 10  9  1  6  0  0  0
 10 11  1  0  0  0  0
 10 12  1  0  0  0  0
 11 16  1  0  0  0  0
 12 13  1  1  0  0  0
 12 14  1  0  0  0  0
 14 15  1  1  0  0  0
 14 16  1  0  0  0  0
 16 27  1  1  0  0  0
 18 19  2  0  0  0  0
 18 23  1  0  0  0  0
 19 20  1  0  0  0  0
 20 21  2  0  0  0  0
 21 22  1  0  0  0  0
 21 27  1  0  0  0  0
 22 23  2  0  0  0  0
 22 25  1  0  0  0  0
 23 24  1  0  0  0  0
 25 26  2  0  0  0  0
 26 27  1  0  0  0  0
M  END
>  <CHROM.1>
-37.56672994,-169.51261022,89.12517807,-69.80030019,-58.47217213,77.21481157
130.23021594,47.82084905,56.29328632,31.40635293,-2.32233100,0.97882508,-0.48366248

>  <Name>
ligand

>  <RI>
0

>  <Rbt.Current_Directory>
/home/itssahil/PROJECTS/Mol_Feturizer/New_Systems/rnas/3IQN

>  <Rbt.Executable>
rbdock ($Id: //depot/dev/client3/rdock/2013.1/src/exe/rbdock.cxx#4 $)

>  <Rbt.Library>
libRbt.so (2013.1, Build901 2013/11/27)

>  <Rbt.Parameter_File>
/export/apps/rDock/src/rDock_2013.1_src/data/scripts/dock_solv.prm

>  <Rbt.Receptor>
prm/pocket_docking_4.prm

>  <SCORE>
-20.9852

>  <SCORE.INTER>
-18.2169

>  <SCORE.INTER.CONST>
1

>  <SCORE.INTER.POLAR>
0

>  <SCORE.INTER.ROT>
7

>  <SCORE.INTER.SOLV>
14.776

>  <SCORE.INTER.VDW>
-25.3366

>  <SCORE.INTER.norm>
-0.674701

>  <SCORE.INTRA>
-2.76832

>  <SCORE.INTRA.DIHEDRAL>
-2.69573

>  <SCORE.INTRA.DIHEDRAL.0>
10.0365

>  <SCORE.INTRA.POLAR>
0

>  <SCORE.INTRA.POLAR.0>
0

>  <SCORE.INTRA.REPUL>
0

>  <SCORE.INTRA.REPUL.0>
0

>  <SCORE.INTRA.SOLV>
-0.682847

>  <SCORE.INTRA.SOLV.lig_0>
-48.6728

>  <SCORE.INTRA.VDW>
-1.07903

>  <SCORE.INTRA.VDW.0>
-1.10662

>  <SCORE.INTRA.norm>
-0.10253

>  <SCORE.RESTR>
0

>  <SCORE.RESTR.CAVITY>
0

>  <SCORE.RESTR.norm>
0

>  <SCORE.SYSTEM>
0

>  <SCORE.SYSTEM.CONST>
0

>  <SCORE.SYSTEM.DIHEDRAL>
0

>  <SCORE.SYSTEM.SOLV>
0

>  <SCORE.SYSTEM.norm>
0

>  <SCORE.heavy>
27

>  <SCORE.norm>
-0.777231

>  <RMSD>
6.267

$$$$
ligand
 OpenBabel11021811483D
libRbt.so/2013.1/901 2013/11/27
 27 29  0  0  0  0  0  0  0  0999 V2000
   47.5492   57.3140   33.6945 N   0  0  0  0  0  0  0  0  0  0  0  0
   48.9787   57.4144   34.0163 C   0  0  2  0  0  0  0  0  0  0  0  0
   49.5508   58.5865   33.2772 C   0  0  0  0  0  0  0  0  0  0  0  0
   48.8339   59.5296   32.9823 O   0  0  0  0  0  0  0  0  0  0  0  0
   49.7126   56.1341   33.5903 C   0  0  0  0  0  0  0  0  0  0  0  0
   49.4280   55.0376   34.6125 C   0  0  0  0  0  0  0  0  0  0  0  0
   47.6768   54.5408   34.6751 S   0  0  2  0  0  0  0  0  0  0  0  0
   47.6897   52.9259   35.5131 C   0  0  0  0  0  0  0  0  0  0  0  0
   47.0981   53.9876   33.0304 C   0  0  0  0  0  0  0  0  0  0  0  0
   46.2333   55.1346   32.5681 C   0  0  1  0  0  0  0  0  0  0  0  0
   46.4751   55.2042   31.2016 O   0  0  0  0  0  0  0  0  0  0  0  0
   44.7061   55.0594   32.5988 C   0  0  1  0  0  0  0  0  0  0  0  0
   44.1691   55.5320   33.8010 O   0  0  0  0  0  0  0  0  0  0  0  0
   44.3964   55.9939   31.3333 C   0  0  1  0  0  0  0  0  0  0  0  0
   44.9725   57.3062   31.4063 O   0  0  0  0  0  0  0  0  0  0  0  0
   45.1850   55.0113   30.4985 C   0  0  1  0  0  0  0  0  0  0  0  0
   50.7366   58.5992   32.9868 O   0  0  0  0  0  0  0  0  0  0  0  0
   48.0326   51.8372   27.8368 N   0  0  0  0  0  0  0  0  0  0  0  0
   47.6689   51.8262   29.1202 C   0  0  0  0  0  0  0  0  0  0  0  0
   46.8522   52.7488   29.6274 N   0  0  0  0  0  0  0  0  0  0  0  0
   46.4608   53.8013   28.8967 C   0  0  0  0  0  0  0  0  0  0  0  0
   46.8850   53.8851   27.5323 C   0  0  0  0  0  0  0  0  0  0  0  0
   47.6952   52.8318   27.0259 C   0  0  0  0  0  0  0  0  0  0  0  0
   48.1274   52.8271   25.7294 N   0  0  0  0  0  0  0  0  0  0  0  0
   46.3691   55.0221   27.0261 N   0  0  0  0  0  0  0  0  0  0  0  0
   45.6754   55.6398   27.9567 C   0  0  0  0  0  0  0  0  0  0  0  0
   45.6760   54.9341   29.1348 N   0  0  0  0  0  0  0  0  0  0  0  0
  2  1  1  6  0  0  0
  2  3  1  0  0  0  0
  2  5  1  0  0  0  0
  3  4  1  0  0  0  0
  3 17  1  0  0  0  0
  5  6  1  0  0  0  0
  7  6  1  6  0  0  0
  7  8  1  0  0  0  0
  7  9  1  0  0  0  0
 10  9  1  6  0  0  0
 10 11  1  0  0  0  0
 10 12  1  0  0  0  0
 11 16  1  0  0  0  0
 12 13  1  1  0  0  0
 12 14  1  0  0  0  0
 14 15  1  1  0  0  0
 14 16  1  0  0  0  0
 16 27  1  6  0  0  0
 18 19  2  0  0  0  0
 18 23  1  0  0  0  0
 19 20  1  0  0  0  0
 20 21  2  0  0  0  0
 21 22  1  0  0  0  0
 21 27  1  0  0  0  0
 22 23  2  0  0  0  0
 22 25  1  0  0  0  0
 23 24  1  0  0  0  0
 25 26  2  0  0  0  0
 26 27  1  0  0  0  0
M  END
>  <CHROM.1>
27.40007728,-77.20960918,64.71402407,162.13816158,-106.10152820,143.46347054
66.33713372,47.17593679,55.17023591,31.43467817,-1.21390864,-0.95150601,-1.74141161

>  <Name>
ligand

>  <RI>
0

>  <Rbt.Current_Directory>
/home/itssahil/PROJECTS/Mol_Feturizer/New_Systems/rnas/3IQN

>  <Rbt.Executable>
rbdock ($Id: //depot/dev/client3/rdock/2013.1/src/exe/rbdock.cxx#4 $)

>  <Rbt.Library>
libRbt.so (2013.1, Build901 2013/11/27)

>  <Rbt.Parameter_File>
/export/apps/rDock/src/rDock_2013.1_src/data/scripts/dock_solv.prm

>  <Rbt.Receptor>
prm/pocket_docking_4.prm

>  <SCORE>
-11.6714

>  <SCORE.INTER>
-13.5427

>  <SCORE.INTER.CONST>
1

>  <SCORE.INTER.POLAR>
0

>  <SCORE.INTER.ROT>
7

>  <SCORE.INTER.SOLV>
9.56912

>  <SCORE.INTER.VDW>
-20.4849

>  <SCORE.INTER.norm>
-0.501582

>  <SCORE.INTRA>
1.87131

>  <SCORE.INTRA.DIHEDRAL>
1.30366

>  <SCORE.INTRA.DIHEDRAL.0>
10.0365

>  <SCORE.INTRA.POLAR>
0

>  <SCORE.INTRA.POLAR.0>
0

>  <SCORE.INTRA.REPUL>
0

>  <SCORE.INTRA.REPUL.0>
0

>  <SCORE.INTRA.SOLV>
4.82229

>  <SCORE.INTRA.SOLV.lig_0>
-48.6728

>  <SCORE.INTRA.VDW>
-1.19167

>  <SCORE.INTRA.VDW.0>
-1.10662

>  <SCORE.INTRA.norm>
0.0693078

>  <SCORE.RESTR>
0

>  <SCORE.RESTR.CAVITY>
0

>  <SCORE.RESTR.norm>
0

>  <SCORE.SYSTEM>
0

>  <SCORE.SYSTEM.CONST>
0

>  <SCORE.SYSTEM.DIHEDRAL>
0

>  <SCORE.SYSTEM.SOLV>
0

>  <SCORE.SYSTEM.norm>
0

>  <SCORE.heavy>
27

>  <SCORE.norm>
-0.432275

>  <RMSD>
6.319

$$$$
ligand
 OpenBabel11021811483D
libRbt.so/2013.1/901 2013/11/27
 27 29  0  0  0  0  0  0  0  0999 V2000
   48.7161   56.8355   31.4135 N   0  0  0  0  0  0  0  0  0  0  0  0
   48.6671   57.4553   32.7443 C   0  0  2  0  0  0  0  0  0  0  0  0
   48.8935   58.9292   32.5903 C   0  0  0  0  0  0  0  0  0  0  0  0
   49.9931   59.3457   32.2622 O   0  0  0  0  0  0  0  0  0  0  0  0
   49.7578   56.8626   33.6491 C   0  0  0  0  0  0  0  0  0  0  0  0
   49.5404   55.3567   33.7641 C   0  0  0  0  0  0  0  0  0  0  0  0
   48.2158   54.9017   34.9285 S   0  0  2  0  0  0  0  0  0  0  0  0
   49.0888   54.1972   36.3610 C   0  0  0  0  0  0  0  0  0  0  0  0
   47.3490   53.3909   34.3700 C   0  0  0  0  0  0  0  0  0  0  0  0
   46.5953   53.8600   33.1498 C   0  0  1  0  0  0  0  0  0  0  0  0
   47.5252   53.7538   32.1228 O   0  0  0  0  0  0  0  0  0  0  0  0
   45.4196   53.0703   32.5724 C   0  0  1  0  0  0  0  0  0  0  0  0
   44.1910   53.4638   33.1131 O   0  0  0  0  0  0  0  0  0  0  0  0
   45.6077   53.4586   31.0282 C   0  0  1  0  0  0  0  0  0  0  0  0
   45.6196   54.8694   30.7656 O   0  0  0  0  0  0  0  0  0  0  0  0
   46.9783   52.8263   31.1047 C   0  0  1  0  0  0  0  0  0  0  0  0
   47.9710   59.7065   32.7791 O   0  0  0  0  0  0  0  0  0  0  0  0
   47.8385   51.7606   26.2681 N   0  0  0  0  0  0  0  0  0  0  0  0
   46.7056   51.7992   26.9713 C   0  0  0  0  0  0  0  0  0  0  0  0
   46.6859   52.1614   28.2534 N   0  0  0  0  0  0  0  0  0  0  0  0
   47.8233   52.3818   28.9262 C   0  0  0  0  0  0  0  0  0  0  0  0
   49.0662   52.2844   28.2231 C   0  0  0  0  0  0  0  0  0  0  0  0
   49.0190   51.9671   26.8377 C   0  0  0  0  0  0  0  0  0  0  0  0
   50.1592   51.8727   26.0903 N   0  0  0  0  0  0  0  0  0  0  0  0
   50.0455   52.5422   29.1118 N   0  0  0  0  0  0  0  0  0  0  0  0
   49.5144   52.7818   30.2905 C   0  0  0  0  0  0  0  0  0  0  0  0
   48.1434   52.7149   30.2462 N   0  0  0  0  0  0  0  0  0  0  0  0
  2  1  1  6  0  0  0
  2  3  1  0  0  0  0
  2  5  1  0  0  0  0
  3  4  1  0  0  0  0
  3 17  1  0  0  0  0
  5  6  1  0  0  0  0
  7  6  1  6  0  0  0
  7  8  1  0  0  0  0
  7  9  1  0  0  0  0
 10  9  1  1  0  0  0
 10 11  1  0  0  0  0
 10 12  1  0  0  0  0
 11 16  1  0  0  0  0
 12 13  1  1  0  0  0
 12 14  1  0  0  0  0
 14 15  1  1  0  0  0
 14 16  1  0  0  0  0
 16 27  1  6  0  0  0
 18 19  2  0  0  0  0
 18 23  1  0  0  0  0
 19 20  1  0  0  0  0
 20 21  2  0  0  0  0
 21 22  1  0  0  0  0
 21 27  1  0  0  0  0
 22 23  2  0  0  0  0
 22 25  1  0  0  0  0
 23 24  1  0  0  0  0
 25 26  2  0  0  0  0
 26 27  1  0  0  0  0
M  END
>  <CHROM.1>
-69.51349528,-59.07805640,-78.53531972,-107.91528711,-69.94744035,84.98055068
-154.54459335,47.95936372,54.35229587,31.38048263,-1.49651044,-0.92050327
-2.15911996

>  <Name>
ligand

>  <RI>
0

>  <Rbt.Current_Directory>
/home/itssahil/PROJECTS/Mol_Feturizer/New_Systems/rnas/3IQN

>  <Rbt.Executable>
rbdock ($Id: //depot/dev/client3/rdock/2013.1/src/exe/rbdock.cxx#4 $)

>  <Rbt.Library>
libRbt.so (2013.1, Build901 2013/11/27)

>  <Rbt.Parameter_File>
/export/apps/rDock/src/rDock_2013.1_src/data/scripts/dock_solv.prm

>  <Rbt.Receptor>
prm/pocket_docking_5.prm

>  <SCORE>
-18.0567

>  <SCORE.INTER>
-16.6796

>  <SCORE.INTER.CONST>
1

>  <SCORE.INTER.POLAR>
0

>  <SCORE.INTER.ROT>
7

>  <SCORE.INTER.SOLV>
6.69608

>  <SCORE.INTER.VDW>
-21.6184

>  <SCORE.INTER.norm>
-0.617764

>  <SCORE.INTRA>
-1.37711

>  <SCORE.INTRA.DIHEDRAL>
-0.544196

>  <SCORE.INTRA.DIHEDRAL.0>
10.0365

>  <SCORE.INTRA.POLAR>
0

>  <SCORE.INTRA.POLAR.0>
0

>  <SCORE.INTRA.REPUL>
0

>  <SCORE.INTRA.REPUL.0>
0

>  <SCORE.INTRA.SOLV>
1.71262

>  <SCORE.INTRA.SOLV.lig_0>
-48.6728

>  <SCORE.INTRA.VDW>
-1.96132

>  <SCORE.INTRA.VDW.0>
-1.10662

>  <SCORE.INTRA.norm>
-0.051004

>  <SCORE.RESTR>
0

>  <SCORE.RESTR.CAVITY>
0

>  <SCORE.RESTR.norm>
0

>  <SCORE.SYSTEM>
0

>  <SCORE.SYSTEM.CONST>
0

>  <SCORE.SYSTEM.DIHEDRAL>
0

>  <SCORE.SYSTEM.SOLV>
0

>  <SCORE.SYSTEM.norm>
0

>  <SCORE.heavy>
27

>  <SCORE.norm>
-0.668768

>  <RMSD>
6.319

$$$$
ligand
 OpenBabel11021811483D
libRbt.so/2013.1/901 2013/11/27
 27 29  0  0  0  0  0  0  0  0999 V2000
   47.5939   53.0870   31.1751 N   0  0  0  0  0  0  0  0  0  0  0  0
   47.8409   54.3610   31.8630 C   0  0  2  0  0  0  0  0  0  0  0  0
   49.3125   54.6446   31.8237 C   0  0  0  0  0  0  0  0  0  0  0  0
   50.0821   53.8092   31.3764 O   0  0  0  0  0  0  0  0  0  0  0  0
   47.3756   54.2770   33.3244 C   0  0  0  0  0  0  0  0  0  0  0  0
   47.2656   55.6899   33.8902 C   0  0  0  0  0  0  0  0  0  0  0  0
   45.7563   56.5653   33.3675 S   0  0  2  0  0  0  0  0  0  0  0  0
   44.3987   55.4347   33.8021 C   0  0  0  0  0  0  0  0  0  0  0  0
   45.5747   56.5196   31.5480 C   0  0  0  0  0  0  0  0  0  0  0  0
   46.7512   57.3323   31.0659 C   0  0  1  0  0  0  0  0  0  0  0  0
   47.3226   56.5382   30.0792 O   0  0  0  0  0  0  0  0  0  0  0  0
   46.5690   58.6542   30.3186 C   0  0  1  0  0  0  0  0  0  0  0  0
   46.5419   59.7577   31.1779 O   0  0  0  0  0  0  0  0  0  0  0  0
   47.8728   58.5831   29.3881 C   0  0  1  0  0  0  0  0  0  0  0  0
   49.1065   58.4183   30.1025 O   0  0  0  0  0  0  0  0  0  0  0  0
   47.3099   57.3047   28.8111 C   0  0  1  0  0  0  0  0  0  0  0  0
   49.7333   55.7179   32.2256 O   0  0  0  0  0  0  0  0  0  0  0  0
   51.4490   54.5037   28.2710 N   0  0  0  0  0  0  0  0  0  0  0  0
   51.1537   55.4781   29.1328 C   0  0  0  0  0  0  0  0  0  0  0  0
   49.9598   56.0697   29.1432 N   0  0  0  0  0  0  0  0  0  0  0  0
   49.0454   55.7961   28.2031 C   0  0  0  0  0  0  0  0  0  0  0  0
   49.3500   54.8031   27.2182 C   0  0  0  0  0  0  0  0  0  0  0  0
   50.6118   54.1528   27.3031 C   0  0  0  0  0  0  0  0  0  0  0  0
   50.9726   53.1809   26.4127 N   0  0  0  0  0  0  0  0  0  0  0  0
   48.2851   54.7197   26.3971 N   0  0  0  0  0  0  0  0  0  0  0  0
   47.3639   55.5729   26.7876 C   0  0  0  0  0  0  0  0  0  0  0  0
   47.7601   56.2614   27.9078 N   0  0  0  0  0  0  0  0  0  0  0  0
  2  1  1  1  0  0  0
  2  3  1  0  0  0  0
  2  5  1  0  0  0  0
  3  4  1  0  0  0  0
  3 17  1  0  0  0  0
  5  6  1  0  0  0  0
  7  6  1  6  0  0  0
  7  8  1  0  0  0  0
  7  9  1  0  0  0  0
 10  9  1  6  0  0  0
 10 11  1  0  0  0  0
 10 12  1  0  0  0  0
 11 16  1  0  0  0  0
 12 13  1  1  0  0  0
 12 14  1  0  0  0  0
 14 15  1  1  0  0  0
 14 16  1  0  0  0  0
 16 27  1  6  0  0  0
 18 19  2  0  0  0  0
 18 23  1  0  0  0  0
 19 20  1  0  0  0  0
 20 21  2  0  0  0  0
 21 22  1  0  0  0  0
 21 27  1  0  0  0  0
 22 23  2  0  0  0  0
 22 25  1  0  0  0  0
 23 24  1  0  0  0  0
 25 26  2  0  0  0  0
 26 27  1  0  0  0  0
M  END
>  <CHROM.1>
-6.10919051,-163.84698021,78.20092265,53.10756892,-65.58620065,131.41371580
-62.25108476,48.09302130,55.88779089,30.31251362,-2.65075894,0.86989864,-0.94028642

>  <Name>
ligand

>  <RI>
0

>  <Rbt.Current_Directory>
/home/itssahil/PROJECTS/Mol_Feturizer/New_Systems/rnas/3IQN

>  <Rbt.Executable>
rbdock ($Id: //depot/dev/client3/rdock/2013.1/src/exe/rbdock.cxx#4 $)

>  <Rbt.Library>
libRbt.so (2013.1, Build901 2013/11/27)

>  <Rbt.Parameter_File>
/export/apps/rDock/src/rDock_2013.1_src/data/scripts/dock_solv.prm

>  <Rbt.Receptor>
prm/pocket_docking_4.prm

>  <SCORE>
-11.4963

>  <SCORE.INTER>
-8.62989

>  <SCORE.INTER.CONST>
1

>  <SCORE.INTER.POLAR>
0

>  <SCORE.INTER.ROT>
7

>  <SCORE.INTER.SOLV>
7.87166

>  <SCORE.INTER.VDW>
-16.6438

>  <SCORE.INTER.norm>
-0.319626

>  <SCORE.INTRA>
-2.8664

>  <SCORE.INTRA.DIHEDRAL>
-0.249388

>  <SCORE.INTRA.DIHEDRAL.0>
10.0365

>  <SCORE.INTRA.POLAR>
0

>  <SCORE.INTRA.POLAR.0>
0

>  <SCORE.INTRA.REPUL>
0

>  <SCORE.INTRA.REPUL.0>
0

>  <SCORE.INTRA.SOLV>
0.882148

>  <SCORE.INTRA.SOLV.lig_0>
-48.6728

>  <SCORE.INTRA.VDW>
-3.18278

>  <SCORE.INTRA.VDW.0>
-1.10662

>  <SCORE.INTRA.norm>
-0.106163

>  <SCORE.RESTR>
0

>  <SCORE.RESTR.CAVITY>
0

>  <SCORE.RESTR.norm>
0

>  <SCORE.SYSTEM>
0

>  <SCORE.SYSTEM.CONST>
0

>  <SCORE.SYSTEM.DIHEDRAL>
0

>  <SCORE.SYSTEM.SOLV>
0

>  <SCORE.SYSTEM.norm>
0

>  <SCORE.heavy>
27

>  <SCORE.norm>
-0.425788

>  <RMSD>
6.335

$$$$
ligand
 OpenBabel11021811483D
libRbt.so/2013.1/901 2013/11/27
 27 29  0  0  0  0  0  0  0  0999 V2000
   43.8546   54.5653   33.6437 N   0  0  0  0  0  0  0  0  0  0  0  0
   44.3059   55.7857   32.9623 C   0  0  2  0  0  0  0  0  0  0  0  0
   44.3892   55.5056   31.4920 C   0  0  0  0  0  0  0  0  0  0  0  0
   44.9676   54.5070   31.0939 O   0  0  0  0  0  0  0  0  0  0  0  0
   45.6890   56.2061   33.4816 C   0  0  0  0  0  0  0  0  0  0  0  0
   46.0897   57.5185   32.8142 C   0  0  0  0  0  0  0  0  0  0  0  0
   47.8709   57.8796   32.9349 S   0  0  2  0  0  0  0  0  0  0  0  0
   48.1113   59.3478   31.8875 C   0  0  0  0  0  0  0  0  0  0  0  0
   48.8454   56.6835   31.9523 C   0  0  0  0  0  0  0  0  0  0  0  0
   48.4503   55.3525   32.5433 C   0  0  1  0  0  0  0  0  0  0  0  0
   48.2946   54.5291   31.4350 O   0  0  0  0  0  0  0  0  0  0  0  0
   49.4157   54.5279   33.3961 C   0  0  1  0  0  0  0  0  0  0  0  0
   49.3156   54.8243   34.7595 O   0  0  0  0  0  0  0  0  0  0  0  0
   48.8880   53.0651   33.0055 C   0  0  1  0  0  0  0  0  0  0  0  0
   47.4882   52.8539   33.2410 O   0  0  0  0  0  0  0  0  0  0  0  0
   49.2374   53.3941   31.5724 C   0  0  1  0  0  0  0  0  0  0  0  0
   43.8637   56.2709   30.6989 O   0  0  0  0  0  0  0  0  0  0  0  0
   51.9325   52.9453   27.3529 N   0  0  0  0  0  0  0  0  0  0  0  0
   52.1942   53.5738   28.5000 C   0  0  0  0  0  0  0  0  0  0  0  0
   51.3552   53.5282   29.5340 N   0  0  0  0  0  0  0  0  0  0  0  0
   50.1513   52.9512   29.4215 C   0  0  0  0  0  0  0  0  0  0  0  0
   49.8047   52.3231   28.1830 C   0  0  0  0  0  0  0  0  0  0  0  0
   50.7712   52.3397   27.1400 C   0  0  0  0  0  0  0  0  0  0  0  0
   50.5257   51.7472   25.9332 N   0  0  0  0  0  0  0  0  0  0  0  0
   48.5589   51.8299   28.3239 N   0  0  0  0  0  0  0  0  0  0  0  0
   48.1138   52.1042   29.5303 C   0  0  0  0  0  0  0  0  0  0  0  0
   49.0519   52.7825   30.2691 N   0  0  0  0  0  0  0  0  0  0  0  0
  2  1  1  1  0  0  0
  2  3  1  0  0  0  0
  2  5  1  0  0  0  0
  3  4  1  0  0  0  0
  3 17  1  0  0  0  0
  5  6  1  0  0  0  0
  7  6  1  6  0  0  0
  7  8  1  0  0  0  0
  7  9  1  0  0  0  0
 10  9  1  6  0  0  0
 10 11  1  0  0  0  0
 10 12  1  0  0  0  0
 11 16  1  0  0  0  0
 12 13  1  1  0  0  0
 12 14  1  0  0  0  0
 14 15  1  6  0  0  0
 14 16  1  0  0  0  0
 16 27  1  6  0  0  0
 18 19  2  0  0  0  0
 18 23  1  0  0  0  0
 19 20  1  0  0  0  0
 20 21  2  0  0  0  0
 21 22  1  0  0  0  0
 21 27  1  0  0  0  0
 22 23  2  0  0  0  0
 22 25  1  0  0  0  0
 23 24  1  0  0  0  0
 25 26  2  0  0  0  0
 26 27  1  0  0  0  0
M  END
>  <CHROM.1>
-48.84165522,-176.70207838,-162.62595373,172.62004187,-57.75199077,137.93150165
108.58756688,48.12310204,54.62298225,31.16607552,2.21737416,0.11381382,0.79090029

>  <Name>
ligand

>  <RI>
0

>  <Rbt.Current_Directory>
/home/itssahil/PROJECTS/Mol_Feturizer/New_Systems/rnas/3IQN

>  <Rbt.Executable>
rbdock ($Id: //depot/dev/client3/rdock/2013.1/src/exe/rbdock.cxx#4 $)

>  <Rbt.Library>
libRbt.so (2013.1, Build901 2013/11/27)

>  <Rbt.Parameter_File>
/export/apps/rDock/src/rDock_2013.1_src/data/scripts/dock_solv.prm

>  <Rbt.Receptor>
prm/pocket_docking_6.prm

>  <SCORE>
-19.2013

>  <SCORE.INTER>
-15.8996

>  <SCORE.INTER.CONST>
1

>  <SCORE.INTER.POLAR>
0

>  <SCORE.INTER.ROT>
7

>  <SCORE.INTER.SOLV>
8.73867

>  <SCORE.INTER.VDW>
-21.7793

>  <SCORE.INTER.norm>
-0.588873

>  <SCORE.INTRA>
-3.30172

>  <SCORE.INTRA.DIHEDRAL>
-1.75973

>  <SCORE.INTRA.DIHEDRAL.0>
10.0365

>  <SCORE.INTRA.POLAR>
0

>  <SCORE.INTRA.POLAR.0>
0

>  <SCORE.INTRA.REPUL>
0

>  <SCORE.INTRA.REPUL.0>
0

>  <SCORE.INTRA.SOLV>
-0.55745

>  <SCORE.INTRA.SOLV.lig_0>
-48.6728

>  <SCORE.INTRA.VDW>
-2.14313

>  <SCORE.INTRA.VDW.0>
-1.10662

>  <SCORE.INTRA.norm>
-0.122286

>  <SCORE.RESTR>
0

>  <SCORE.RESTR.CAVITY>
0

>  <SCORE.RESTR.norm>
0

>  <SCORE.SYSTEM>
0

>  <SCORE.SYSTEM.CONST>
0

>  <SCORE.SYSTEM.DIHEDRAL>
0

>  <SCORE.SYSTEM.SOLV>
0

>  <SCORE.SYSTEM.norm>
0

>  <SCORE.heavy>
27

>  <SCORE.norm>
-0.711159

>  <RMSD>
6.349

$$$$
ligand
 OpenBabel11021811483D
libRbt.so/2013.1/901 2013/11/27
 27 29  0  0  0  0  0  0  0  0999 V2000
   49.8637   56.5206   31.8892 N   0  0  0  0  0  0  0  0  0  0  0  0
   48.9515   57.2932   32.7427 C   0  0  2  0  0  0  0  0  0  0  0  0
   49.4222   58.7162   32.7750 C   0  0  0  0  0  0  0  0  0  0  0  0
   48.6317   59.6139   33.0186 O   0  0  0  0  0  0  0  0  0  0  0  0
   48.9461   56.7244   34.1695 C   0  0  0  0  0  0  0  0  0  0  0  0
   48.1601   55.4165   34.1774 C   0  0  0  0  0  0  0  0  0  0  0  0
   46.4055   55.6217   33.7340 S   0  0  2  0  0  0  0  0  0  0  0  0
   45.6126   54.0782   34.2810 C   0  0  0  0  0  0  0  0  0  0  0  0
   46.1626   55.4268   31.9316 C   0  0  0  0  0  0  0  0  0  0  0  0
   46.5865   56.7668   31.3822 C   0  0  1  0  0  0  0  0  0  0  0  0
   46.9524   56.4885   30.0709 O   0  0  0  0  0  0  0  0  0  0  0  0
   45.5902   57.9093   31.1792 C   0  0  1  0  0  0  0  0  0  0  0  0
   45.4876   58.7383   32.3014 O   0  0  0  0  0  0  0  0  0  0  0  0
   46.2833   58.6073   29.9131 C   0  0  1  0  0  0  0  0  0  0  0  0
   47.6534   58.9834   30.1157 O   0  0  0  0  0  0  0  0  0  0  0  0
   46.0969   57.3017   29.1750 C   0  0  1  0  0  0  0  0  0  0  0  0
   50.5993   58.9694   32.5725 O   0  0  0  0  0  0  0  0  0  0  0  0
   45.8938   52.7895   26.9687 N   0  0  0  0  0  0  0  0  0  0  0  0
   45.5178   53.1911   28.1839 C   0  0  0  0  0  0  0  0  0  0  0  0
   45.6103   54.4650   28.5633 N   0  0  0  0  0  0  0  0  0  0  0  0
   46.2036   55.3770   27.7816 C   0  0  0  0  0  0  0  0  0  0  0  0
   46.6820   54.9708   26.4951 C   0  0  0  0  0  0  0  0  0  0  0  0
   46.4880   53.6141   26.1157 C   0  0  0  0  0  0  0  0  0  0  0  0
   46.8993   53.1503   24.8977 N   0  0  0  0  0  0  0  0  0  0  0  0
   47.2333   56.0556   25.9167 N   0  0  0  0  0  0  0  0  0  0  0  0
   47.1395   57.0818   26.7334 C   0  0  0  0  0  0  0  0  0  0  0  0
   46.5000   56.7386   27.8993 N   0  0  0  0  0  0  0  0  0  0  0  0
  2  1  1  6  0  0  0
  2  3  1  0  0  0  0
  2  5  1  0  0  0  0
  3  4  1  0  0  0  0
  3 17  1  0  0  0  0
  5  6  1  0  0  0  0
  7  6  1  6  0  0  0
  7  8  1  0  0  0  0
  7  9  1  0  0  0  0
 10  9  1  6  0  0  0
 10 11  1  0  0  0  0
 10 12  1  0  0  0  0
 11 16  1  0  0  0  0
 12 13  1  1  0  0  0
 12 14  1  0  0  0  0
 14 15  1  1  0  0  0
 14 16  1  0  0  0  0
 16 27  1  6  0  0  0
 18 19  2  0  0  0  0
 18 23  1  0  0  0  0
 19 20  1  0  0  0  0
 20 21  2  0  0  0  0
 21 22  1  0  0  0  0
 21 27  1  0  0  0  0
 22 23  2  0  0  0  0
 22 25  1  0  0  0  0
 23 24  1  0  0  0  0
 25 26  2  0  0  0  0
 26 27  1  0  0  0  0
M  END
>  <CHROM.1>
155.31387380,-74.27090082,-63.03516623,-163.93020114,-79.70768637,155.72136937
62.22073368,47.08994819,56.34732196,30.45437083,-1.04831771,-1.09718458,-1.51076836

>  <Name>
ligand

>  <RI>
0

>  <Rbt.Current_Directory>
/home/itssahil/PROJECTS/Mol_Feturizer/New_Systems/rnas/3IQN

>  <Rbt.Executable>
rbdock ($Id: //depot/dev/client3/rdock/2013.1/src/exe/rbdock.cxx#4 $)

>  <Rbt.Library>
libRbt.so (2013.1, Build901 2013/11/27)

>  <Rbt.Parameter_File>
/export/apps/rDock/src/rDock_2013.1_src/data/scripts/dock_solv.prm

>  <Rbt.Receptor>
prm/pocket_docking_4.prm

>  <SCORE>
-14.3907

>  <SCORE.INTER>
-12.5032

>  <SCORE.INTER.CONST>
1

>  <SCORE.INTER.POLAR>
0

>  <SCORE.INTER.ROT>
7

>  <SCORE.INTER.SOLV>
12.1567

>  <SCORE.INTER.VDW>
-20.6543

>  <SCORE.INTER.norm>
-0.46308

>  <SCORE.INTRA>
-1.88977

>  <SCORE.INTRA.DIHEDRAL>
-2.40941

>  <SCORE.INTRA.DIHEDRAL.0>
10.0365

>  <SCORE.INTRA.POLAR>
0

>  <SCORE.INTRA.POLAR.0>
0

>  <SCORE.INTRA.REPUL>
0

>  <SCORE.INTRA.REPUL.0>
0

>  <SCORE.INTRA.SOLV>
3.22121

>  <SCORE.INTRA.SOLV.lig_0>
-48.6728

>  <SCORE.INTRA.VDW>
-2.29566

>  <SCORE.INTRA.VDW.0>
-1.10662

>  <SCORE.INTRA.norm>
-0.0699913

>  <SCORE.RESTR>
0.0022602

>  <SCORE.RESTR.CAVITY>
0.0022602

>  <SCORE.RESTR.norm>
8.3711e-05

>  <SCORE.SYSTEM>
0

>  <SCORE.SYSTEM.CONST>
0

>  <SCORE.SYSTEM.DIHEDRAL>
0

>  <SCORE.SYSTEM.SOLV>
0

>  <SCORE.SYSTEM.norm>
0

>  <SCORE.heavy>
27

>  <SCORE.norm>
-0.532987

>  <RMSD>
6.353

$$$$
ligand
 OpenBabel11021811483D
libRbt.so/2013.1/901 2013/11/27
 27 29  0  0  0  0  0  0  0  0999 V2000
   49.4066   54.4598   32.3022 N   0  0  0  0  0  0  0  0  0  0  0  0
   48.9992   54.1175   33.6712 C   0  0  2  0  0  0  0  0  0  0  0  0
   48.1213   52.9035   33.6159 C   0  0  0  0  0  0  0  0  0  0  0  0
   48.1630   52.0801   34.5162 O   0  0  0  0  0  0  0  0  0  0  0  0
   48.2218   55.2817   34.3033 C   0  0  0  0  0  0  0  0  0  0  0  0
   49.0751   56.5445   34.2284 C   0  0  0  0  0  0  0  0  0  0  0  0
   48.9909   57.3824   32.6134 S   0  0  2  0  0  0  0  0  0  0  0  0
   50.2160   58.7225   32.7296 C   0  0  0  0  0  0  0  0  0  0  0  0
   47.4804   58.4065   32.4895 C   0  0  0  0  0  0  0  0  0  0  0  0
   46.5187   57.5099   31.7489 C   0  0  1  0  0  0  0  0  0  0  0  0
   47.1941   57.1934   30.5765 O   0  0  0  0  0  0  0  0  0  0  0  0
   46.1482   56.1191   32.2661 C   0  0  1  0  0  0  0  0  0  0  0  0
   45.0229   56.1371   33.0968 O   0  0  0  0  0  0  0  0  0  0  0  0
   45.9065   55.3972   30.8551 C   0  0  1  0  0  0  0  0  0  0  0  0
   44.9409   56.0432   30.0127 O   0  0  0  0  0  0  0  0  0  0  0  0
   47.3441   55.7204   30.5186 C   0  0  1  0  0  0  0  0  0  0  0  0
   47.3561   52.7517   32.6767 O   0  0  0  0  0  0  0  0  0  0  0  0
   49.6562   52.0291   28.0091 N   0  0  0  0  0  0  0  0  0  0  0  0
   48.9011   52.0053   29.1085 C   0  0  0  0  0  0  0  0  0  0  0  0
   48.3284   53.1069   29.5921 N   0  0  0  0  0  0  0  0  0  0  0  0
   48.5902   54.3100   29.0641 C   0  0  0  0  0  0  0  0  0  0  0  0
   49.4507   54.3858   27.9228 C   0  0  0  0  0  0  0  0  0  0  0  0
   49.9727   53.1680   27.4063 C   0  0  0  0  0  0  0  0  0  0  0  0
   50.7871   53.1518   26.3089 N   0  0  0  0  0  0  0  0  0  0  0  0
   49.5565   55.6876   27.5921 N   0  0  0  0  0  0  0  0  0  0  0  0
   48.8451   56.4105   28.4288 C   0  0  0  0  0  0  0  0  0  0  0  0
   48.2080   55.6231   29.3562 N   0  0  0  0  0  0  0  0  0  0  0  0
  2  1  1  6  0  0  0
  2  3  1  0  0  0  0
  2  5  1  0  0  0  0
  3  4  1  0  0  0  0
  3 17  1  0  0  0  0
  5  6  1  0  0  0  0
  7  6  1  1  0  0  0
  7  8  1  0  0  0  0
  7  9  1  0  0  0  0
 10  9  1  1  0  0  0
 10 11  1  0  0  0  0
 10 12  1  0  0  0  0
 11 16  1  0  0  0  0
 12 13  1  1  0  0  0
 12 14  1  0  0  0  0
 14 15  1  6  0  0  0
 14 16  1  0  0  0  0
 16 27  1  6  0  0  0
 18 19  2  0  0  0  0
 18 23  1  0  0  0  0
 19 20  1  0  0  0  0
 20 21  2  0  0  0  0
 21 22  1  0  0  0  0
 21 27  1  0  0  0  0
 22 23  2  0  0  0  0
 22 25  1  0  0  0  0
 23 24  1  0  0  0  0
 25 26  2  0  0  0  0
 26 27  1  0  0  0  0
M  END
>  <CHROM.1>
145.45368187,-55.20408035,81.92621930,-173.98234820,-96.97796609,-56.19171705
177.45149607,48.19092267,55.20041098,31.08135549,-2.92611520,1.27305732,-0.72197862

>  <Name>
ligand

>  <RI>
0

>  <Rbt.Current_Directory>
/home/itssahil/PROJECTS/Mol_Feturizer/New_Systems/rnas/3IQN

>  <Rbt.Executable>
rbdock ($Id: //depot/dev/client3/rdock/2013.1/src/exe/rbdock.cxx#4 $)

>  <Rbt.Library>
libRbt.so (2013.1, Build901 2013/11/27)

>  <Rbt.Parameter_File>
/export/apps/rDock/src/rDock_2013.1_src/data/scripts/dock_solv.prm

>  <Rbt.Receptor>
prm/pocket_docking_7.prm

>  <SCORE>
-11.1575

>  <SCORE.INTER>
-10.114

>  <SCORE.INTER.CONST>
1

>  <SCORE.INTER.POLAR>
0

>  <SCORE.INTER.ROT>
7

>  <SCORE.INTER.SOLV>
5.00124

>  <SCORE.INTER.VDW>
-16.6764

>  <SCORE.INTER.norm>
-0.374591

>  <SCORE.INTRA>
-1.04352

>  <SCORE.INTRA.DIHEDRAL>
-2.23086

>  <SCORE.INTRA.DIHEDRAL.0>
10.0365

>  <SCORE.INTRA.POLAR>
0

>  <SCORE.INTRA.POLAR.0>
0

>  <SCORE.INTRA.REPUL>
0

>  <SCORE.INTRA.REPUL.0>
0

>  <SCORE.INTRA.SOLV>
5.21734

>  <SCORE.INTRA.SOLV.lig_0>
-48.6728

>  <SCORE.INTRA.VDW>
-2.53676

>  <SCORE.INTRA.VDW.0>
-1.10662

>  <SCORE.INTRA.norm>
-0.0386488

>  <SCORE.RESTR>
0

>  <SCORE.RESTR.CAVITY>
0

>  <SCORE.RESTR.norm>
0

>  <SCORE.SYSTEM>
0

>  <SCORE.SYSTEM.CONST>
0

>  <SCORE.SYSTEM.DIHEDRAL>
0

>  <SCORE.SYSTEM.SOLV>
0

>  <SCORE.SYSTEM.norm>
0

>  <SCORE.heavy>
27

>  <SCORE.norm>
-0.41324

>  <RMSD>
6.361

$$$$
ligand
 OpenBabel11021811483D
libRbt.so/2013.1/901 2013/11/27
 27 29  0  0  0  0  0  0  0  0999 V2000
   47.7715   53.2044   36.0651 N   0  0  0  0  0  0  0  0  0  0  0  0
   47.8952   54.2378   35.0287 C   0  0  2  0  0  0  0  0  0  0  0  0
   47.5384   53.6289   33.7060 C   0  0  0  0  0  0  0  0  0  0  0  0
   46.6746   54.1418   33.0125 O   0  0  0  0  0  0  0  0  0  0  0  0
   49.3353   54.7693   34.9746 C   0  0  0  0  0  0  0  0  0  0  0  0
   49.3026   56.2491   34.6039 C   0  0  0  0  0  0  0  0  0  0  0  0
   48.5864   56.5696   32.9602 S   0  0  2  0  0  0  0  0  0  0  0  0
   49.6175   55.6013   31.8158 C   0  0  0  0  0  0  0  0  0  0  0  0
   49.0293   58.2443   32.3727 C   0  0  0  0  0  0  0  0  0  0  0  0
   47.9083   58.5806   31.4202 C   0  0  1  0  0  0  0  0  0  0  0  0
   47.9416   57.5495   30.4894 O   0  0  0  0  0  0  0  0  0  0  0  0
   46.4418   58.5465   31.8530 C   0  0  1  0  0  0  0  0  0  0  0  0
   45.9965   59.7801   32.3395 O   0  0  0  0  0  0  0  0  0  0  0  0
   45.7896   58.1237   30.4507 C   0  0  1  0  0  0  0  0  0  0  0  0
   46.1122   58.9947   29.3567 O   0  0  0  0  0  0  0  0  0  0  0  0
   46.6266   56.8669   30.5159 C   0  0  1  0  0  0  0  0  0  0  0  0
   48.1255   52.6300   33.3210 O   0  0  0  0  0  0  0  0  0  0  0  0
   47.7500   56.2609   25.6539 N   0  0  0  0  0  0  0  0  0  0  0  0
   47.4477   57.3539   26.3563 C   0  0  0  0  0  0  0  0  0  0  0  0
   47.2289   57.3075   27.6698 N   0  0  0  0  0  0  0  0  0  0  0  0
   47.1800   56.1375   28.3207 C   0  0  0  0  0  0  0  0  0  0  0  0
   47.4330   54.9340   27.5884 C   0  0  0  0  0  0  0  0  0  0  0  0
   47.7340   55.0534   26.2037 C   0  0  0  0  0  0  0  0  0  0  0  0
   48.0050   53.9548   25.4373 N   0  0  0  0  0  0  0  0  0  0  0  0
   47.3207   53.9105   28.4574 N   0  0  0  0  0  0  0  0  0  0  0  0
   47.0180   54.3789   29.6481 C   0  0  0  0  0  0  0  0  0  0  0  0
   46.9303   55.7494   29.6408 N   0  0  0  0  0  0  0  0  0  0  0  0
  2  1  1  1  0  0  0
  2  3  1  0  0  0  0
  2  5  1  0  0  0  0
  3  4  1  0  0  0  0
  3 17  1  0  0  0  0
  5  6  1  0  0  0  0
  7  6  1  1  0  0  0
  7  8  1  0  0  0  0
  7  9  1  0  0  0  0
 10  9  1  1  0  0  0
 10 11  1  0  0  0  0
 10 12  1  0  0  0  0
 11 16  1  0  0  0  0
 12 13  1  6  0  0  0
 12 14  1  0  0  0  0
 14 15  1  6  0  0  0
 14 16  1  0  0  0  0
 16 27  1  6  0  0  0
 18 19  2  0  0  0  0
 18 23  1  0  0  0  0
 19 20  1  0  0  0  0
 20 21  2  0  0  0  0
 21 22  1  0  0  0  0
 21 27  1  0  0  0  0
 22 23  2  0  0  0  0
 22 25  1  0  0  0  0
 23 24  1  0  0  0  0
 25 26  2  0  0  0  0
 26 27  1  0  0  0  0
M  END
>  <CHROM.1>
125.62761035,-146.45387487,-62.17251821,-57.61722512,-154.31407269,-57.15612627
-66.27552857,47.63343491,56.07539966,30.89527389,-0.90303874,1.36709910,-2.05802891

>  <Name>
ligand

>  <RI>
0

>  <Rbt.Current_Directory>
/home/itssahil/PROJECTS/Mol_Feturizer/New_Systems/rnas/3IQN

>  <Rbt.Executable>
rbdock ($Id: //depot/dev/client3/rdock/2013.1/src/exe/rbdock.cxx#4 $)

>  <Rbt.Library>
libRbt.so (2013.1, Build901 2013/11/27)

>  <Rbt.Parameter_File>
/export/apps/rDock/src/rDock_2013.1_src/data/scripts/dock_solv.prm

>  <Rbt.Receptor>
prm/pocket_docking_3.prm

>  <SCORE>
-11.4329

>  <SCORE.INTER>
-9.60933

>  <SCORE.INTER.CONST>
1

>  <SCORE.INTER.POLAR>
0

>  <SCORE.INTER.ROT>
7

>  <SCORE.INTER.SOLV>
9.69846

>  <SCORE.INTER.VDW>
-17.9057

>  <SCORE.INTER.norm>
-0.355901

>  <SCORE.INTRA>
-1.83211

>  <SCORE.INTRA.DIHEDRAL>
-0.729789

>  <SCORE.INTRA.DIHEDRAL.0>
10.0365

>  <SCORE.INTRA.POLAR>
0

>  <SCORE.INTRA.POLAR.0>
0

>  <SCORE.INTRA.REPUL>
0

>  <SCORE.INTRA.REPUL.0>
0

>  <SCORE.INTRA.SOLV>
-0.385248

>  <SCORE.INTRA.SOLV.lig_0>
-48.6728

>  <SCORE.INTRA.VDW>
-1.27459

>  <SCORE.INTRA.VDW.0>
-1.10662

>  <SCORE.INTRA.norm>
-0.067856

>  <SCORE.RESTR>
0.00849991

>  <SCORE.RESTR.CAVITY>
0.00849991

>  <SCORE.RESTR.norm>
0.000314812

>  <SCORE.SYSTEM>
0

>  <SCORE.SYSTEM.CONST>
0

>  <SCORE.SYSTEM.DIHEDRAL>
0

>  <SCORE.SYSTEM.SOLV>
0

>  <SCORE.SYSTEM.norm>
0

>  <SCORE.heavy>
27

>  <SCORE.norm>
-0.423442

>  <RMSD>
6.403

$$$$
ligand
 OpenBabel11021811483D
libRbt.so/2013.1/901 2013/11/27
 27 29  0  0  0  0  0  0  0  0999 V2000
   48.2259   59.8222   32.6929 N   0  0  0  0  0  0  0  0  0  0  0  0
   47.4068   58.9928   31.7994 C   0  0  2  0  0  0  0  0  0  0  0  0
   46.2773   59.8291   31.2778 C   0  0  0  0  0  0  0  0  0  0  0  0
   45.7200   60.6276   32.0140 O   0  0  0  0  0  0  0  0  0  0  0  0
   46.8393   57.7866   32.5625 C   0  0  0  0  0  0  0  0  0  0  0  0
   47.9971   56.9770   33.1391 C   0  0  0  0  0  0  0  0  0  0  0  0
   47.4666   55.4556   33.9883 S   0  0  2  0  0  0  0  0  0  0  0  0
   48.9843   54.8070   34.7542 C   0  0  0  0  0  0  0  0  0  0  0  0
   47.1728   54.1082   32.7866 C   0  0  0  0  0  0  0  0  0  0  0  0
   45.9539   54.5812   32.0332 C   0  0  1  0  0  0  0  0  0  0  0  0
   46.3869   54.6601   30.7152 O   0  0  0  0  0  0  0  0  0  0  0  0
   44.7053   53.7102   31.8868 C   0  0  1  0  0  0  0  0  0  0  0  0
   43.7808   53.9193   32.9156 O   0  0  0  0  0  0  0  0  0  0  0  0
   44.2161   54.2347   30.4529 C   0  0  1  0  0  0  0  0  0  0  0  0
   44.0175   55.6537   30.3733 O   0  0  0  0  0  0  0  0  0  0  0  0
   45.5397   53.7575   29.9007 C   0  0  1  0  0  0  0  0  0  0  0  0
   45.9297   59.7186   30.1125 O   0  0  0  0  0  0  0  0  0  0  0  0
   49.4783   51.4520   27.7935 N   0  0  0  0  0  0  0  0  0  0  0  0
   48.9187   51.3124   28.9963 C   0  0  0  0  0  0  0  0  0  0  0  0
   47.8290   51.9937   29.3481 N   0  0  0  0  0  0  0  0  0  0  0  0
   47.3212   52.9434   28.5513 C   0  0  0  0  0  0  0  0  0  0  0  0
   47.9344   53.1709   27.2782 C   0  0  0  0  0  0  0  0  0  0  0  0
   49.0496   52.3612   26.9273 C   0  0  0  0  0  0  0  0  0  0  0  0
   49.6807   52.5027   25.7234 N   0  0  0  0  0  0  0  0  0  0  0  0
   47.2495   54.1653   26.6805 N   0  0  0  0  0  0  0  0  0  0  0  0
   46.2807   54.5671   27.4734 C   0  0  0  0  0  0  0  0  0  0  0  0
   46.2559   53.8450   28.6412 N   0  0  0  0  0  0  0  0  0  0  0  0
  2  1  1  1  0  0  0
  2  3  1  0  0  0  0
  2  5  1  0  0  0  0
  3  4  1  0  0  0  0
  3 17  1  0  0  0  0
  5  6  1  0  0  0  0
  7  6  1  6  0  0  0
  7  8  1  0  0  0  0
  7  9  1  0  0  0  0
 10  9  1  1  0  0  0
 10 11  1  0  0  0  0
 10 12  1  0  0  0  0
 11 16  1  0  0  0  0
 12 13  1  1  0  0  0
 12 14  1  0  0  0  0
 14 15  1  1  0  0  0
 14 16  1  0  0  0  0
 16 27  1  6  0  0  0
 18 19  2  0  0  0  0
 18 23  1  0  0  0  0
 19 20  1  0  0  0  0
 20 21  2  0  0  0  0
 21 22  1  0  0  0  0
 21 27  1  0  0  0  0
 22 23  2  0  0  0  0
 22 25  1  0  0  0  0
 23 24  1  0  0  0  0
 25 26  2  0  0  0  0
 26 27  1  0  0  0  0
M  END
>  <CHROM.1>
-38.88723734,-58.31960733,-176.51929395,-172.91015765,-68.06196094,120.28890831
85.60472090,46.89343343,55.16885573,30.65003309,-3.05984667,-1.38301480,2.36587516

>  <Name>
ligand

>  <RI>
0

>  <Rbt.Current_Directory>
/home/itssahil/PROJECTS/Mol_Feturizer/New_Systems/rnas/3IQN

>  <Rbt.Executable>
rbdock ($Id: //depot/dev/client3/rdock/2013.1/src/exe/rbdock.cxx#4 $)

>  <Rbt.Library>
libRbt.so (2013.1, Build901 2013/11/27)

>  <Rbt.Parameter_File>
/export/apps/rDock/src/rDock_2013.1_src/data/scripts/dock_solv.prm

>  <Rbt.Receptor>
prm/pocket_docking_5.prm

>  <SCORE>
-13.4009

>  <SCORE.INTER>
-10.6877

>  <SCORE.INTER.CONST>
1

>  <SCORE.INTER.POLAR>
0

>  <SCORE.INTER.ROT>
7

>  <SCORE.INTER.SOLV>
10.9269

>  <SCORE.INTER.VDW>
-19.0341

>  <SCORE.INTER.norm>
-0.39584

>  <SCORE.INTRA>
-2.71324

>  <SCORE.INTRA.DIHEDRAL>
-1.33015

>  <SCORE.INTRA.DIHEDRAL.0>
10.0365

>  <SCORE.INTRA.POLAR>
0

>  <SCORE.INTRA.POLAR.0>
0

>  <SCORE.INTRA.REPUL>
0

>  <SCORE.INTRA.REPUL.0>
0

>  <SCORE.INTRA.SOLV>
-0.289683

>  <SCORE.INTRA.SOLV.lig_0>
-48.6728

>  <SCORE.INTRA.VDW>
-1.90332

>  <SCORE.INTRA.VDW.0>
-1.10662

>  <SCORE.INTRA.norm>
-0.10049

>  <SCORE.RESTR>
0

>  <SCORE.RESTR.CAVITY>
0

>  <SCORE.RESTR.norm>
0

>  <SCORE.SYSTEM>
0

>  <SCORE.SYSTEM.CONST>
0

>  <SCORE.SYSTEM.DIHEDRAL>
0

>  <SCORE.SYSTEM.SOLV>
0

>  <SCORE.SYSTEM.norm>
0

>  <SCORE.heavy>
27

>  <SCORE.norm>
-0.496331

>  <RMSD>
6.406

$$$$
ligand
 OpenBabel11021811483D
libRbt.so/2013.1/901 2013/11/27
 27 29  0  0  0  0  0  0  0  0999 V2000
   49.2534   53.9681   33.2533 N   0  0  0  0  0  0  0  0  0  0  0  0
   49.2359   54.9426   34.3521 C   0  0  2  0  0  0  0  0  0  0  0  0
   48.9502   54.2125   35.6299 C   0  0  0  0  0  0  0  0  0  0  0  0
   49.2880   54.6982   36.6977 O   0  0  0  0  0  0  0  0  0  0  0  0
   48.1458   55.9978   34.1119 C   0  0  0  0  0  0  0  0  0  0  0  0
   46.8141   55.2894   33.8819 C   0  0  0  0  0  0  0  0  0  0  0  0
   45.3948   56.4267   33.7828 S   0  0  2  0  0  0  0  0  0  0  0  0
   43.9567   55.3415   33.5288 C   0  0  0  0  0  0  0  0  0  0  0  0
   45.3672   57.2939   32.1725 C   0  0  0  0  0  0  0  0  0  0  0  0
   46.5348   58.2442   32.2754 C   0  0  1  0  0  0  0  0  0  0  0  0
   47.6099   57.5036   31.7995 O   0  0  0  0  0  0  0  0  0  0  0  0
   46.6319   59.5025   31.4115 C   0  0  1  0  0  0  0  0  0  0  0  0
   46.0545   60.6201   32.0234 O   0  0  0  0  0  0  0  0  0  0  0  0
   48.2282   59.5803   31.2831 C   0  0  1  0  0  0  0  0  0  0  0  0
   48.9262   59.6112   32.5366 O   0  0  0  0  0  0  0  0  0  0  0  0
   48.1758   58.2178   30.6310 C   0  0  1  0  0  0  0  0  0  0  0  0
   48.3660   53.1409   35.5974 O   0  0  0  0  0  0  0  0  0  0  0  0
   49.2816   55.9104   26.3042 N   0  0  0  0  0  0  0  0  0  0  0  0
   48.3404   56.8059   26.6069 C   0  0  0  0  0  0  0  0  0  0  0  0
   48.2459   57.3430   27.8226 N   0  0  0  0  0  0  0  0  0  0  0  0
   49.0166   56.9114   28.8299 C   0  0  0  0  0  0  0  0  0  0  0  0
   49.9950   55.9019   28.5613 C   0  0  0  0  0  0  0  0  0  0  0  0
   50.0990   55.4202   27.2274 C   0  0  0  0  0  0  0  0  0  0  0  0
   51.0191   54.4698   26.8839 N   0  0  0  0  0  0  0  0  0  0  0  0
   50.6260   55.6425   29.7232 N   0  0  0  0  0  0  0  0  0  0  0  0
   50.1190   56.3961   30.6738 C   0  0  0  0  0  0  0  0  0  0  0  0
   49.1298   57.2167   30.1900 N   0  0  0  0  0  0  0  0  0  0  0  0
  2  1  1  6  0  0  0
  2  3  1  0  0  0  0
  2  5  1  0  0  0  0
  3  4  1  0  0  0  0
  3 17  1  0  0  0  0
  5  6  1  0  0  0  0
  7  6  1  6  0  0  0
  7  8  1  0  0  0  0
  7  9  1  0  0  0  0
 10  9  1  6  0  0  0
 10 11  1  0  0  0  0
 10 12  1  0  0  0  0
 11 16  1  0  0  0  0
 12 13  1  1  0  0  0
 12 14  1  0  0  0  0
 14 15  1  1  0  0  0
 14 16  1  0  0  0  0
 16 27  1  1  0  0  0
 18 19  2  0  0  0  0
 18 23  1  0  0  0  0
 19 20  1  0  0  0  0
 20 21  2  0  0  0  0
 21 22  1  0  0  0  0
 21 27  1  0  0  0  0
 22 23  2  0  0  0  0
 22 25  1  0  0  0  0
 23 24  1  0  0  0  0
 25 26  2  0  0  0  0
 26 27  1  0  0  0  0
M  END
>  <CHROM.1>
157.06235603,53.88816674,173.04327716,-179.38583616,-71.14620020,88.95095549
128.76909086,48.07358818,56.54593421,31.62341927,-2.04875880,0.84620793,-1.05699720

>  <Name>
ligand

>  <RI>
0

>  <Rbt.Current_Directory>
/home/itssahil/PROJECTS/Mol_Feturizer/New_Systems/rnas/3IQN

>  <Rbt.Executable>
rbdock ($Id: //depot/dev/client3/rdock/2013.1/src/exe/rbdock.cxx#4 $)

>  <Rbt.Library>
libRbt.so (2013.1, Build901 2013/11/27)

>  <Rbt.Parameter_File>
/export/apps/rDock/src/rDock_2013.1_src/data/scripts/dock_solv.prm

>  <Rbt.Receptor>
prm/pocket_docking_4.prm

>  <SCORE>
-24.7453

>  <SCORE.INTER>
-21.6953

>  <SCORE.INTER.CONST>
1

>  <SCORE.INTER.POLAR>
0

>  <SCORE.INTER.ROT>
7

>  <SCORE.INTER.SOLV>
12.7125

>  <SCORE.INTER.VDW>
-26.9677

>  <SCORE.INTER.norm>
-0.803531

>  <SCORE.INTRA>
-3.04992

>  <SCORE.INTRA.DIHEDRAL>
-3.93849

>  <SCORE.INTRA.DIHEDRAL.0>
10.0365

>  <SCORE.INTRA.POLAR>
0

>  <SCORE.INTRA.POLAR.0>
0

>  <SCORE.INTRA.REPUL>
0

>  <SCORE.INTRA.REPUL.0>
0

>  <SCORE.INTRA.SOLV>
0.161268

>  <SCORE.INTRA.SOLV.lig_0>
-48.6728

>  <SCORE.INTRA.VDW>
-1.16131

>  <SCORE.INTRA.VDW.0>
-1.10662

>  <SCORE.INTRA.norm>
-0.11296

>  <SCORE.RESTR>
0

>  <SCORE.RESTR.CAVITY>
0

>  <SCORE.RESTR.norm>
0

>  <SCORE.SYSTEM>
0

>  <SCORE.SYSTEM.CONST>
0

>  <SCORE.SYSTEM.DIHEDRAL>
0

>  <SCORE.SYSTEM.SOLV>
0

>  <SCORE.SYSTEM.norm>
0

>  <SCORE.heavy>
27

>  <SCORE.norm>
-0.916491

>  <RMSD>
6.420

$$$$
ligand
 OpenBabel11021811483D
libRbt.so/2013.1/901 2013/11/27
 27 29  0  0  0  0  0  0  0  0999 V2000
   49.2299   53.2892   34.1687 N   0  0  0  0  0  0  0  0  0  0  0  0
   48.6198   54.4588   33.5228 C   0  0  2  0  0  0  0  0  0  0  0  0
   48.9267   54.4054   32.0564 C   0  0  0  0  0  0  0  0  0  0  0  0
   48.0298   54.2037   31.2532 O   0  0  0  0  0  0  0  0  0  0  0  0
   49.1908   55.7548   34.1174 C   0  0  0  0  0  0  0  0  0  0  0  0
   48.2084   56.8930   33.8573 C   0  0  0  0  0  0  0  0  0  0  0  0
   48.2726   57.5316   32.1527 S   0  0  2  0  0  0  0  0  0  0  0  0
   49.6681   58.6991   32.1546 C   0  0  0  0  0  0  0  0  0  0  0  0
   46.9203   58.7266   31.8542 C   0  0  0  0  0  0  0  0  0  0  0  0
   45.7580   57.8412   31.4771 C   0  0  1  0  0  0  0  0  0  0  0  0
   46.0205   57.4908   30.1584 O   0  0  0  0  0  0  0  0  0  0  0  0
   45.5473   56.4676   32.1159 C   0  0  1  0  0  0  0  0  0  0  0  0
   44.7447   56.5248   33.2602 O   0  0  0  0  0  0  0  0  0  0  0  0
   44.8576   55.7295   30.8708 C   0  0  1  0  0  0  0  0  0  0  0  0
   43.6855   56.3846   30.3643 O   0  0  0  0  0  0  0  0  0  0  0  0
   46.1191   56.0139   30.0885 C   0  0  1  0  0  0  0  0  0  0  0  0
   50.0719   54.5797   31.6706 O   0  0  0  0  0  0  0  0  0  0  0  0
   46.6915   52.2481   26.8084 N   0  0  0  0  0  0  0  0  0  0  0  0
   46.2984   52.2509   28.0831 C   0  0  0  0  0  0  0  0  0  0  0  0
   46.1608   53.3819   28.7739 N   0  0  0  0  0  0  0  0  0  0  0  0
   46.5332   54.5588   28.2532 C   0  0  0  0  0  0  0  0  0  0  0  0
   47.0244   54.5896   26.9091 C   0  0  0  0  0  0  0  0  0  0  0  0
   47.0785   53.3602   26.1966 C   0  0  0  0  0  0  0  0  0  0  0  0
   47.5180   53.3060   24.9037 N   0  0  0  0  0  0  0  0  0  0  0  0
   47.3313   55.8712   26.6287 N   0  0  0  0  0  0  0  0  0  0  0  0
   47.0776   56.6213   27.6783 C   0  0  0  0  0  0  0  0  0  0  0  0
   46.5672   55.8785   28.7145 N   0  0  0  0  0  0  0  0  0  0  0  0
  2  1  1  1  0  0  0
  2  3  1  0  0  0  0
  2  5  1  0  0  0  0
  3  4  1  0  0  0  0
  3 17  1  0  0  0  0
  5  6  1  0  0  0  0
  7  6  1  1  0  0  0
  7  8  1  0  0  0  0
  7  9  1  0  0  0  0
 10  9  1  1  0  0  0
 10 11  1  0  0  0  0
 10 12  1  0  0  0  0
 11 16  1  0  0  0  0
 12 13  1  1  0  0  0
 12 14  1  0  0  0  0
 14 15  1  6  0  0  0
 14 16  1  0  0  0  0
 16 27  1  6  0  0  0
 18 19  2  0  0  0  0
 18 23  1  0  0  0  0
 19 20  1  0  0  0  0
 20 21  2  0  0  0  0
 21 22  1  0  0  0  0
 21 27  1  0  0  0  0
 22 23  2  0  0  0  0
 22 25  1  0  0  0  0
 23 24  1  0  0  0  0
 25 26  2  0  0  0  0
 26 27  1  0  0  0  0
M  END
>  <CHROM.1>
111.77224578,-158.21772723,-77.86646793,-82.53087462,-84.97228780,-77.55388311
-169.33811806,47.17222580,55.58884583,30.46522867,-1.30770929,0.77042744
-2.17604467

>  <Name>
ligand

>  <RI>
0

>  <Rbt.Current_Directory>
/home/itssahil/PROJECTS/Mol_Feturizer/New_Systems/rnas/3IQN

>  <Rbt.Executable>
rbdock ($Id: //depot/dev/client3/rdock/2013.1/src/exe/rbdock.cxx#4 $)

>  <Rbt.Library>
libRbt.so (2013.1, Build901 2013/11/27)

>  <Rbt.Parameter_File>
/export/apps/rDock/src/rDock_2013.1_src/data/scripts/dock_solv.prm

>  <Rbt.Receptor>
prm/pocket_docking_5.prm

>  <SCORE>
-12.6457

>  <SCORE.INTER>
-8.94649

>  <SCORE.INTER.CONST>
1

>  <SCORE.INTER.POLAR>
0

>  <SCORE.INTER.ROT>
7

>  <SCORE.INTER.SOLV>
10.0203

>  <SCORE.INTER.VDW>
-17.5711

>  <SCORE.INTER.norm>
-0.331351

>  <SCORE.INTRA>
-3.69922

>  <SCORE.INTRA.DIHEDRAL>
-1.47365

>  <SCORE.INTRA.DIHEDRAL.0>
10.0365

>  <SCORE.INTRA.POLAR>
0

>  <SCORE.INTRA.POLAR.0>
0

>  <SCORE.INTRA.REPUL>
0

>  <SCORE.INTRA.REPUL.0>
0

>  <SCORE.INTRA.SOLV>
-0.494168

>  <SCORE.INTRA.SOLV.lig_0>
-48.6728

>  <SCORE.INTRA.VDW>
-2.71531

>  <SCORE.INTRA.VDW.0>
-1.10662

>  <SCORE.INTRA.norm>
-0.137008

>  <SCORE.RESTR>
0

>  <SCORE.RESTR.CAVITY>
0

>  <SCORE.RESTR.norm>
0

>  <SCORE.SYSTEM>
0

>  <SCORE.SYSTEM.CONST>
0

>  <SCORE.SYSTEM.DIHEDRAL>
0

>  <SCORE.SYSTEM.SOLV>
0

>  <SCORE.SYSTEM.norm>
0

>  <SCORE.heavy>
27

>  <SCORE.norm>
-0.46836

>  <RMSD>
6.420

$$$$
ligand
 OpenBabel11021811483D
libRbt.so/2013.1/901 2013/11/27
 27 29  0  0  0  0  0  0  0  0999 V2000
   48.2289   52.4830   34.0940 N   0  0  0  0  0  0  0  0  0  0  0  0
   48.2744   53.9150   33.7707 C   0  0  2  0  0  0  0  0  0  0  0  0
   48.8675   54.6465   34.9372 C   0  0  0  0  0  0  0  0  0  0  0  0
   48.6298   54.2734   36.0750 O   0  0  0  0  0  0  0  0  0  0  0  0
   46.8587   54.4462   33.5008 C   0  0  0  0  0  0  0  0  0  0  0  0
   46.9531   55.9044   33.0614 C   0  0  0  0  0  0  0  0  0  0  0  0
   45.3482   56.6260   32.5914 S   0  0  2  0  0  0  0  0  0  0  0  0
   44.9528   55.8570   30.9906 C   0  0  0  0  0  0  0  0  0  0  0  0
   45.5529   58.3514   32.0197 C   0  0  0  0  0  0  0  0  0  0  0  0
   47.0498   58.4954   31.8950 C   0  0  1  0  0  0  0  0  0  0  0  0
   47.3797   57.6466   30.8455 O   0  0  0  0  0  0  0  0  0  0  0  0
   47.7013   59.8021   31.4397 C   0  0  1  0  0  0  0  0  0  0  0  0
   48.0100   60.6495   32.5090 O   0  0  0  0  0  0  0  0  0  0  0  0
   48.9853   59.1842   30.7046 C   0  0  1  0  0  0  0  0  0  0  0  0
   49.7868   58.3240   31.5276 O   0  0  0  0  0  0  0  0  0  0  0  0
   48.0282   58.4573   29.7882 C   0  0  1  0  0  0  0  0  0  0  0  0
   49.5993   55.6043   34.7428 O   0  0  0  0  0  0  0  0  0  0  0  0
   50.3325   54.0274   29.2090 N   0  0  0  0  0  0  0  0  0  0  0  0
   50.3520   54.9031   30.2151 C   0  0  0  0  0  0  0  0  0  0  0  0
   49.6170   56.0143   30.1944 N   0  0  0  0  0  0  0  0  0  0  0  0
   48.9210   56.3616   29.1036 C   0  0  0  0  0  0  0  0  0  0  0  0
   48.9281   55.4803   27.9758 C   0  0  0  0  0  0  0  0  0  0  0  0
   49.6715   54.2729   28.0849 C   0  0  0  0  0  0  0  0  0  0  0  0
   49.7153   53.3695   27.0605 N   0  0  0  0  0  0  0  0  0  0  0  0
   48.1681   56.0519   27.0215 N   0  0  0  0  0  0  0  0  0  0  0  0
   47.7040   57.2006   27.4617 C   0  0  0  0  0  0  0  0  0  0  0  0
   48.1169   57.4490   28.7477 N   0  0  0  0  0  0  0  0  0  0  0  0
  2  1  1  1  0  0  0
  2  3  1  0  0  0  0
  2  5  1  0  0  0  0
  3  4  1  0  0  0  0
  3 17  1  0  0  0  0
  5  6  1  0  0  0  0
  7  6  1  6  0  0  0
  7  8  1  0  0  0  0
  7  9  1  0  0  0  0
 10  9  1  6  0  0  0
 10 11  1  0  0  0  0
 10 12  1  0  0  0  0
 11 16  1  0  0  0  0
 12 13  1  1  0  0  0
 12 14  1  0  0  0  0
 14 15  1  1  0  0  0
 14 16  1  0  0  0  0
 16 27  1  6  0  0  0
 18 19  2  0  0  0  0
 18 23  1  0  0  0  0
 19 20  1  0  0  0  0
 20 21  2  0  0  0  0
 21 22  1  0  0  0  0
 21 27  1  0  0  0  0
 22 23  2  0  0  0  0
 22 25  1  0  0  0  0
 23 24  1  0  0  0  0
 25 26  2  0  0  0  0
 26 27  1  0  0  0  0
M  END
>  <CHROM.1>
-35.72955790,-175.55655236,175.83145826,-72.70116216,10.24552412,67.09702166
-62.62886825,48.05915635,56.33261919,31.25606290,-2.03919283,1.12854998,-1.00580020

>  <Name>
ligand

>  <RI>
0

>  <Rbt.Current_Directory>
/home/itssahil/PROJECTS/Mol_Feturizer/New_Systems/rnas/3IQN

>  <Rbt.Executable>
rbdock ($Id: //depot/dev/client3/rdock/2013.1/src/exe/rbdock.cxx#4 $)

>  <Rbt.Library>
libRbt.so (2013.1, Build901 2013/11/27)

>  <Rbt.Parameter_File>
/export/apps/rDock/src/rDock_2013.1_src/data/scripts/dock_solv.prm

>  <Rbt.Receptor>
prm/pocket_docking_2.prm

>  <SCORE>
-9.61304

>  <SCORE.INTER>
-10.275

>  <SCORE.INTER.CONST>
1

>  <SCORE.INTER.POLAR>
0

>  <SCORE.INTER.ROT>
7

>  <SCORE.INTER.SOLV>
11.7097

>  <SCORE.INTER.VDW>
-19.0199

>  <SCORE.INTER.norm>
-0.380556

>  <SCORE.INTRA>
-1.45974

>  <SCORE.INTRA.DIHEDRAL>
-2.67213

>  <SCORE.INTRA.DIHEDRAL.0>
10.0365

>  <SCORE.INTRA.POLAR>
0

>  <SCORE.INTRA.POLAR.0>
0

>  <SCORE.INTRA.REPUL>
0

>  <SCORE.INTRA.REPUL.0>
0

>  <SCORE.INTRA.SOLV>
-0.614531

>  <SCORE.INTRA.SOLV.lig_0>
-48.6728

>  <SCORE.INTRA.VDW>
0.183588

>  <SCORE.INTRA.VDW.0>
-1.10662

>  <SCORE.INTRA.norm>
-0.0540645

>  <SCORE.RESTR>
2.1217

>  <SCORE.RESTR.CAVITY>
2.1217

>  <SCORE.RESTR.norm>
0.0785816

>  <SCORE.SYSTEM>
0

>  <SCORE.SYSTEM.CONST>
0

>  <SCORE.SYSTEM.DIHEDRAL>
0

>  <SCORE.SYSTEM.SOLV>
0

>  <SCORE.SYSTEM.norm>
0

>  <SCORE.heavy>
27

>  <SCORE.norm>
-0.356039

>  <RMSD>
6.424

$$$$
ligand
 OpenBabel11021811483D
libRbt.so/2013.1/901 2013/11/27
 27 29  0  0  0  0  0  0  0  0999 V2000
   49.2388   53.9735   33.2685 N   0  0  0  0  0  0  0  0  0  0  0  0
   49.2147   54.9372   34.3766 C   0  0  2  0  0  0  0  0  0  0  0  0
   48.9051   54.1971   35.6430 C   0  0  0  0  0  0  0  0  0  0  0  0
   49.2385   54.6660   36.7197 O   0  0  0  0  0  0  0  0  0  0  0  0
   48.1374   56.0044   34.1320 C   0  0  0  0  0  0  0  0  0  0  0  0
   46.8061   55.3099   33.8607 C   0  0  0  0  0  0  0  0  0  0  0  0
   45.3932   56.4563   33.7780 S   0  0  2  0  0  0  0  0  0  0  0  0
   43.9496   55.3833   33.5043 C   0  0  0  0  0  0  0  0  0  0  0  0
   45.3727   57.3498   32.1820 C   0  0  0  0  0  0  0  0  0  0  0  0
   46.5642   58.2696   32.2893 C   0  0  1  0  0  0  0  0  0  0  0  0
   47.6116   57.5199   31.7684 O   0  0  0  0  0  0  0  0  0  0  0  0
   46.6730   59.5517   31.4626 C   0  0  1  0  0  0  0  0  0  0  0  0
   46.1345   60.6625   32.1205 O   0  0  0  0  0  0  0  0  0  0  0  0
   48.2677   59.5971   31.3029 C   0  0  1  0  0  0  0  0  0  0  0  0
   48.9917   59.5730   32.5418 O   0  0  0  0  0  0  0  0  0  0  0  0
   48.1701   58.2572   30.6106 C   0  0  1  0  0  0  0  0  0  0  0  0
   48.3059   53.1345   35.5924 O   0  0  0  0  0  0  0  0  0  0  0  0
   49.1186   56.0456   26.1972 N   0  0  0  0  0  0  0  0  0  0  0  0
   48.2046   56.9519   26.5475 C   0  0  0  0  0  0  0  0  0  0  0  0
   48.1518   57.4576   27.7790 N   0  0  0  0  0  0  0  0  0  0  0  0
   48.9378   56.9830   28.7547 C   0  0  0  0  0  0  0  0  0  0  0  0
   49.8874   55.9610   28.4345 C   0  0  0  0  0  0  0  0  0  0  0  0
   49.9480   55.5137   27.0860 C   0  0  0  0  0  0  0  0  0  0  0  0
   50.8386   54.5541   26.6941 N   0  0  0  0  0  0  0  0  0  0  0  0
   50.5413   55.6571   29.5726 N   0  0  0  0  0  0  0  0  0  0  0  0
   50.0743   56.3950   30.5556 C   0  0  0  0  0  0  0  0  0  0  0  0
   49.0913   57.2488   30.1190 N   0  0  0  0  0  0  0  0  0  0  0  0
  2  1  1  6  0  0  0
  2  3  1  0  0  0  0
  2  5  1  0  0  0  0
  3  4  1  0  0  0  0
  3 17  1  0  0  0  0
  5  6  1  0  0  0  0
  7  6  1  6  0  0  0
  7  8  1  0  0  0  0
  7  9  1  0  0  0  0
 10  9  1  6  0  0  0
 10 11  1  0  0  0  0
 10 12  1  0  0  0  0
 11 16  1  0  0  0  0
 12 13  1  1  0  0  0
 12 14  1  0  0  0  0
 14 15  1  1  0  0  0
 14 16  1  0  0  0  0
 16 27  1  1  0  0  0
 18 19  2  0  0  0  0
 18 23  1  0  0  0  0
 19 20  1  0  0  0  0
 20 21  2  0  0  0  0
 21 22  1  0  0  0  0
 21 27  1  0  0  0  0
 22 23  2  0  0  0  0
 22 25  1  0  0  0  0
 23 24  1  0  0  0  0
 25 26  2  0  0  0  0
 26 27  1  0  0  0  0
M  END
>  <CHROM.1>
156.69046134,53.23214868,172.12096919,-178.22531084,-69.90455306,90.04632233
128.41049639,48.03914236,56.58113013,31.59372780,-2.02068838,0.87014003,-1.05923419

>  <Name>
ligand

>  <RI>
0

>  <Rbt.Current_Directory>
/home/itssahil/PROJECTS/Mol_Feturizer/New_Systems/rnas/3IQN

>  <Rbt.Executable>
rbdock ($Id: //depot/dev/client3/rdock/2013.1/src/exe/rbdock.cxx#4 $)

>  <Rbt.Library>
libRbt.so (2013.1, Build901 2013/11/27)

>  <Rbt.Parameter_File>
/export/apps/rDock/src/rDock_2013.1_src/data/scripts/dock_solv.prm

>  <Rbt.Receptor>
prm/pocket_docking_4.prm

>  <SCORE>
-24.7268

>  <SCORE.INTER>
-21.6903

>  <SCORE.INTER.CONST>
1

>  <SCORE.INTER.POLAR>
0

>  <SCORE.INTER.ROT>
7

>  <SCORE.INTER.SOLV>
12.9364

>  <SCORE.INTER.VDW>
-27.039

>  <SCORE.INTER.norm>
-0.803343

>  <SCORE.INTRA>
-3.0365

>  <SCORE.INTRA.DIHEDRAL>
-3.69279

>  <SCORE.INTRA.DIHEDRAL.0>
10.0365

>  <SCORE.INTRA.POLAR>
0

>  <SCORE.INTRA.POLAR.0>
0

>  <SCORE.INTRA.REPUL>
0

>  <SCORE.INTRA.REPUL.0>
0

>  <SCORE.INTRA.SOLV>
0.0967332

>  <SCORE.INTRA.SOLV.lig_0>
-48.6728

>  <SCORE.INTRA.VDW>
-1.23847

>  <SCORE.INTRA.VDW.0>
-1.10662

>  <SCORE.INTRA.norm>
-0.112463

>  <SCORE.RESTR>
0

>  <SCORE.RESTR.CAVITY>
0

>  <SCORE.RESTR.norm>
0

>  <SCORE.SYSTEM>
0

>  <SCORE.SYSTEM.CONST>
0

>  <SCORE.SYSTEM.DIHEDRAL>
0

>  <SCORE.SYSTEM.SOLV>
0

>  <SCORE.SYSTEM.norm>
0

>  <SCORE.heavy>
27

>  <SCORE.norm>
-0.915806

>  <RMSD>
6.424

$$$$
ligand
 OpenBabel11021811483D
libRbt.so/2013.1/901 2013/11/27
 27 29  0  0  0  0  0  0  0  0999 V2000
   49.2665   53.9385   33.3214 N   0  0  0  0  0  0  0  0  0  0  0  0
   49.2464   54.9338   34.4013 C   0  0  2  0  0  0  0  0  0  0  0  0
   48.9345   54.2315   35.6886 C   0  0  0  0  0  0  0  0  0  0  0  0
   49.2497   54.7409   36.7523 O   0  0  0  0  0  0  0  0  0  0  0  0
   48.1728   55.9974   34.1265 C   0  0  0  0  0  0  0  0  0  0  0  0
   46.8506   55.2985   33.8236 C   0  0  0  0  0  0  0  0  0  0  0  0
   45.4313   56.4368   33.7380 S   0  0  2  0  0  0  0  0  0  0  0  0
   43.9929   55.3543   33.4736 C   0  0  0  0  0  0  0  0  0  0  0  0
   45.4022   57.3213   32.1371 C   0  0  0  0  0  0  0  0  0  0  0  0
   46.5652   58.2759   32.2523 C   0  0  1  0  0  0  0  0  0  0  0  0
   47.6504   57.5344   31.8015 O   0  0  0  0  0  0  0  0  0  0  0  0
   46.6738   59.5271   31.3795 C   0  0  1  0  0  0  0  0  0  0  0  0
   46.0827   60.6481   31.9718 O   0  0  0  0  0  0  0  0  0  0  0  0
   48.2718   59.6086   31.2783 C   0  0  1  0  0  0  0  0  0  0  0  0
   48.9477   59.6521   32.5435 O   0  0  0  0  0  0  0  0  0  0  0  0
   48.2346   58.2405   30.6370 C   0  0  1  0  0  0  0  0  0  0  0  0
   48.3518   53.1588   35.6675 O   0  0  0  0  0  0  0  0  0  0  0  0
   49.3867   55.8607   26.3617 N   0  0  0  0  0  0  0  0  0  0  0  0
   48.4369   56.7547   26.6413 C   0  0  0  0  0  0  0  0  0  0  0  0
   48.3302   57.3137   27.8461 N   0  0  0  0  0  0  0  0  0  0  0  0
   49.0972   56.9069   28.8664 C   0  0  0  0  0  0  0  0  0  0  0  0
   50.0849   55.8999   28.6233 C   0  0  0  0  0  0  0  0  0  0  0  0
   50.2015   55.3941   27.2993 C   0  0  0  0  0  0  0  0  0  0  0  0
   51.1308   54.4445   26.9799 N   0  0  0  0  0  0  0  0  0  0  0  0
   50.7099   55.6671   29.7939 N   0  0  0  0  0  0  0  0  0  0  0  0
   50.1910   56.4346   30.7269 C   0  0  0  0  0  0  0  0  0  0  0  0
   49.1990   57.2385   30.2212 N   0  0  0  0  0  0  0  0  0  0  0  0
  2  1  1  6  0  0  0
  2  3  1  0  0  0  0
  2  5  1  0  0  0  0
  3  4  1  0  0  0  0
  3 17  1  0  0  0  0
  5  6  1  0  0  0  0
  7  6  1  6  0  0  0
  7  8  1  0  0  0  0
  7  9  1  0  0  0  0
 10  9  1  6  0  0  0
 10 11  1  0  0  0  0
 10 12  1  0  0  0  0
 11 16  1  0  0  0  0
 12 13  1  1  0  0  0
 12 14  1  0  0  0  0
 14 15  1  1  0  0  0
 14 16  1  0  0  0  0
 16 27  1  1  0  0  0
 18 19  2  0  0  0  0
 18 23  1  0  0  0  0
 19 20  1  0  0  0  0
 20 21  2  0  0  0  0
 21 22  1  0  0  0  0
 21 27  1  0  0  0  0
 22 23  2  0  0  0  0
 22 25  1  0  0  0  0
 23 24  1  0  0  0  0
 25 26  2  0  0  0  0
 26 27  1  0  0  0  0
M  END
>  <CHROM.1>
157.94134106,51.11730490,170.85871925,-176.61991096,-71.45022527,87.51967240
127.87528633,48.11910998,56.55444998,31.64017516,-2.06156329,0.84408294,-1.04586971

>  <Name>
ligand

>  <RI>
0

>  <Rbt.Current_Directory>
/home/itssahil/PROJECTS/Mol_Feturizer/New_Systems/rnas/3IQN

>  <Rbt.Executable>
rbdock ($Id: //depot/dev/client3/rdock/2013.1/src/exe/rbdock.cxx#4 $)

>  <Rbt.Library>
libRbt.so (2013.1, Build901 2013/11/27)

>  <Rbt.Parameter_File>
/export/apps/rDock/src/rDock_2013.1_src/data/scripts/dock_solv.prm

>  <Rbt.Receptor>
prm/pocket_docking_4.prm

>  <SCORE>
-24.8452

>  <SCORE.INTER>
-21.816

>  <SCORE.INTER.CONST>
1

>  <SCORE.INTER.POLAR>
0

>  <SCORE.INTER.ROT>
7

>  <SCORE.INTER.SOLV>
12.8493

>  <SCORE.INTER.VDW>
-27.0937

>  <SCORE.INTER.norm>
-0.807998

>  <SCORE.INTRA>
-3.02928

>  <SCORE.INTRA.DIHEDRAL>
-3.67594

>  <SCORE.INTRA.DIHEDRAL.0>
10.0365

>  <SCORE.INTRA.POLAR>
0

>  <SCORE.INTRA.POLAR.0>
0

>  <SCORE.INTRA.REPUL>
0

>  <SCORE.INTRA.REPUL.0>
0

>  <SCORE.INTRA.SOLV>
0.0936376

>  <SCORE.INTRA.SOLV.lig_0>
-48.6728

>  <SCORE.INTRA.VDW>
-1.23813

>  <SCORE.INTRA.VDW.0>
-1.10662

>  <SCORE.INTRA.norm>
-0.112195

>  <SCORE.RESTR>
0

>  <SCORE.RESTR.CAVITY>
0

>  <SCORE.RESTR.norm>
0

>  <SCORE.SYSTEM>
0

>  <SCORE.SYSTEM.CONST>
0

>  <SCORE.SYSTEM.DIHEDRAL>
0

>  <SCORE.SYSTEM.SOLV>
0

>  <SCORE.SYSTEM.norm>
0

>  <SCORE.heavy>
27

>  <SCORE.norm>
-0.920194

>  <RMSD>
6.432

$$$$
ligand
 OpenBabel11021811483D
libRbt.so/2013.1/901 2013/11/27
 27 29  0  0  0  0  0  0  0  0999 V2000
   49.2490   53.9044   33.3290 N   0  0  0  0  0  0  0  0  0  0  0  0
   49.2453   54.9068   34.4026 C   0  0  2  0  0  0  0  0  0  0  0  0
   48.9404   54.2151   35.6972 C   0  0  0  0  0  0  0  0  0  0  0  0
   48.3083   53.1707   35.6958 O   0  0  0  0  0  0  0  0  0  0  0  0
   48.1764   55.9758   34.1305 C   0  0  0  0  0  0  0  0  0  0  0  0
   46.8409   55.2849   33.8712 C   0  0  0  0  0  0  0  0  0  0  0  0
   45.4310   56.4356   33.7974 S   0  0  2  0  0  0  0  0  0  0  0  0
   43.9796   55.3650   33.5571 C   0  0  0  0  0  0  0  0  0  0  0  0
   45.3896   57.3119   32.1923 C   0  0  0  0  0  0  0  0  0  0  0  0
   46.5525   58.2680   32.2942 C   0  0  1  0  0  0  0  0  0  0  0  0
   47.6345   57.5263   31.8361 O   0  0  0  0  0  0  0  0  0  0  0  0
   46.6521   59.5167   31.4167 C   0  0  1  0  0  0  0  0  0  0  0  0
   46.0651   60.6389   32.0107 O   0  0  0  0  0  0  0  0  0  0  0  0
   48.2491   59.5995   31.3010 C   0  0  1  0  0  0  0  0  0  0  0  0
   48.9361   59.6476   32.5601 O   0  0  0  0  0  0  0  0  0  0  0  0
   48.2077   58.2294   30.6643 C   0  0  1  0  0  0  0  0  0  0  0  0
   49.3401   54.6923   36.7476 O   0  0  0  0  0  0  0  0  0  0  0  0
   49.3378   55.8526   26.3815 N   0  0  0  0  0  0  0  0  0  0  0  0
   48.3899   56.7469   26.6664 C   0  0  0  0  0  0  0  0  0  0  0  0
   48.2894   57.3050   27.8721 N   0  0  0  0  0  0  0  0  0  0  0  0
   49.0609   56.8968   28.8885 C   0  0  0  0  0  0  0  0  0  0  0  0
   50.0467   55.8893   28.6398 C   0  0  0  0  0  0  0  0  0  0  0  0
   50.1567   55.3846   27.3149 C   0  0  0  0  0  0  0  0  0  0  0  0
   51.0839   54.4346   26.9902 N   0  0  0  0  0  0  0  0  0  0  0  0
   50.6772   55.6551   29.8072 N   0  0  0  0  0  0  0  0  0  0  0  0
   50.1632   56.4221   30.7433 C   0  0  0  0  0  0  0  0  0  0  0  0
   49.1694   57.2271   30.2430 N   0  0  0  0  0  0  0  0  0  0  0  0
  2  1  1  6  0  0  0
  2  3  1  0  0  0  0
  2  5  1  0  0  0  0
  3  4  1  0  0  0  0
  3 17  1  0  0  0  0
  5  6  1  0  0  0  0
  7  6  1  6  0  0  0
  7  8  1  0  0  0  0
  7  9  1  0  0  0  0
 10  9  1  6  0  0  0
 10 11  1  0  0  0  0
 10 12  1  0  0  0  0
 11 16  1  0  0  0  0
 12 13  1  1  0  0  0
 12 14  1  0  0  0  0
 14 15  1  1  0  0  0
 14 16  1  0  0  0  0
 16 27  1  1  0  0  0
 18 19  2  0  0  0  0
 18 23  1  0  0  0  0
 19 20  1  0  0  0  0
 20 21  2  0  0  0  0
 21 22  1  0  0  0  0
 21 27  1  0  0  0  0
 22 23  2  0  0  0  0
 22 25  1  0  0  0  0
 23 24  1  0  0  0  0
 25 26  2  0  0  0  0
 26 27  1  0  0  0  0
M  END
>  <CHROM.1>
-25.56422078,52.22016891,170.75473934,-177.58235665,-72.10070229,87.67014589
128.21709062,48.10158047,56.54349155,31.66785794,-2.05497788,0.84671133,-1.05029556

>  <Name>
ligand

>  <RI>
0

>  <Rbt.Current_Directory>
/home/itssahil/PROJECTS/Mol_Feturizer/New_Systems/rnas/3IQN

>  <Rbt.Executable>
rbdock ($Id: //depot/dev/client3/rdock/2013.1/src/exe/rbdock.cxx#4 $)

>  <Rbt.Library>
libRbt.so (2013.1, Build901 2013/11/27)

>  <Rbt.Parameter_File>
/export/apps/rDock/src/rDock_2013.1_src/data/scripts/dock_solv.prm

>  <Rbt.Receptor>
prm/pocket_docking_5.prm

>  <SCORE>
-24.8459

>  <SCORE.INTER>
-21.7893

>  <SCORE.INTER.CONST>
1

>  <SCORE.INTER.POLAR>
0

>  <SCORE.INTER.ROT>
7

>  <SCORE.INTER.SOLV>
12.7976

>  <SCORE.INTER.VDW>
-27.0588

>  <SCORE.INTER.norm>
-0.807013

>  <SCORE.INTRA>
-3.05653

>  <SCORE.INTRA.DIHEDRAL>
-3.68959

>  <SCORE.INTRA.DIHEDRAL.0>
10.0365

>  <SCORE.INTRA.POLAR>
0

>  <SCORE.INTRA.POLAR.0>
0

>  <SCORE.INTRA.REPUL>
0

>  <SCORE.INTRA.REPUL.0>
0

>  <SCORE.INTRA.SOLV>
0.0701562

>  <SCORE.INTRA.SOLV.lig_0>
-48.6728

>  <SCORE.INTRA.VDW>
-1.24681

>  <SCORE.INTRA.VDW.0>
-1.10662

>  <SCORE.INTRA.norm>
-0.113205

>  <SCORE.RESTR>
0

>  <SCORE.RESTR.CAVITY>
0

>  <SCORE.RESTR.norm>
0

>  <SCORE.SYSTEM>
0

>  <SCORE.SYSTEM.CONST>
0

>  <SCORE.SYSTEM.DIHEDRAL>
0

>  <SCORE.SYSTEM.SOLV>
0

>  <SCORE.SYSTEM.norm>
0

>  <SCORE.heavy>
27

>  <SCORE.norm>
-0.920218

>  <RMSD>
6.432

$$$$
ligand
 OpenBabel11021811483D
libRbt.so/2013.1/901 2013/11/27
 27 29  0  0  0  0  0  0  0  0999 V2000
   49.2749   58.6409   30.8656 N   0  0  0  0  0  0  0  0  0  0  0  0
   48.2171   58.6502   31.8846 C   0  0  2  0  0  0  0  0  0  0  0  0
   47.2429   59.7387   31.5480 C   0  0  0  0  0  0  0  0  0  0  0  0
   46.0527   59.5805   31.7682 O   0  0  0  0  0  0  0  0  0  0  0  0
   48.8172   58.9132   33.2739 C   0  0  0  0  0  0  0  0  0  0  0  0
   49.5874   57.6747   33.7224 C   0  0  0  0  0  0  0  0  0  0  0  0
   48.6120   56.1395   33.6266 S   0  0  2  0  0  0  0  0  0  0  0  0
   49.2729   55.0944   34.9612 C   0  0  0  0  0  0  0  0  0  0  0  0
   49.1381   55.1222   32.2004 C   0  0  0  0  0  0  0  0  0  0  0  0
   47.8292   54.6686   31.6021 C   0  0  1  0  0  0  0  0  0  0  0  0
   48.2016   54.0559   30.4119 O   0  0  0  0  0  0  0  0  0  0  0  0
   46.9802   53.5738   32.2499 C   0  0  1  0  0  0  0  0  0  0  0  0
   46.0447   54.0848   33.1557 O   0  0  0  0  0  0  0  0  0  0  0  0
   46.3316   52.9572   30.9195 C   0  0  1  0  0  0  0  0  0  0  0  0
   45.6326   53.9071   30.1018 O   0  0  0  0  0  0  0  0  0  0  0  0
   47.7370   52.6495   30.4566 C   0  0  1  0  0  0  0  0  0  0  0  0
   47.6472   60.7864   31.0688 O   0  0  0  0  0  0  0  0  0  0  0  0
   46.5984   52.5075   25.5625 N   0  0  0  0  0  0  0  0  0  0  0  0
   45.9098   52.9587   26.6121 C   0  0  0  0  0  0  0  0  0  0  0  0
   46.4200   52.9528   27.8430 N   0  0  0  0  0  0  0  0  0  0  0  0
   47.6020   52.3759   28.0977 C   0  0  0  0  0  0  0  0  0  0  0  0
   48.3430   51.8193   27.0069 C   0  0  0  0  0  0  0  0  0  0  0  0
   47.7805   51.9218   25.7049 C   0  0  0  0  0  0  0  0  0  0  0  0
   48.4319   51.4320   24.6079 N   0  0  0  0  0  0  0  0  0  0  0  0
   49.4764   51.3028   27.5205 N   0  0  0  0  0  0  0  0  0  0  0  0
   49.4912   51.4887   28.8220 C   0  0  0  0  0  0  0  0  0  0  0  0
   48.3706   52.1598   29.2459 N   0  0  0  0  0  0  0  0  0  0  0  0
  2  1  1  6  0  0  0
  2  3  1  0  0  0  0
  2  5  1  0  0  0  0
  3  4  1  0  0  0  0
  3 17  1  0  0  0  0
  5  6  1  0  0  0  0
  7  6  1  6  0  0  0
  7  8  1  0  0  0  0
  7  9  1  0  0  0  0
 10  9  1  1  0  0  0
 10 11  1  0  0  0  0
 10 12  1  0  0  0  0
 11 16  1  0  0  0  0
 12 13  1  1  0  0  0
 12 14  1  0  0  0  0
 14 15  1  6  0  0  0
 14 16  1  0  0  0  0
 16 27  1  6  0  0  0
 18 19  2  0  0  0  0
 18 23  1  0  0  0  0
 19 20  1  0  0  0  0
 20 21  2  0  0  0  0
 21 22  1  0  0  0  0
 21 27  1  0  0  0  0
 22 23  2  0  0  0  0
 22 25  1  0  0  0  0
 23 24  1  0  0  0  0
 25 26  2  0  0  0  0
 26 27  1  0  0  0  0
M  END
>  <CHROM.1>
144.40576371,-71.79075894,-52.33664250,-149.52614767,-136.29813649,171.78775528
-86.13312508,47.83688910,54.86564249,30.43255790,1.29049593,-1.36890750,0.47743164

>  <Name>
ligand

>  <RI>
0

>  <Rbt.Current_Directory>
/home/itssahil/PROJECTS/Mol_Feturizer/New_Systems/rnas/3IQN

>  <Rbt.Executable>
rbdock ($Id: //depot/dev/client3/rdock/2013.1/src/exe/rbdock.cxx#4 $)

>  <Rbt.Library>
libRbt.so (2013.1, Build901 2013/11/27)

>  <Rbt.Parameter_File>
/export/apps/rDock/src/rDock_2013.1_src/data/scripts/dock_solv.prm

>  <Rbt.Receptor>
prm/pocket_docking_7.prm

>  <SCORE>
-14.0599

>  <SCORE.INTER>
-13.5951

>  <SCORE.INTER.CONST>
1

>  <SCORE.INTER.POLAR>
0

>  <SCORE.INTER.ROT>
7

>  <SCORE.INTER.SOLV>
16.9458

>  <SCORE.INTER.VDW>
-22.9787

>  <SCORE.INTER.norm>
-0.503523

>  <SCORE.INTRA>
-0.464777

>  <SCORE.INTRA.DIHEDRAL>
1.37616

>  <SCORE.INTRA.DIHEDRAL.0>
10.0365

>  <SCORE.INTRA.POLAR>
0

>  <SCORE.INTRA.POLAR.0>
0

>  <SCORE.INTRA.REPUL>
0

>  <SCORE.INTRA.REPUL.0>
0

>  <SCORE.INTRA.SOLV>
1.4774

>  <SCORE.INTRA.SOLV.lig_0>
-48.6728

>  <SCORE.INTRA.VDW>
-1.89155

>  <SCORE.INTRA.VDW.0>
-1.10662

>  <SCORE.INTRA.norm>
-0.017214

>  <SCORE.RESTR>
0

>  <SCORE.RESTR.CAVITY>
0

>  <SCORE.RESTR.norm>
0

>  <SCORE.SYSTEM>
0

>  <SCORE.SYSTEM.CONST>
0

>  <SCORE.SYSTEM.DIHEDRAL>
0

>  <SCORE.SYSTEM.SOLV>
0

>  <SCORE.SYSTEM.norm>
0

>  <SCORE.heavy>
27

>  <SCORE.norm>
-0.520737

>  <RMSD>
6.432

$$$$
ligand
 OpenBabel11021811483D
libRbt.so/2013.1/901 2013/11/27
 27 29  0  0  0  0  0  0  0  0999 V2000
   47.1495   51.7834   36.4737 N   0  0  0  0  0  0  0  0  0  0  0  0
   46.6380   52.8938   35.6596 C   0  0  2  0  0  0  0  0  0  0  0  0
   45.1417   52.8079   35.6258 C   0  0  0  0  0  0  0  0  0  0  0  0
   44.5897   51.7302   35.7804 O   0  0  0  0  0  0  0  0  0  0  0  0
   47.1874   52.8028   34.2281 C   0  0  0  0  0  0  0  0  0  0  0  0
   47.1572   54.1920   33.5977 C   0  0  0  0  0  0  0  0  0  0  0  0
   48.7106   55.1191   33.8102 S   0  0  2  0  0  0  0  0  0  0  0  0
   49.1622   54.8604   35.5536 C   0  0  0  0  0  0  0  0  0  0  0  0
   48.3903   56.9188   33.8777 C   0  0  0  0  0  0  0  0  0  0  0  0
   48.6525   57.3665   32.4607 C   0  0  1  0  0  0  0  0  0  0  0  0
   47.6041   56.8119   31.7369 O   0  0  0  0  0  0  0  0  0  0  0  0
   48.5584   58.8358   32.0465 C   0  0  1  0  0  0  0  0  0  0  0  0
   49.7799   59.5070   32.1664 O   0  0  0  0  0  0  0  0  0  0  0  0
   48.0749   58.6255   30.5323 C   0  0  1  0  0  0  0  0  0  0  0  0
   48.9363   57.7932   29.7418 O   0  0  0  0  0  0  0  0  0  0  0  0
   46.8608   57.9176   31.0882 C   0  0  1  0  0  0  0  0  0  0  0  0
   44.4806   53.8208   35.4592 O   0  0  0  0  0  0  0  0  0  0  0  0
   43.1380   55.1279   32.9926 N   0  0  0  0  0  0  0  0  0  0  0  0
   44.1542   55.7585   33.5835 C   0  0  0  0  0  0  0  0  0  0  0  0
   45.0183   56.5009   32.8925 N   0  0  0  0  0  0  0  0  0  0  0  0
   44.9761   56.5435   31.5541 C   0  0  0  0  0  0  0  0  0  0  0  0
   43.9397   55.8250   30.8772 C   0  0  0  0  0  0  0  0  0  0  0  0
   43.0020   55.1108   31.6727 C   0  0  0  0  0  0  0  0  0  0  0  0
   41.9724   54.4140   31.1053 N   0  0  0  0  0  0  0  0  0  0  0  0
   44.1184   56.0221   29.5564 N   0  0  0  0  0  0  0  0  0  0  0  0
   45.1696   56.7889   29.3671 C   0  0  0  0  0  0  0  0  0  0  0  0
   45.7402   57.1617   30.5593 N   0  0  0  0  0  0  0  0  0  0  0  0
  2  1  1  1  0  0  0
  2  3  1  0  0  0  0
  2  5  1  0  0  0  0
  3  4  1  0  0  0  0
  3 17  1  0  0  0  0
  5  6  1  0  0  0  0
  7  6  1  1  0  0  0
  7  8  1  0  0  0  0
  7  9  1  0  0  0  0
 10  9  1  1  0  0  0
 10 11  1  0  0  0  0
 10 12  1  0  0  0  0
 11 16  1  0  0  0  0
 12 13  1  6  0  0  0
 12 14  1  0  0  0  0
 14 15  1  6  0  0  0
 14 16  1  0  0  0  0
 16 27  1  6  0  0  0
 18 19  2  0  0  0  0
 18 23  1  0  0  0  0
 19 20  1  0  0  0  0
 20 21  2  0  0  0  0
 21 22  1  0  0  0  0
 21 27  1  0  0  0  0
 22 23  2  0  0  0  0
 22 25  1  0  0  0  0
 23 24  1  0  0  0  0
 25 26  2  0  0  0  0
 26 27  1  0  0  0  0
M  END
>  <CHROM.1>
-26.08419566,-156.18323958,92.44898310,-44.77645061,-96.87546564,69.29845224
61.78878548,46.41452713,55.63475459,32.82787909,-1.91993619,-0.36352105,-0.82392911

>  <Name>
ligand

>  <RI>
0

>  <Rbt.Current_Directory>
/home/itssahil/PROJECTS/Mol_Feturizer/New_Systems/rnas/3IQN

>  <Rbt.Executable>
rbdock ($Id: //depot/dev/client3/rdock/2013.1/src/exe/rbdock.cxx#4 $)

>  <Rbt.Library>
libRbt.so (2013.1, Build901 2013/11/27)

>  <Rbt.Parameter_File>
/export/apps/rDock/src/rDock_2013.1_src/data/scripts/dock_solv.prm

>  <Rbt.Receptor>
prm/pocket_docking_7.prm

>  <SCORE>
-13.6533

>  <SCORE.INTER>
-12.9582

>  <SCORE.INTER.CONST>
1

>  <SCORE.INTER.POLAR>
0

>  <SCORE.INTER.ROT>
7

>  <SCORE.INTER.SOLV>
13.1327

>  <SCORE.INTER.VDW>
-21.283

>  <SCORE.INTER.norm>
-0.479934

>  <SCORE.INTRA>
-0.695134

>  <SCORE.INTRA.DIHEDRAL>
2.3147

>  <SCORE.INTRA.DIHEDRAL.0>
10.0365

>  <SCORE.INTRA.POLAR>
0

>  <SCORE.INTRA.POLAR.0>
0

>  <SCORE.INTRA.REPUL>
0

>  <SCORE.INTRA.REPUL.0>
0

>  <SCORE.INTRA.SOLV>
-0.186919

>  <SCORE.INTRA.SOLV.lig_0>
-48.6728

>  <SCORE.INTRA.VDW>
-1.75902

>  <SCORE.INTRA.VDW.0>
-1.10662

>  <SCORE.INTRA.norm>
-0.0257457

>  <SCORE.RESTR>
0

>  <SCORE.RESTR.CAVITY>
0

>  <SCORE.RESTR.norm>
0

>  <SCORE.SYSTEM>
0

>  <SCORE.SYSTEM.CONST>
0

>  <SCORE.SYSTEM.DIHEDRAL>
0

>  <SCORE.SYSTEM.SOLV>
0

>  <SCORE.SYSTEM.norm>
0

>  <SCORE.heavy>
27

>  <SCORE.norm>
-0.505679

>  <RMSD>
6.442

$$$$
ligand
 OpenBabel11021811483D
libRbt.so/2013.1/901 2013/11/27
 27 29  0  0  0  0  0  0  0  0999 V2000
   46.4635   58.0809   31.1519 N   0  0  0  0  0  0  0  0  0  0  0  0
   46.6574   59.2392   32.0341 C   0  0  2  0  0  0  0  0  0  0  0  0
   45.9200   60.4077   31.4526 C   0  0  0  0  0  0  0  0  0  0  0  0
   45.7834   60.5013   30.2431 O   0  0  0  0  0  0  0  0  0  0  0  0
   48.1508   59.5812   32.1448 C   0  0  0  0  0  0  0  0  0  0  0  0
   48.8083   58.6136   33.1244 C   0  0  0  0  0  0  0  0  0  0  0  0
   48.7008   56.8710   32.6055 S   0  0  2  0  0  0  0  0  0  0  0  0
   49.6579   55.9617   33.8575 C   0  0  0  0  0  0  0  0  0  0  0  0
   49.7765   56.5549   31.1602 C   0  0  0  0  0  0  0  0  0  0  0  0
   49.0826   55.4122   30.4604 C   0  0  1  0  0  0  0  0  0  0  0  0
   49.8635   55.1887   29.3330 O   0  0  0  0  0  0  0  0  0  0  0  0
   49.0229   54.0093   31.0666 C   0  0  1  0  0  0  0  0  0  0  0  0
   47.8890   53.8159   31.8627 O   0  0  0  0  0  0  0  0  0  0  0  0
   49.0173   53.1620   29.7055 C   0  0  1  0  0  0  0  0  0  0  0  0
   47.9658   53.5081   28.7923 O   0  0  0  0  0  0  0  0  0  0  0  0
   50.3539   53.7913   29.3861 C   0  0  1  0  0  0  0  0  0  0  0  0
   45.4451   61.2538   32.1938 O   0  0  0  0  0  0  0  0  0  0  0  0
   50.0788   55.0494   24.5271 N   0  0  0  0  0  0  0  0  0  0  0  0
   49.1476   55.0224   25.4818 C   0  0  0  0  0  0  0  0  0  0  0  0
   49.4413   54.7031   26.7416 N   0  0  0  0  0  0  0  0  0  0  0  0
   50.6647   54.2727   27.0776 C   0  0  0  0  0  0  0  0  0  0  0  0
   51.6762   54.2229   26.0662 C   0  0  0  0  0  0  0  0  0  0  0  0
   51.3223   54.6469   24.7557 C   0  0  0  0  0  0  0  0  0  0  0  0
   52.2340   54.6471   23.7376 N   0  0  0  0  0  0  0  0  0  0  0  0
   52.7978   53.7579   26.6501 N   0  0  0  0  0  0  0  0  0  0  0  0
   52.5612   53.5153   27.9205 C   0  0  0  0  0  0  0  0  0  0  0  0
   51.2666   53.8253   28.2580 N   0  0  0  0  0  0  0  0  0  0  0  0
  2  1  1  6  0  0  0
  2  3  1  0  0  0  0
  2  5  1  0  0  0  0
  3  4  1  0  0  0  0
  3 17  1  0  0  0  0
  5  6  1  0  0  0  0
  7  6  1  1  0  0  0
  7  8  1  0  0  0  0
  7  9  1  0  0  0  0
 10  9  1  1  0  0  0
 10 11  1  0  0  0  0
 10 12  1  0  0  0  0
 11 16  1  0  0  0  0
 12 13  1  6  0  0  0
 12 14  1  0  0  0  0
 14 15  1  6  0  0  0
 14 16  1  0  0  0  0
 16 27  1  6  0  0  0
 18 19  2  0  0  0  0
 18 23  1  0  0  0  0
 19 20  1  0  0  0  0
 20 21  2  0  0  0  0
 21 22  1  0  0  0  0
 21 27  1  0  0  0  0
 22 23  2  0  0  0  0
 22 25  1  0  0  0  0
 23 24  1  0  0  0  0
 25 26  2  0  0  0  0
 26 27  1  0  0  0  0
M  END
>  <CHROM.1>
-30.59875838,-78.94538730,61.05008421,175.71853191,-151.91825423,178.04515465
-53.78808959,49.15384810,56.00787478,29.57146258,2.61451959,-1.00422549,1.85124940

>  <Name>
ligand

>  <RI>
0

>  <Rbt.Current_Directory>
/home/itssahil/PROJECTS/Mol_Feturizer/New_Systems/rnas/3IQN

>  <Rbt.Executable>
rbdock ($Id: //depot/dev/client3/rdock/2013.1/src/exe/rbdock.cxx#4 $)

>  <Rbt.Library>
libRbt.so (2013.1, Build901 2013/11/27)

>  <Rbt.Parameter_File>
/export/apps/rDock/src/rDock_2013.1_src/data/scripts/dock_solv.prm

>  <Rbt.Receptor>
prm/pocket_docking_8.prm

>  <SCORE>
-19.0293

>  <SCORE.INTER>
-17.6812

>  <SCORE.INTER.CONST>
1

>  <SCORE.INTER.POLAR>
0

>  <SCORE.INTER.ROT>
7

>  <SCORE.INTER.SOLV>
11.2948

>  <SCORE.INTER.VDW>
-23.8191

>  <SCORE.INTER.norm>
-0.654859

>  <SCORE.INTRA>
-1.34812

>  <SCORE.INTRA.DIHEDRAL>
-2.91582

>  <SCORE.INTRA.DIHEDRAL.0>
10.0365

>  <SCORE.INTRA.POLAR>
0

>  <SCORE.INTRA.POLAR.0>
0

>  <SCORE.INTRA.REPUL>
0

>  <SCORE.INTRA.REPUL.0>
0

>  <SCORE.INTRA.SOLV>
2.50528

>  <SCORE.INTRA.SOLV.lig_0>
-48.6728

>  <SCORE.INTRA.VDW>
-1.14286

>  <SCORE.INTRA.VDW.0>
-1.10662

>  <SCORE.INTRA.norm>
-0.0499305

>  <SCORE.RESTR>
0

>  <SCORE.RESTR.CAVITY>
0

>  <SCORE.RESTR.norm>
0

>  <SCORE.SYSTEM>
0

>  <SCORE.SYSTEM.CONST>
0

>  <SCORE.SYSTEM.DIHEDRAL>
0

>  <SCORE.SYSTEM.SOLV>
0

>  <SCORE.SYSTEM.norm>
0

>  <SCORE.heavy>
27

>  <SCORE.norm>
-0.70479

>  <RMSD>
6.447

$$$$
ligand
 OpenBabel11021811483D
libRbt.so/2013.1/901 2013/11/27
 27 29  0  0  0  0  0  0  0  0999 V2000
   49.0399   54.0696   33.6932 N   0  0  0  0  0  0  0  0  0  0  0  0
   48.0064   54.0815   34.7367 C   0  0  2  0  0  0  0  0  0  0  0  0
   47.8770   52.6953   35.2928 C   0  0  0  0  0  0  0  0  0  0  0  0
   47.5576   52.5345   36.4600 O   0  0  0  0  0  0  0  0  0  0  0  0
   46.6585   54.5235   34.1475 C   0  0  0  0  0  0  0  0  0  0  0  0
   46.8486   55.8510   33.4196 C   0  0  0  0  0  0  0  0  0  0  0  0
   45.2867   56.7281   33.0901 S   0  0  2  0  0  0  0  0  0  0  0  0
   44.2591   55.5145   32.2059 C   0  0  0  0  0  0  0  0  0  0  0  0
   45.4949   57.9425   31.7383 C   0  0  0  0  0  0  0  0  0  0  0  0
   46.7946   58.6248   32.0882 C   0  0  1  0  0  0  0  0  0  0  0  0
   47.7668   57.7434   31.6315 O   0  0  0  0  0  0  0  0  0  0  0  0
   47.2309   59.9271   31.4154 C   0  0  1  0  0  0  0  0  0  0  0  0
   46.7957   61.0617   32.1083 O   0  0  0  0  0  0  0  0  0  0  0  0
   48.8174   59.7005   31.4650 C   0  0  1  0  0  0  0  0  0  0  0  0
   49.3433   59.4524   32.7770 O   0  0  0  0  0  0  0  0  0  0  0  0
   48.5989   58.4569   30.6344 C   0  0  1  0  0  0  0  0  0  0  0  0
   48.0767   51.7318   34.5700 O   0  0  0  0  0  0  0  0  0  0  0  0
   49.2162   56.0008   26.2921 N   0  0  0  0  0  0  0  0  0  0  0  0
   48.4077   57.0085   26.6244 C   0  0  0  0  0  0  0  0  0  0  0  0
   48.4348   57.5613   27.8364 N   0  0  0  0  0  0  0  0  0  0  0  0
   49.1901   57.0440   28.8146 C   0  0  0  0  0  0  0  0  0  0  0  0
   50.0229   55.9188   28.5161 C   0  0  0  0  0  0  0  0  0  0  0  0
   50.0069   55.4190   27.1849 C   0  0  0  0  0  0  0  0  0  0  0  0
   50.7858   54.3593   26.8134 N   0  0  0  0  0  0  0  0  0  0  0  0
   50.6681   55.5908   29.6525 N   0  0  0  0  0  0  0  0  0  0  0  0
   50.3013   56.4079   30.6150 C   0  0  0  0  0  0  0  0  0  0  0  0
   49.4009   57.3419   30.1646 N   0  0  0  0  0  0  0  0  0  0  0  0
  2  1  1  6  0  0  0
  2  3  1  0  0  0  0
  2  5  1  0  0  0  0
  3  4  1  0  0  0  0
  3 17  1  0  0  0  0
  5  6  1  0  0  0  0
  7  6  1  6  0  0  0
  7  8  1  0  0  0  0
  7  9  1  0  0  0  0
 10  9  1  6  0  0  0
 10 11  1  0  0  0  0
 10 12  1  0  0  0  0
 11 16  1  0  0  0  0
 12 13  1  1  0  0  0
 12 14  1  0  0  0  0
 14 15  1  1  0  0  0
 14 16  1  0  0  0  0
 16 27  1  1  0  0  0
 18 19  2  0  0  0  0
 18 23  1  0  0  0  0
 19 20  1  0  0  0  0
 20 21  2  0  0  0  0
 21 22  1  0  0  0  0
 21 27  1  0  0  0  0
 22 23  2  0  0  0  0
 22 25  1  0  0  0  0
 23 24  1  0  0  0  0
 25 26  2  0  0  0  0
 26 27  1  0  0  0  0
M  END
>  <CHROM.1>
148.95987643,-53.14768419,-163.36063322,-54.24012234,-45.00442788,80.68807359
116.15539537,47.99892393,56.43082327,31.44719500,-2.17926523,1.00476161,-0.60688671

>  <Name>
ligand

>  <RI>
0

>  <Rbt.Current_Directory>
/home/itssahil/PROJECTS/Mol_Feturizer/New_Systems/rnas/3IQN

>  <Rbt.Executable>
rbdock ($Id: //depot/dev/client3/rdock/2013.1/src/exe/rbdock.cxx#4 $)

>  <Rbt.Library>
libRbt.so (2013.1, Build901 2013/11/27)

>  <Rbt.Parameter_File>
/export/apps/rDock/src/rDock_2013.1_src/data/scripts/dock_solv.prm

>  <Rbt.Receptor>
prm/pocket_docking_3.prm

>  <SCORE>
-20.0991

>  <SCORE.INTER>
-18.476

>  <SCORE.INTER.CONST>
1

>  <SCORE.INTER.POLAR>
0

>  <SCORE.INTER.ROT>
7

>  <SCORE.INTER.SOLV>
11.6496

>  <SCORE.INTER.VDW>
-24.4672

>  <SCORE.INTER.norm>
-0.684296

>  <SCORE.INTRA>
-1.62306

>  <SCORE.INTRA.DIHEDRAL>
-2.79443

>  <SCORE.INTRA.DIHEDRAL.0>
10.0365

>  <SCORE.INTRA.POLAR>
0

>  <SCORE.INTRA.POLAR.0>
0

>  <SCORE.INTRA.REPUL>
0

>  <SCORE.INTRA.REPUL.0>
0

>  <SCORE.INTRA.SOLV>
-0.276813

>  <SCORE.INTRA.SOLV.lig_0>
-48.6728

>  <SCORE.INTRA.VDW>
-0.0874389

>  <SCORE.INTRA.VDW.0>
-1.10662

>  <SCORE.INTRA.norm>
-0.0601134

>  <SCORE.RESTR>
0

>  <SCORE.RESTR.CAVITY>
0

>  <SCORE.RESTR.norm>
0

>  <SCORE.SYSTEM>
0

>  <SCORE.SYSTEM.CONST>
0

>  <SCORE.SYSTEM.DIHEDRAL>
0

>  <SCORE.SYSTEM.SOLV>
0

>  <SCORE.SYSTEM.norm>
0

>  <SCORE.heavy>
27

>  <SCORE.norm>
-0.744409

>  <RMSD>
6.454

$$$$
ligand
 OpenBabel11021811483D
libRbt.so/2013.1/901 2013/11/27
 27 29  0  0  0  0  0  0  0  0999 V2000
   50.0915   58.1669   31.3969 N   0  0  0  0  0  0  0  0  0  0  0  0
   48.7087   58.2323   31.8876 C   0  0  2  0  0  0  0  0  0  0  0  0
   48.0004   59.3389   31.1656 C   0  0  0  0  0  0  0  0  0  0  0  0
   48.4135   60.4844   31.2511 O   0  0  0  0  0  0  0  0  0  0  0  0
   48.6913   58.5142   33.3974 C   0  0  0  0  0  0  0  0  0  0  0  0
   49.3757   57.3600   34.1238 C   0  0  0  0  0  0  0  0  0  0  0  0
   48.6861   55.7274   33.7037 S   0  0  2  0  0  0  0  0  0  0  0  0
   49.3501   54.6097   34.9765 C   0  0  0  0  0  0  0  0  0  0  0  0
   49.5367   55.0165   32.2487 C   0  0  0  0  0  0  0  0  0  0  0  0
   48.4105   54.3823   31.4699 C   0  0  1  0  0  0  0  0  0  0  0  0
   48.9595   54.1584   30.2132 O   0  0  0  0  0  0  0  0  0  0  0  0
   47.8719   52.9927   31.8135 C   0  0  1  0  0  0  0  0  0  0  0  0
   46.8141   53.0376   32.7277 O   0  0  0  0  0  0  0  0  0  0  0  0
   47.4415   52.5331   30.3390 C   0  0  1  0  0  0  0  0  0  0  0  0
   46.5317   53.4251   29.6785 O   0  0  0  0  0  0  0  0  0  0  0  0
   48.8878   52.7047   29.9351 C   0  0  1  0  0  0  0  0  0  0  0  0
   47.0211   59.0862   30.4815 O   0  0  0  0  0  0  0  0  0  0  0  0
   47.9171   51.8897   25.0708 N   0  0  0  0  0  0  0  0  0  0  0  0
   47.1227   51.8616   26.1420 C   0  0  0  0  0  0  0  0  0  0  0  0
   47.5727   52.1634   27.3592 N   0  0  0  0  0  0  0  0  0  0  0  0
   48.8755   52.3868   27.5780 C   0  0  0  0  0  0  0  0  0  0  0  0
   49.7728   52.3596   26.4632 C   0  0  0  0  0  0  0  0  0  0  0  0
   49.2220   52.1052   25.1771 C   0  0  0  0  0  0  0  0  0  0  0  0
   50.0076   52.0799   24.0591 N   0  0  0  0  0  0  0  0  0  0  0  0
   51.0077   52.6056   26.9425 N   0  0  0  0  0  0  0  0  0  0  0  0
   50.9457   52.7745   28.2450 C   0  0  0  0  0  0  0  0  0  0  0  0
   49.6557   52.6683   28.7039 N   0  0  0  0  0  0  0  0  0  0  0  0
  2  1  1  6  0  0  0
  2  3  1  0  0  0  0
  2  5  1  0  0  0  0
  3  4  1  0  0  0  0
  3 17  1  0  0  0  0
  5  6  1  0  0  0  0
  7  6  1  1  0  0  0
  7  8  1  0  0  0  0
  7  9  1  0  0  0  0
 10  9  1  1  0  0  0
 10 11  1  0  0  0  0
 10 12  1  0  0  0  0
 11 16  1  0  0  0  0
 12 13  1  1  0  0  0
 12 14  1  0  0  0  0
 14 15  1  6  0  0  0
 14 16  1  0  0  0  0
 16 27  1  6  0  0  0
 18 19  2  0  0  0  0
 18 23  1  0  0  0  0
 19 20  1  0  0  0  0
 20 21  2  0  0  0  0
 21 22  1  0  0  0  0
 21 27  1  0  0  0  0
 22 23  2  0  0  0  0
 22 25  1  0  0  0  0
 23 24  1  0  0  0  0
 25 26  2  0  0  0  0
 26 27  1  0  0  0  0
M  END
>  <CHROM.1>
-59.95983772,-62.51002545,-53.51435439,-165.98028003,-140.03658402,164.54428652
-110.18880712,48.66805217,54.67425134,30.14740832,-2.01952613,-1.47940495
-2.71826124

>  <Name>
ligand

>  <RI>
0

>  <Rbt.Current_Directory>
/home/itssahil/PROJECTS/Mol_Feturizer/New_Systems/rnas/3IQN

>  <Rbt.Executable>
rbdock ($Id: //depot/dev/client3/rdock/2013.1/src/exe/rbdock.cxx#4 $)

>  <Rbt.Library>
libRbt.so (2013.1, Build901 2013/11/27)

>  <Rbt.Parameter_File>
/export/apps/rDock/src/rDock_2013.1_src/data/scripts/dock_solv.prm

>  <Rbt.Receptor>
prm/pocket_docking_8.prm

>  <SCORE>
-14.615

>  <SCORE.INTER>
-13.2222

>  <SCORE.INTER.CONST>
1

>  <SCORE.INTER.POLAR>
0

>  <SCORE.INTER.ROT>
7

>  <SCORE.INTER.SOLV>
13.3353

>  <SCORE.INTER.VDW>
-21.5266

>  <SCORE.INTER.norm>
-0.489712

>  <SCORE.INTRA>
-1.39281

>  <SCORE.INTRA.DIHEDRAL>
-0.80022

>  <SCORE.INTRA.DIHEDRAL.0>
10.0365

>  <SCORE.INTRA.POLAR>
0

>  <SCORE.INTRA.POLAR.0>
0

>  <SCORE.INTRA.REPUL>
0

>  <SCORE.INTRA.REPUL.0>
0

>  <SCORE.INTRA.SOLV>
1.97401

>  <SCORE.INTRA.SOLV.lig_0>
-48.6728

>  <SCORE.INTRA.VDW>
-1.97971

>  <SCORE.INTRA.VDW.0>
-1.10662

>  <SCORE.INTRA.norm>
-0.0515856

>  <SCORE.RESTR>
0

>  <SCORE.RESTR.CAVITY>
0

>  <SCORE.RESTR.norm>
0

>  <SCORE.SYSTEM>
0

>  <SCORE.SYSTEM.CONST>
0

>  <SCORE.SYSTEM.DIHEDRAL>
0

>  <SCORE.SYSTEM.SOLV>
0

>  <SCORE.SYSTEM.norm>
0

>  <SCORE.heavy>
27

>  <SCORE.norm>
-0.541297

>  <RMSD>
6.479

$$$$
ligand
 OpenBabel11021811483D
libRbt.so/2013.1/901 2013/11/27
 27 29  0  0  0  0  0  0  0  0999 V2000
   48.6103   58.7432   30.7789 N   0  0  0  0  0  0  0  0  0  0  0  0
   47.2106   58.3235   30.9269 C   0  0  2  0  0  0  0  0  0  0  0  0
   46.3428   59.2925   30.1816 C   0  0  0  0  0  0  0  0  0  0  0  0
   46.2281   60.4400   30.5819 O   0  0  0  0  0  0  0  0  0  0  0  0
   46.8102   58.3150   32.4098 C   0  0  0  0  0  0  0  0  0  0  0  0
   47.0555   56.9212   32.9802 C   0  0  0  0  0  0  0  0  0  0  0  0
   48.8132   56.5672   33.3004 S   0  0  2  0  0  0  0  0  0  0  0  0
   49.5330   58.1815   33.7323 C   0  0  0  0  0  0  0  0  0  0  0  0
   49.7146   56.2790   31.7350 C   0  0  0  0  0  0  0  0  0  0  0  0
   48.9691   55.1207   31.1190 C   0  0  1  0  0  0  0  0  0  0  0  0
   49.6827   54.8444   29.9592 O   0  0  0  0  0  0  0  0  0  0  0  0
   48.9272   53.7424   31.7805 C   0  0  1  0  0  0  0  0  0  0  0  0
   47.8376   53.5946   32.6453 O   0  0  0  0  0  0  0  0  0  0  0  0
   48.8352   52.8450   30.4551 C   0  0  1  0  0  0  0  0  0  0  0  0
   47.7381   53.1712   29.5894 O   0  0  0  0  0  0  0  0  0  0  0  0
   50.1589   53.4434   30.0380 C   0  0  1  0  0  0  0  0  0  0  0  0
   45.7663   58.9329   29.1672 O   0  0  0  0  0  0  0  0  0  0  0  0
   50.0895   51.1798   25.5503 N   0  0  0  0  0  0  0  0  0  0  0  0
   49.2584   51.0948   26.5902 C   0  0  0  0  0  0  0  0  0  0  0  0
   49.4286   51.8302   27.6882 N   0  0  0  0  0  0  0  0  0  0  0  0
   50.5165   52.5963   27.8443 C   0  0  0  0  0  0  0  0  0  0  0  0
   51.4678   52.6627   26.7770 C   0  0  0  0  0  0  0  0  0  0  0  0
   51.1942   51.9131   25.5999 C   0  0  0  0  0  0  0  0  0  0  0  0
   52.0425   51.9361   24.5287 N   0  0  0  0  0  0  0  0  0  0  0  0
   52.4574   53.4840   27.1787 N   0  0  0  0  0  0  0  0  0  0  0  0
   52.1992   53.9188   28.3924 C   0  0  0  0  0  0  0  0  0  0  0  0
   51.0072   53.4226   28.8603 N   0  0  0  0  0  0  0  0  0  0  0  0
  2  1  1  1  0  0  0
  2  3  1  0  0  0  0
  2  5  1  0  0  0  0
  3  4  1  0  0  0  0
  3 17  1  0  0  0  0
  5  6  1  0  0  0  0
  7  6  1  6  0  0  0
  7  8  1  0  0  0  0
  7  9  1  0  0  0  0
 10  9  1  1  0  0  0
 10 11  1  0  0  0  0
 10 12  1  0  0  0  0
 11 16  1  0  0  0  0
 12 13  1  1  0  0  0
 12 14  1  0  0  0  0
 14 15  1  6  0  0  0
 14 16  1  0  0  0  0
 16 27  1  6  0  0  0
 18 19  2  0  0  0  0
 18 23  1  0  0  0  0
 19 20  1  0  0  0  0
 20 21  2  0  0  0  0
 21 22  1  0  0  0  0
 21 27  1  0  0  0  0
 22 23  2  0  0  0  0
 22 25  1  0  0  0  0
 23 24  1  0  0  0  0
 25 26  2  0  0  0  0
 26 27  1  0  0  0  0
M  END
>  <CHROM.1>
-68.28432390,-92.13076355,76.00303925,31.36410049,-58.17052069,-177.10845426
-112.33646345,49.09526251,55.08009211,29.89173535,2.55581286,-1.08024776
1.63477704

>  <Name>
ligand

>  <RI>
0

>  <Rbt.Current_Directory>
/home/itssahil/PROJECTS/Mol_Feturizer/New_Systems/rnas/3IQN

>  <Rbt.Executable>
rbdock ($Id: //depot/dev/client3/rdock/2013.1/src/exe/rbdock.cxx#4 $)

>  <Rbt.Library>
libRbt.so (2013.1, Build901 2013/11/27)

>  <Rbt.Parameter_File>
/export/apps/rDock/src/rDock_2013.1_src/data/scripts/dock_solv.prm

>  <Rbt.Receptor>
prm/pocket_docking_6.prm

>  <SCORE>
-14.028

>  <SCORE.INTER>
-14.546

>  <SCORE.INTER.CONST>
1

>  <SCORE.INTER.POLAR>
0

>  <SCORE.INTER.ROT>
7

>  <SCORE.INTER.SOLV>
9.41189

>  <SCORE.INTER.VDW>
-21.1013

>  <SCORE.INTER.norm>
-0.538739

>  <SCORE.INTRA>
0.518006

>  <SCORE.INTRA.DIHEDRAL>
-1.36788

>  <SCORE.INTRA.DIHEDRAL.0>
10.0365

>  <SCORE.INTRA.POLAR>
0

>  <SCORE.INTRA.POLAR.0>
0

>  <SCORE.INTRA.REPUL>
0

>  <SCORE.INTRA.REPUL.0>
0

>  <SCORE.INTRA.SOLV>
3.77856

>  <SCORE.INTRA.SOLV.lig_0>
-48.6728

>  <SCORE.INTRA.VDW>
-0.687333

>  <SCORE.INTRA.VDW.0>
-1.10662

>  <SCORE.INTRA.norm>
0.0191854

>  <SCORE.RESTR>
0

>  <SCORE.RESTR.CAVITY>
0

>  <SCORE.RESTR.norm>
0

>  <SCORE.SYSTEM>
0

>  <SCORE.SYSTEM.CONST>
0

>  <SCORE.SYSTEM.DIHEDRAL>
0

>  <SCORE.SYSTEM.SOLV>
0

>  <SCORE.SYSTEM.norm>
0

>  <SCORE.heavy>
27

>  <SCORE.norm>
-0.519554

>  <RMSD>
6.508

$$$$
ligand
 OpenBabel11021811483D
libRbt.so/2013.1/901 2013/11/27
 27 29  0  0  0  0  0  0  0  0999 V2000
   49.7045   56.0840   34.1151 N   0  0  0  0  0  0  0  0  0  0  0  0
   48.6596   55.2132   34.6693 C   0  0  2  0  0  0  0  0  0  0  0  0
   49.3042   54.2318   35.6014 C   0  0  0  0  0  0  0  0  0  0  0  0
   50.4425   53.8462   35.3879 O   0  0  0  0  0  0  0  0  0  0  0  0
   47.9450   54.4533   33.5418 C   0  0  0  0  0  0  0  0  0  0  0  0
   47.2731   55.4618   32.6145 C   0  0  0  0  0  0  0  0  0  0  0  0
   45.9650   56.4348   33.4266 S   0  0  2  0  0  0  0  0  0  0  0  0
   44.5809   55.2695   33.6182 C   0  0  0  0  0  0  0  0  0  0  0  0
   45.1840   57.5905   32.2433 C   0  0  0  0  0  0  0  0  0  0  0  0
   46.2202   58.6768   32.0911 C   0  0  1  0  0  0  0  0  0  0  0  0
   47.1163   58.1550   31.1662 O   0  0  0  0  0  0  0  0  0  0  0  0
   45.8879   60.0283   31.4569 C   0  0  1  0  0  0  0  0  0  0  0  0
   45.4689   60.9748   32.3979 O   0  0  0  0  0  0  0  0  0  0  0  0
   47.3187   60.3438   30.8059 C   0  0  1  0  0  0  0  0  0  0  0  0
   48.4129   60.3262   31.7344 O   0  0  0  0  0  0  0  0  0  0  0  0
   47.1600   59.0728   30.0037 C   0  0  1  0  0  0  0  0  0  0  0  0
   48.6920   53.8342   36.5802 O   0  0  0  0  0  0  0  0  0  0  0  0
   46.3494   55.6081   26.4531 N   0  0  0  0  0  0  0  0  0  0  0  0
   45.5045   56.2624   27.2515 C   0  0  0  0  0  0  0  0  0  0  0  0
   45.9236   57.1963   28.1044 N   0  0  0  0  0  0  0  0  0  0  0  0
   47.2304   57.4294   28.2857 C   0  0  0  0  0  0  0  0  0  0  0  0
   48.1737   56.6988   27.4951 C   0  0  0  0  0  0  0  0  0  0  0  0
   47.6631   55.7685   26.5485 C   0  0  0  0  0  0  0  0  0  0  0  0
   48.4958   55.0441   25.7426 N   0  0  0  0  0  0  0  0  0  0  0  0
   49.4027   57.1075   27.8664 N   0  0  0  0  0  0  0  0  0  0  0  0
   49.2947   58.0141   28.8125 C   0  0  0  0  0  0  0  0  0  0  0  0
   47.9796   58.2738   29.1111 N   0  0  0  0  0  0  0  0  0  0  0  0
  2  1  1  6  0  0  0
  2  3  1  0  0  0  0
  2  5  1  0  0  0  0
  3  4  1  0  0  0  0
  3 17  1  0  0  0  0
  5  6  1  0  0  0  0
  7  6  1  6  0  0  0
  7  8  1  0  0  0  0
  7  9  1  0  0  0  0
 10  9  1  6  0  0  0
 10 11  1  0  0  0  0
 10 12  1  0  0  0  0
 11 16  1  0  0  0  0
 12 13  1  1  0  0  0
 12 14  1  0  0  0  0
 14 15  1  1  0  0  0
 14 16  1  0  0  0  0
 16 27  1  6  0  0  0
 18 19  2  0  0  0  0
 18 23  1  0  0  0  0
 19 20  1  0  0  0  0
 20 21  2  0  0  0  0
 21 22  1  0  0  0  0
 21 27  1  0  0  0  0
 22 23  2  0  0  0  0
 22 25  1  0  0  0  0
 23 24  1  0  0  0  0
 25 26  2  0  0  0  0
 26 27  1  0  0  0  0
M  END
>  <CHROM.1>
-31.58163986,-61.71962832,-63.54225818,-73.49060981,-75.08426839,81.70263759
90.69843753,47.38812186,56.91990536,31.23770564,-1.29185877,1.11778547,-1.52625214

>  <Name>
ligand

>  <RI>
0

>  <Rbt.Current_Directory>
/home/itssahil/PROJECTS/Mol_Feturizer/New_Systems/rnas/3IQN

>  <Rbt.Executable>
rbdock ($Id: //depot/dev/client3/rdock/2013.1/src/exe/rbdock.cxx#4 $)

>  <Rbt.Library>
libRbt.so (2013.1, Build901 2013/11/27)

>  <Rbt.Parameter_File>
/export/apps/rDock/src/rDock_2013.1_src/data/scripts/dock_solv.prm

>  <Rbt.Receptor>
prm/pocket_docking_3.prm

>  <SCORE>
-21.144

>  <SCORE.INTER>
-17.0822

>  <SCORE.INTER.CONST>
1

>  <SCORE.INTER.POLAR>
0

>  <SCORE.INTER.ROT>
7

>  <SCORE.INTER.SOLV>
17.192

>  <SCORE.INTER.VDW>
-25.3855

>  <SCORE.INTER.norm>
-0.632673

>  <SCORE.INTRA>
-4.26471

>  <SCORE.INTRA.DIHEDRAL>
-5.09982

>  <SCORE.INTRA.DIHEDRAL.0>
10.0365

>  <SCORE.INTRA.POLAR>
0

>  <SCORE.INTRA.POLAR.0>
0

>  <SCORE.INTRA.REPUL>
0

>  <SCORE.INTRA.REPUL.0>
0

>  <SCORE.INTRA.SOLV>
0.229233

>  <SCORE.INTRA.SOLV.lig_0>
-48.6728

>  <SCORE.INTRA.VDW>
-1.82942

>  <SCORE.INTRA.VDW.0>
-1.10662

>  <SCORE.INTRA.norm>
-0.157952

>  <SCORE.RESTR>
0.202851

>  <SCORE.RESTR.CAVITY>
0.202851

>  <SCORE.RESTR.norm>
0.007513

>  <SCORE.SYSTEM>
0

>  <SCORE.SYSTEM.CONST>
0

>  <SCORE.SYSTEM.DIHEDRAL>
0

>  <SCORE.SYSTEM.SOLV>
0

>  <SCORE.SYSTEM.norm>
0

>  <SCORE.heavy>
27

>  <SCORE.norm>
-0.783113

>  <RMSD>
6.523

$$$$
ligand
 OpenBabel11021811483D
libRbt.so/2013.1/901 2013/11/27
 27 29  0  0  0  0  0  0  0  0999 V2000
   49.5543   59.1914   33.6917 N   0  0  0  0  0  0  0  0  0  0  0  0
   49.4920   58.2570   32.5601 C   0  0  2  0  0  0  0  0  0  0  0  0
   48.9366   58.9850   31.3731 C   0  0  0  0  0  0  0  0  0  0  0  0
   48.3002   60.0144   31.5328 O   0  0  0  0  0  0  0  0  0  0  0  0
   48.5829   57.0667   32.9007 C   0  0  0  0  0  0  0  0  0  0  0  0
   49.1760   56.3158   34.0892 C   0  0  0  0  0  0  0  0  0  0  0  0
   48.1936   54.8684   34.5965 S   0  0  2  0  0  0  0  0  0  0  0  0
   49.1347   54.1365   35.9709 C   0  0  0  0  0  0  0  0  0  0  0  0
   48.3724   53.5053   33.3899 C   0  0  0  0  0  0  0  0  0  0  0  0
   47.4453   53.9141   32.2717 C   0  0  1  0  0  0  0  0  0  0  0  0
   48.1394   53.5656   31.1195 O   0  0  0  0  0  0  0  0  0  0  0  0
   46.1048   53.2162   32.0368 C   0  0  1  0  0  0  0  0  0  0  0  0
   45.0531   53.8262   32.7286 O   0  0  0  0  0  0  0  0  0  0  0  0
   46.0242   53.3859   30.4445 C   0  0  1  0  0  0  0  0  0  0  0  0
   46.1279   54.7410   29.9835 O   0  0  0  0  0  0  0  0  0  0  0  0
   47.3113   52.5980   30.3619 C   0  0  1  0  0  0  0  0  0  0  0  0
   49.1372   58.5524   30.2491 O   0  0  0  0  0  0  0  0  0  0  0  0
   47.2094   51.9443   25.3788 N   0  0  0  0  0  0  0  0  0  0  0  0
   46.2418   52.2487   26.2450 C   0  0  0  0  0  0  0  0  0  0  0  0
   46.4902   52.4310   27.5413 N   0  0  0  0  0  0  0  0  0  0  0  0
   47.7058   52.1923   28.0516 C   0  0  0  0  0  0  0  0  0  0  0  0
   48.7571   51.7979   27.1640 C   0  0  0  0  0  0  0  0  0  0  0  0
   48.4489   51.6921   25.7798 C   0  0  0  0  0  0  0  0  0  0  0  0
   49.4000   51.3387   24.8642 N   0  0  0  0  0  0  0  0  0  0  0  0
   49.8617   51.6166   27.9139 N   0  0  0  0  0  0  0  0  0  0  0  0
   49.5787   51.8588   29.1749 C   0  0  0  0  0  0  0  0  0  0  0  0
   48.2673   52.2350   29.3317 N   0  0  0  0  0  0  0  0  0  0  0  0
  2  1  1  1  0  0  0
  2  3  1  0  0  0  0
  2  5  1  0  0  0  0
  3  4  1  0  0  0  0
  3 17  1  0  0  0  0
  5  6  1  0  0  0  0
  7  6  1  6  0  0  0
  7  8  1  0  0  0  0
  7  9  1  0  0  0  0
 10  9  1  1  0  0  0
 10 11  1  0  0  0  0
 10 12  1  0  0  0  0
 11 16  1  0  0  0  0
 12 13  1  1  0  0  0
 12 14  1  0  0  0  0
 14 15  1  1  0  0  0
 14 16  1  0  0  0  0
 16 27  1  6  0  0  0
 18 19  2  0  0  0  0
 18 23  1  0  0  0  0
 19 20  1  0  0  0  0
 20 21  2  0  0  0  0
 21 22  1  0  0  0  0
 21 27  1  0  0  0  0
 22 23  2  0  0  0  0
 22 25  1  0  0  0  0
 23 24  1  0  0  0  0
 25 26  2  0  0  0  0
 26 27  1  0  0  0  0
M  END
>  <CHROM.1>
-19.82853051,-62.03395967,-179.79495546,178.19487192,-79.17142851,140.37849927
-135.72753932,48.03369744,54.38757702,30.68605019,-1.25629711,-1.30456287
-1.92849043

>  <Name>
ligand

>  <RI>
0

>  <Rbt.Current_Directory>
/home/itssahil/PROJECTS/Mol_Feturizer/New_Systems/rnas/3IQN

>  <Rbt.Executable>
rbdock ($Id: //depot/dev/client3/rdock/2013.1/src/exe/rbdock.cxx#4 $)

>  <Rbt.Library>
libRbt.so (2013.1, Build901 2013/11/27)

>  <Rbt.Parameter_File>
/export/apps/rDock/src/rDock_2013.1_src/data/scripts/dock_solv.prm

>  <Rbt.Receptor>
prm/pocket_docking_6.prm

>  <SCORE>
-18.2037

>  <SCORE.INTER>
-15.1016

>  <SCORE.INTER.CONST>
1

>  <SCORE.INTER.POLAR>
0

>  <SCORE.INTER.ROT>
7

>  <SCORE.INTER.SOLV>
18.9349

>  <SCORE.INTER.VDW>
-24.6461

>  <SCORE.INTER.norm>
-0.55932

>  <SCORE.INTRA>
-3.10206

>  <SCORE.INTRA.DIHEDRAL>
-2.64933

>  <SCORE.INTRA.DIHEDRAL.0>
10.0365

>  <SCORE.INTRA.POLAR>
0

>  <SCORE.INTRA.POLAR.0>
0

>  <SCORE.INTRA.REPUL>
0

>  <SCORE.INTRA.REPUL.0>
0

>  <SCORE.INTRA.SOLV>
-0.285791

>  <SCORE.INTRA.SOLV.lig_0>
-48.6728

>  <SCORE.INTRA.VDW>
-1.6345

>  <SCORE.INTRA.VDW.0>
-1.10662

>  <SCORE.INTRA.norm>
-0.114891

>  <SCORE.RESTR>
0

>  <SCORE.RESTR.CAVITY>
0

>  <SCORE.RESTR.norm>
0

>  <SCORE.SYSTEM>
0

>  <SCORE.SYSTEM.CONST>
0

>  <SCORE.SYSTEM.DIHEDRAL>
0

>  <SCORE.SYSTEM.SOLV>
0

>  <SCORE.SYSTEM.norm>
0

>  <SCORE.heavy>
27

>  <SCORE.norm>
-0.674211

>  <RMSD>
6.525

$$$$
ligand
 OpenBabel11021811483D
libRbt.so/2013.1/901 2013/11/27
 27 29  0  0  0  0  0  0  0  0999 V2000
   48.6452   53.2779   33.2988 N   0  0  0  0  0  0  0  0  0  0  0  0
   48.3792   54.1024   34.4848 C   0  0  2  0  0  0  0  0  0  0  0  0
   48.4477   53.2249   35.6984 C   0  0  0  0  0  0  0  0  0  0  0  0
   49.2248   53.4929   36.6009 O   0  0  0  0  0  0  0  0  0  0  0  0
   46.9835   54.7369   34.3913 C   0  0  0  0  0  0  0  0  0  0  0  0
   47.0257   55.8773   33.3783 C   0  0  0  0  0  0  0  0  0  0  0  0
   45.4302   56.7338   33.1831 S   0  0  2  0  0  0  0  0  0  0  0  0
   44.3572   55.5184   32.3573 C   0  0  0  0  0  0  0  0  0  0  0  0
   45.5172   57.9739   31.8413 C   0  0  0  0  0  0  0  0  0  0  0  0
   46.8320   58.6674   32.1008 C   0  0  1  0  0  0  0  0  0  0  0  0
   47.7794   57.7834   31.5992 O   0  0  0  0  0  0  0  0  0  0  0  0
   47.2194   59.9610   31.3829 C   0  0  1  0  0  0  0  0  0  0  0  0
   46.8209   61.1043   32.0836 O   0  0  0  0  0  0  0  0  0  0  0  0
   48.8071   59.7425   31.3390 C   0  0  1  0  0  0  0  0  0  0  0  0
   49.4134   59.5172   32.6201 O   0  0  0  0  0  0  0  0  0  0  0  0
   48.5453   58.4851   30.5423 C   0  0  1  0  0  0  0  0  0  0  0  0
   47.7135   52.2532   35.7854 O   0  0  0  0  0  0  0  0  0  0  0  0
   48.9958   56.0396   26.1737 N   0  0  0  0  0  0  0  0  0  0  0  0
   48.2059   57.0512   26.5370 C   0  0  0  0  0  0  0  0  0  0  0  0
   48.2786   57.5998   27.7490 N   0  0  0  0  0  0  0  0  0  0  0  0
   49.0639   57.0745   28.6988 C   0  0  0  0  0  0  0  0  0  0  0  0
   49.8786   55.9450   28.3681 C   0  0  0  0  0  0  0  0  0  0  0  0
   49.8132   55.4497   27.0367 C   0  0  0  0  0  0  0  0  0  0  0  0
   50.5718   54.3863   26.6352 N   0  0  0  0  0  0  0  0  0  0  0  0
   50.5605   55.6091   29.4805 N   0  0  0  0  0  0  0  0  0  0  0  0
   50.2326   56.4254   30.4577 C   0  0  0  0  0  0  0  0  0  0  0  0
   49.3232   57.3666   30.0416 N   0  0  0  0  0  0  0  0  0  0  0  0
  2  1  1  6  0  0  0
  2  3  1  0  0  0  0
  2  5  1  0  0  0  0
  3  4  1  0  0  0  0
  3 17  1  0  0  0  0
  5  6  1  0  0  0  0
  7  6  1  6  0  0  0
  7  8  1  0  0  0  0
  7  9  1  0  0  0  0
 10  9  1  6  0  0  0
 10 11  1  0  0  0  0
 10 12  1  0  0  0  0
 11 16  1  0  0  0  0
 12 13  1  1  0  0  0
 12 14  1  0  0  0  0
 14 15  1  1  0  0  0
 14 16  1  0  0  0  0
 16 27  1  1  0  0  0
 18 19  2  0  0  0  0
 18 23  1  0  0  0  0
 19 20  1  0  0  0  0
 20 21  2  0  0  0  0
 21 22  1  0  0  0  0
 21 27  1  0  0  0  0
 22 23  2  0  0  0  0
 22 25  1  0  0  0  0
 23 24  1  0  0  0  0
 25 26  2  0  0  0  0
 26 27  1  0  0  0  0
M  END
>  <CHROM.1>
122.94053756,-74.70042247,-179.33460556,-69.27275839,-44.76144505,78.50486354
118.11773454,48.05532863,56.51117831,31.45588592,-2.03156150,1.04032694,-0.79649177

>  <Name>
ligand

>  <RI>
0

>  <Rbt.Current_Directory>
/home/itssahil/PROJECTS/Mol_Feturizer/New_Systems/rnas/3IQN

>  <Rbt.Executable>
rbdock ($Id: //depot/dev/client3/rdock/2013.1/src/exe/rbdock.cxx#4 $)

>  <Rbt.Library>
libRbt.so (2013.1, Build901 2013/11/27)

>  <Rbt.Parameter_File>
/export/apps/rDock/src/rDock_2013.1_src/data/scripts/dock_solv.prm

>  <Rbt.Receptor>
prm/pocket_docking_3.prm

>  <SCORE>
-21.052

>  <SCORE.INTER>
-18.4575

>  <SCORE.INTER.CONST>
1

>  <SCORE.INTER.POLAR>
0

>  <SCORE.INTER.ROT>
7

>  <SCORE.INTER.SOLV>
12.962

>  <SCORE.INTER.VDW>
-24.8923

>  <SCORE.INTER.norm>
-0.683612

>  <SCORE.INTRA>
-2.59535

>  <SCORE.INTRA.DIHEDRAL>
-3.82386

>  <SCORE.INTRA.DIHEDRAL.0>
10.0365

>  <SCORE.INTRA.POLAR>
0

>  <SCORE.INTRA.POLAR.0>
0

>  <SCORE.INTRA.REPUL>
0

>  <SCORE.INTRA.REPUL.0>
0

>  <SCORE.INTRA.SOLV>
-0.467966

>  <SCORE.INTRA.SOLV.lig_0>
-48.6728

>  <SCORE.INTRA.VDW>
-0.449441

>  <SCORE.INTRA.VDW.0>
-1.10662

>  <SCORE.INTRA.norm>
-0.0961242

>  <SCORE.RESTR>
0.000912892

>  <SCORE.RESTR.CAVITY>
0.000912892

>  <SCORE.RESTR.norm>
3.38108e-05

>  <SCORE.SYSTEM>
0

>  <SCORE.SYSTEM.CONST>
0

>  <SCORE.SYSTEM.DIHEDRAL>
0

>  <SCORE.SYSTEM.SOLV>
0

>  <SCORE.SYSTEM.norm>
0

>  <SCORE.heavy>
27

>  <SCORE.norm>
-0.779702

>  <RMSD>
6.527

$$$$
ligand
 OpenBabel11021811483D
libRbt.so/2013.1/901 2013/11/27
 27 29  0  0  0  0  0  0  0  0999 V2000
   49.7136   54.7756   34.6233 N   0  0  0  0  0  0  0  0  0  0  0  0
   48.6598   53.8010   34.9350 C   0  0  2  0  0  0  0  0  0  0  0  0
   48.6857   52.7239   33.8926 C   0  0  0  0  0  0  0  0  0  0  0  0
   48.9380   53.0054   32.7319 O   0  0  0  0  0  0  0  0  0  0  0  0
   47.2838   54.4836   34.9303 C   0  0  0  0  0  0  0  0  0  0  0  0
   47.1036   55.2239   33.6083 C   0  0  0  0  0  0  0  0  0  0  0  0
   45.7656   56.4592   33.6450 S   0  0  2  0  0  0  0  0  0  0  0  0
   44.2368   55.4807   33.5198 C   0  0  0  0  0  0  0  0  0  0  0  0
   45.6525   57.3436   32.0479 C   0  0  0  0  0  0  0  0  0  0  0  0
   47.0943   57.6459   31.7211 C   0  0  1  0  0  0  0  0  0  0  0  0
   47.2463   57.1781   30.4215 O   0  0  0  0  0  0  0  0  0  0  0  0
   47.6093   59.0796   31.5857 C   0  0  1  0  0  0  0  0  0  0  0  0
   48.0881   59.5948   32.7949 O   0  0  0  0  0  0  0  0  0  0  0  0
   48.7501   58.8201   30.4894 C   0  0  1  0  0  0  0  0  0  0  0  0
   49.7173   57.8265   30.8594 O   0  0  0  0  0  0  0  0  0  0  0  0
   47.6600   58.3185   29.5705 C   0  0  1  0  0  0  0  0  0  0  0  0
   48.4692   51.5658   34.2130 O   0  0  0  0  0  0  0  0  0  0  0  0
   50.5262   55.1734   26.8943 N   0  0  0  0  0  0  0  0  0  0  0  0
   50.7193   55.7391   28.0869 C   0  0  0  0  0  0  0  0  0  0  0  0
   49.7973   56.5157   28.6543 N   0  0  0  0  0  0  0  0  0  0  0  0
   48.6854   56.8635   27.9928 C   0  0  0  0  0  0  0  0  0  0  0  0
   48.4722   56.3307   26.6816 C   0  0  0  0  0  0  0  0  0  0  0  0
   49.4566   55.4478   26.1585 C   0  0  0  0  0  0  0  0  0  0  0  0
   49.3199   54.8822   24.9220 N   0  0  0  0  0  0  0  0  0  0  0  0
   47.3024   56.8295   26.2366 N   0  0  0  0  0  0  0  0  0  0  0  0
   46.7873   57.6199   27.1524 C   0  0  0  0  0  0  0  0  0  0  0  0
   47.5816   57.6758   28.2714 N   0  0  0  0  0  0  0  0  0  0  0  0
  2  1  1  6  0  0  0
  2  3  1  0  0  0  0
  2  5  1  0  0  0  0
  3  4  1  0  0  0  0
  3 17  1  0  0  0  0
  5  6  1  0  0  0  0
  7  6  1  6  0  0  0
  7  8  1  0  0  0  0
  7  9  1  0  0  0  0
 10  9  1  6  0  0  0
 10 11  1  0  0  0  0
 10 12  1  0  0  0  0
 11 16  1  0  0  0  0
 12 13  1  1  0  0  0
 12 14  1  0  0  0  0
 14 15  1  1  0  0  0
 14 16  1  0  0  0  0
 16 27  1  6  0  0  0
 18 19  2  0  0  0  0
 18 23  1  0  0  0  0
 19 20  1  0  0  0  0
 20 21  2  0  0  0  0
 21 22  1  0  0  0  0
 21 27  1  0  0  0  0
 22 23  2  0  0  0  0
 22 25  1  0  0  0  0
 23 24  1  0  0  0  0
 25 26  2  0  0  0  0
 26 27  1  0  0  0  0
M  END
>  <CHROM.1>
-36.45169349,53.02901907,-163.10803214,-76.84156343,-44.33006088,128.81927980
-78.93125523,47.99431298,56.16071146,30.86200258,-1.95253805,1.01626938,-0.98928126

>  <Name>
ligand

>  <RI>
0

>  <Rbt.Current_Directory>
/home/itssahil/PROJECTS/Mol_Feturizer/New_Systems/rnas/3IQN

>  <Rbt.Executable>
rbdock ($Id: //depot/dev/client3/rdock/2013.1/src/exe/rbdock.cxx#4 $)

>  <Rbt.Library>
libRbt.so (2013.1, Build901 2013/11/27)

>  <Rbt.Parameter_File>
/export/apps/rDock/src/rDock_2013.1_src/data/scripts/dock_solv.prm

>  <Rbt.Receptor>
prm/pocket_docking_4.prm

>  <SCORE>
-15.6225

>  <SCORE.INTER>
-15.5819

>  <SCORE.INTER.CONST>
1

>  <SCORE.INTER.POLAR>
0

>  <SCORE.INTER.ROT>
7

>  <SCORE.INTER.SOLV>
15.5981

>  <SCORE.INTER.VDW>
-23.854

>  <SCORE.INTER.norm>
-0.577107

>  <SCORE.INTRA>
-0.0405802

>  <SCORE.INTRA.DIHEDRAL>
0.59204

>  <SCORE.INTRA.DIHEDRAL.0>
10.0365

>  <SCORE.INTRA.POLAR>
0

>  <SCORE.INTRA.POLAR.0>
0

>  <SCORE.INTRA.REPUL>
0

>  <SCORE.INTRA.REPUL.0>
0

>  <SCORE.INTRA.SOLV>
0.0605279

>  <SCORE.INTRA.SOLV.lig_0>
-48.6728

>  <SCORE.INTRA.VDW>
-0.366864

>  <SCORE.INTRA.VDW.0>
-1.10662

>  <SCORE.INTRA.norm>
-0.00150297

>  <SCORE.RESTR>
0

>  <SCORE.RESTR.CAVITY>
0

>  <SCORE.RESTR.norm>
0

>  <SCORE.SYSTEM>
0

>  <SCORE.SYSTEM.CONST>
0

>  <SCORE.SYSTEM.DIHEDRAL>
0

>  <SCORE.SYSTEM.SOLV>
0

>  <SCORE.SYSTEM.norm>
0

>  <SCORE.heavy>
27

>  <SCORE.norm>
-0.57861

>  <RMSD>
6.536

$$$$
ligand
 OpenBabel11021811483D
libRbt.so/2013.1/901 2013/11/27
 27 29  0  0  0  0  0  0  0  0999 V2000
   49.7227   59.0635   33.8010 N   0  0  0  0  0  0  0  0  0  0  0  0
   49.5811   58.1298   32.6761 C   0  0  2  0  0  0  0  0  0  0  0  0
   49.0459   58.8849   31.4967 C   0  0  0  0  0  0  0  0  0  0  0  0
   48.4765   59.9517   31.6637 O   0  0  0  0  0  0  0  0  0  0  0  0
   48.6095   56.9977   33.0416 C   0  0  0  0  0  0  0  0  0  0  0  0
   49.1565   56.2487   34.2532 C   0  0  0  0  0  0  0  0  0  0  0  0
   48.1839   54.7731   34.6939 S   0  0  2  0  0  0  0  0  0  0  0  0
   49.1108   54.0058   36.0586 C   0  0  0  0  0  0  0  0  0  0  0  0
   48.3999   53.4544   33.4449 C   0  0  0  0  0  0  0  0  0  0  0  0
   47.4745   53.8819   32.3322 C   0  0  1  0  0  0  0  0  0  0  0  0
   48.1611   53.5331   31.1756 O   0  0  0  0  0  0  0  0  0  0  0  0
   46.1252   53.2016   32.0964 C   0  0  1  0  0  0  0  0  0  0  0  0
   45.0828   53.8193   32.7955 O   0  0  0  0  0  0  0  0  0  0  0  0
   46.0420   53.3832   30.5056 C   0  0  1  0  0  0  0  0  0  0  0  0
   46.1605   54.7400   30.0535 O   0  0  0  0  0  0  0  0  0  0  0  0
   47.3194   52.5807   30.4138 C   0  0  1  0  0  0  0  0  0  0  0  0
   49.1961   58.4358   30.3713 O   0  0  0  0  0  0  0  0  0  0  0  0
   47.1844   51.9158   25.4330 N   0  0  0  0  0  0  0  0  0  0  0  0
   46.2229   52.2241   26.3047 C   0  0  0  0  0  0  0  0  0  0  0  0
   46.4800   52.4088   27.5990 N   0  0  0  0  0  0  0  0  0  0  0  0
   47.6983   52.1689   28.1020 C   0  0  0  0  0  0  0  0  0  0  0  0
   48.7432   51.7704   27.2086 C   0  0  0  0  0  0  0  0  0  0  0  0
   48.4259   51.6621   25.8266 C   0  0  0  0  0  0  0  0  0  0  0  0
   49.3704   51.3047   24.9058 N   0  0  0  0  0  0  0  0  0  0  0  0
   49.8522   51.5887   27.9518 N   0  0  0  0  0  0  0  0  0  0  0  0
   49.5777   51.8342   29.2140 C   0  0  0  0  0  0  0  0  0  0  0  0
   48.2681   52.2134   29.3784 N   0  0  0  0  0  0  0  0  0  0  0  0
  2  1  1  1  0  0  0
  2  3  1  0  0  0  0
  2  5  1  0  0  0  0
  3  4  1  0  0  0  0
  3 17  1  0  0  0  0
  5  6  1  0  0  0  0
  7  6  1  6  0  0  0
  7  8  1  0  0  0  0
  7  9  1  0  0  0  0
 10  9  1  1  0  0  0
 10 11  1  0  0  0  0
 10 12  1  0  0  0  0
 11 16  1  0  0  0  0
 12 13  1  1  0  0  0
 12 14  1  0  0  0  0
 14 15  1  1  0  0  0
 14 16  1  0  0  0  0
 16 27  1  6  0  0  0
 18 19  2  0  0  0  0
 18 23  1  0  0  0  0
 19 20  1  0  0  0  0
 20 21  2  0  0  0  0
 21 22  1  0  0  0  0
 21 27  1  0  0  0  0
 22 23  2  0  0  0  0
 22 25  1  0  0  0  0
 23 24  1  0  0  0  0
 25 26  2  0  0  0  0
 26 27  1  0  0  0  0
M  END
>  <CHROM.1>
-19.78206664,-60.02912992,-174.25741509,175.59658107,-79.80314158,142.81856708
-136.52573680,48.05657598,54.33602452,30.76396508,-1.25224723,-1.27970516
-1.91308819

>  <Name>
ligand

>  <RI>
0

>  <Rbt.Current_Directory>
/home/itssahil/PROJECTS/Mol_Feturizer/New_Systems/rnas/3IQN

>  <Rbt.Executable>
rbdock ($Id: //depot/dev/client3/rdock/2013.1/src/exe/rbdock.cxx#4 $)

>  <Rbt.Library>
libRbt.so (2013.1, Build901 2013/11/27)

>  <Rbt.Parameter_File>
/export/apps/rDock/src/rDock_2013.1_src/data/scripts/dock_solv.prm

>  <Rbt.Receptor>
prm/pocket_docking_5.prm

>  <SCORE>
-18.2109

>  <SCORE.INTER>
-15.0614

>  <SCORE.INTER.CONST>
1

>  <SCORE.INTER.POLAR>
0

>  <SCORE.INTER.ROT>
7

>  <SCORE.INTER.SOLV>
19.2587

>  <SCORE.INTER.VDW>
-24.7272

>  <SCORE.INTER.norm>
-0.557831

>  <SCORE.INTRA>
-3.14948

>  <SCORE.INTRA.DIHEDRAL>
-2.85405

>  <SCORE.INTRA.DIHEDRAL.0>
10.0365

>  <SCORE.INTRA.POLAR>
0

>  <SCORE.INTRA.POLAR.0>
0

>  <SCORE.INTRA.REPUL>
0

>  <SCORE.INTRA.REPUL.0>
0

>  <SCORE.INTRA.SOLV>
-0.265728

>  <SCORE.INTRA.SOLV.lig_0>
-48.6728

>  <SCORE.INTRA.VDW>
-1.5896

>  <SCORE.INTRA.VDW.0>
-1.10662

>  <SCORE.INTRA.norm>
-0.116648

>  <SCORE.RESTR>
0

>  <SCORE.RESTR.CAVITY>
0

>  <SCORE.RESTR.norm>
0

>  <SCORE.SYSTEM>
0

>  <SCORE.SYSTEM.CONST>
0

>  <SCORE.SYSTEM.DIHEDRAL>
0

>  <SCORE.SYSTEM.SOLV>
0

>  <SCORE.SYSTEM.norm>
0

>  <SCORE.heavy>
27

>  <SCORE.norm>
-0.674479

>  <RMSD>
6.538

$$$$
ligand
 OpenBabel11021811483D
libRbt.so/2013.1/901 2013/11/27
 27 29  0  0  0  0  0  0  0  0999 V2000
   47.8693   52.5468   35.9605 N   0  0  0  0  0  0  0  0  0  0  0  0
   47.9959   53.6828   35.0382 C   0  0  2  0  0  0  0  0  0  0  0  0
   48.9587   54.6688   35.6284 C   0  0  0  0  0  0  0  0  0  0  0  0
   49.1717   54.6675   36.8304 O   0  0  0  0  0  0  0  0  0  0  0  0
   46.6321   54.3595   34.8349 C   0  0  0  0  0  0  0  0  0  0  0  0
   46.7781   55.4625   33.7907 C   0  0  0  0  0  0  0  0  0  0  0  0
   45.3004   56.5161   33.6367 S   0  0  2  0  0  0  0  0  0  0  0  0
   43.9736   55.3730   33.1435 C   0  0  0  0  0  0  0  0  0  0  0  0
   45.3736   57.5207   32.1099 C   0  0  0  0  0  0  0  0  0  0  0  0
   46.5995   58.3751   32.3207 C   0  0  1  0  0  0  0  0  0  0  0  0
   47.6436   57.5758   31.8716 O   0  0  0  0  0  0  0  0  0  0  0  0
   46.8386   59.6573   31.5221 C   0  0  1  0  0  0  0  0  0  0  0  0
   46.3095   60.7888   32.1517 O   0  0  0  0  0  0  0  0  0  0  0  0
   48.4411   59.6197   31.4859 C   0  0  1  0  0  0  0  0  0  0  0  0
   49.0648   59.5456   32.7763 O   0  0  0  0  0  0  0  0  0  0  0  0
   48.3277   58.2933   30.7702 C   0  0  1  0  0  0  0  0  0  0  0  0
   49.5381   55.4596   34.9006 O   0  0  0  0  0  0  0  0  0  0  0  0
   49.3242   55.9081   26.4590 N   0  0  0  0  0  0  0  0  0  0  0  0
   48.4293   56.8522   26.7543 C   0  0  0  0  0  0  0  0  0  0  0  0
   48.3596   57.4003   27.9668 N   0  0  0  0  0  0  0  0  0  0  0  0
   49.1047   56.9355   28.9785 C   0  0  0  0  0  0  0  0  0  0  0  0
   50.0309   55.8758   28.7181 C   0  0  0  0  0  0  0  0  0  0  0  0
   50.1133   55.3819   27.3871 C   0  0  0  0  0  0  0  0  0  0  0  0
   50.9843   54.3839   27.0512 N   0  0  0  0  0  0  0  0  0  0  0  0
   50.6451   55.5910   29.8829 N   0  0  0  0  0  0  0  0  0  0  0  0
   50.1751   56.3749   30.8281 C   0  0  0  0  0  0  0  0  0  0  0  0
   49.2303   57.2423   30.3372 N   0  0  0  0  0  0  0  0  0  0  0  0
  2  1  1  1  0  0  0
  2  3  1  0  0  0  0
  2  5  1  0  0  0  0
  3  4  1  0  0  0  0
  3 17  1  0  0  0  0
  5  6  1  0  0  0  0
  7  6  1  6  0  0  0
  7  8  1  0  0  0  0
  7  9  1  0  0  0  0
 10  9  1  6  0  0  0
 10 11  1  0  0  0  0
 10 12  1  0  0  0  0
 11 16  1  0  0  0  0
 12 13  1  1  0  0  0
 12 14  1  0  0  0  0
 14 15  1  1  0  0  0
 14 16  1  0  0  0  0
 16 27  1  1  0  0  0
 18 19  2  0  0  0  0
 18 23  1  0  0  0  0
 19 20  1  0  0  0  0
 20 21  2  0  0  0  0
 21 22  1  0  0  0  0
 21 27  1  0  0  0  0
 22 23  2  0  0  0  0
 22 25  1  0  0  0  0
 23 24  1  0  0  0  0
 25 26  2  0  0  0  0
 26 27  1  0  0  0  0
M  END
>  <CHROM.1>
-21.97682639,-175.60599445,-171.11662067,-60.40601147,-62.22868878,85.73245153
124.34644157,48.01964620,56.54282782,31.79988006,-2.07710778,0.89079738,-0.95655117

>  <Name>
ligand

>  <RI>
0

>  <Rbt.Current_Directory>
/home/itssahil/PROJECTS/Mol_Feturizer/New_Systems/rnas/3IQN

>  <Rbt.Executable>
rbdock ($Id: //depot/dev/client3/rdock/2013.1/src/exe/rbdock.cxx#4 $)

>  <Rbt.Library>
libRbt.so (2013.1, Build901 2013/11/27)

>  <Rbt.Parameter_File>
/export/apps/rDock/src/rDock_2013.1_src/data/scripts/dock_solv.prm

>  <Rbt.Receptor>
prm/pocket_docking_4.prm

>  <SCORE>
-24.1786

>  <SCORE.INTER>
-20.6397

>  <SCORE.INTER.CONST>
1

>  <SCORE.INTER.POLAR>
0

>  <SCORE.INTER.ROT>
7

>  <SCORE.INTER.SOLV>
14.1127

>  <SCORE.INTER.VDW>
-26.7307

>  <SCORE.INTER.norm>
-0.764434

>  <SCORE.INTRA>
-3.53883

>  <SCORE.INTRA.DIHEDRAL>
-4.39105

>  <SCORE.INTRA.DIHEDRAL.0>
10.0365

>  <SCORE.INTRA.POLAR>
0

>  <SCORE.INTRA.POLAR.0>
0

>  <SCORE.INTRA.REPUL>
0

>  <SCORE.INTRA.REPUL.0>
0

>  <SCORE.INTRA.SOLV>
-1.14358

>  <SCORE.INTRA.SOLV.lig_0>
-48.6728

>  <SCORE.INTRA.VDW>
-0.771517

>  <SCORE.INTRA.VDW.0>
-1.10662

>  <SCORE.INTRA.norm>
-0.131068

>  <SCORE.RESTR>
0

>  <SCORE.RESTR.CAVITY>
0

>  <SCORE.RESTR.norm>
0

>  <SCORE.SYSTEM>
0

>  <SCORE.SYSTEM.CONST>
0

>  <SCORE.SYSTEM.DIHEDRAL>
0

>  <SCORE.SYSTEM.SOLV>
0

>  <SCORE.SYSTEM.norm>
0

>  <SCORE.heavy>
27

>  <SCORE.norm>
-0.895502

>  <RMSD>
6.539

$$$$
ligand
 OpenBabel11021811483D
libRbt.so/2013.1/901 2013/11/27
 27 29  0  0  0  0  0  0  0  0999 V2000
   49.5636   59.2010   33.6787 N   0  0  0  0  0  0  0  0  0  0  0  0
   49.4578   58.2801   32.5393 C   0  0  2  0  0  0  0  0  0  0  0  0
   48.8779   59.0279   31.3766 C   0  0  0  0  0  0  0  0  0  0  0  0
   48.9717   58.5690   30.2492 O   0  0  0  0  0  0  0  0  0  0  0  0
   48.5443   57.0970   32.8927 C   0  0  0  0  0  0  0  0  0  0  0  0
   49.1285   56.3636   34.0965 C   0  0  0  0  0  0  0  0  0  0  0  0
   48.2313   54.8366   34.5214 S   0  0  2  0  0  0  0  0  0  0  0  0
   49.1860   54.1115   35.8900 C   0  0  0  0  0  0  0  0  0  0  0  0
   48.5266   53.5380   33.2675 C   0  0  0  0  0  0  0  0  0  0  0  0
   47.5431   53.8851   32.1769 C   0  0  1  0  0  0  0  0  0  0  0  0
   48.1904   53.4989   31.0096 O   0  0  0  0  0  0  0  0  0  0  0  0
   46.2056   53.1576   32.0327 C   0  0  1  0  0  0  0  0  0  0  0  0
   45.1759   53.7801   32.7461 O   0  0  0  0  0  0  0  0  0  0  0  0
   46.0503   53.2587   30.4401 C   0  0  1  0  0  0  0  0  0  0  0  0
   46.1099   54.5945   29.9191 O   0  0  0  0  0  0  0  0  0  0  0  0
   47.3457   52.4877   30.3314 C   0  0  1  0  0  0  0  0  0  0  0  0
   48.2999   60.0867   31.5650 O   0  0  0  0  0  0  0  0  0  0  0  0
   47.1606   52.1088   25.3223 N   0  0  0  0  0  0  0  0  0  0  0  0
   46.2283   52.4517   26.2126 C   0  0  0  0  0  0  0  0  0  0  0  0
   46.4986   52.5427   27.5141 N   0  0  0  0  0  0  0  0  0  0  0  0
   47.6907   52.1708   27.9995 C   0  0  0  0  0  0  0  0  0  0  0  0
   48.6982   51.7321   27.0823 C   0  0  0  0  0  0  0  0  0  0  0  0
   48.3747   51.7270   25.6976 C   0  0  0  0  0  0  0  0  0  0  0  0
   49.2859   51.3394   24.7556 N   0  0  0  0  0  0  0  0  0  0  0  0
   49.7861   51.4145   27.8109 N   0  0  0  0  0  0  0  0  0  0  0  0
   49.5322   51.6141   29.0855 C   0  0  0  0  0  0  0  0  0  0  0  0
   48.2603   52.0962   29.2745 N   0  0  0  0  0  0  0  0  0  0  0  0
  2  1  1  1  0  0  0
  2  3  1  0  0  0  0
  2  5  1  0  0  0  0
  3  4  1  0  0  0  0
  3 17  1  0  0  0  0
  5  6  1  0  0  0  0
  7  6  1  6  0  0  0
  7  8  1  0  0  0  0
  7  9  1  0  0  0  0
 10  9  1  1  0  0  0
 10 11  1  0  0  0  0
 10 12  1  0  0  0  0
 11 16  1  0  0  0  0
 12 13  1  1  0  0  0
 12 14  1  0  0  0  0
 14 15  1  1  0  0  0
 14 16  1  0  0  0  0
 16 27  1  6  0  0  0
 18 19  2  0  0  0  0
 18 23  1  0  0  0  0
 19 20  1  0  0  0  0
 20 21  2  0  0  0  0
 21 22  1  0  0  0  0
 21 27  1  0  0  0  0
 22 23  2  0  0  0  0
 22 25  1  0  0  0  0
 23 24  1  0  0  0  0
 25 26  2  0  0  0  0
 26 27  1  0  0  0  0
M  END
>  <CHROM.1>
163.57778629,-59.46484509,-174.25211179,176.18001482,-82.35650190,147.11658563
-127.35094990,48.03190446,54.36740168,30.63869050,-1.16123501,-1.35579776
-1.83670259

>  <Name>
ligand

>  <RI>
0

>  <Rbt.Current_Directory>
/home/itssahil/PROJECTS/Mol_Feturizer/New_Systems/rnas/3IQN

>  <Rbt.Executable>
rbdock ($Id: //depot/dev/client3/rdock/2013.1/src/exe/rbdock.cxx#4 $)

>  <Rbt.Library>
libRbt.so (2013.1, Build901 2013/11/27)

>  <Rbt.Parameter_File>
/export/apps/rDock/src/rDock_2013.1_src/data/scripts/dock_solv.prm

>  <Rbt.Receptor>
prm/pocket_docking_6.prm

>  <SCORE>
-18.2346

>  <SCORE.INTER>
-14.9085

>  <SCORE.INTER.CONST>
1

>  <SCORE.INTER.POLAR>
0

>  <SCORE.INTER.ROT>
7

>  <SCORE.INTER.SOLV>
19.5172

>  <SCORE.INTER.VDW>
-24.7114

>  <SCORE.INTER.norm>
-0.552166

>  <SCORE.INTRA>
-3.32613

>  <SCORE.INTRA.DIHEDRAL>
-3.18217

>  <SCORE.INTRA.DIHEDRAL.0>
10.0365

>  <SCORE.INTRA.POLAR>
0

>  <SCORE.INTRA.POLAR.0>
0

>  <SCORE.INTRA.REPUL>
0

>  <SCORE.INTRA.REPUL.0>
0

>  <SCORE.INTRA.SOLV>
-0.243142

>  <SCORE.INTRA.SOLV.lig_0>
-48.6728

>  <SCORE.INTRA.VDW>
-1.61348

>  <SCORE.INTRA.VDW.0>
-1.10662

>  <SCORE.INTRA.norm>
-0.12319

>  <SCORE.RESTR>
0

>  <SCORE.RESTR.CAVITY>
0

>  <SCORE.RESTR.norm>
0

>  <SCORE.SYSTEM>
0

>  <SCORE.SYSTEM.CONST>
0

>  <SCORE.SYSTEM.DIHEDRAL>
0

>  <SCORE.SYSTEM.SOLV>
0

>  <SCORE.SYSTEM.norm>
0

>  <SCORE.heavy>
27

>  <SCORE.norm>
-0.675356

>  <RMSD>
6.545

$$$$
ligand
 OpenBabel11021811483D
libRbt.so/2013.1/901 2013/11/27
 27 29  0  0  0  0  0  0  0  0999 V2000
   47.7488   52.4004   35.9737 N   0  0  0  0  0  0  0  0  0  0  0  0
   47.8916   53.5322   35.0485 C   0  0  2  0  0  0  0  0  0  0  0  0
   48.9307   54.4643   35.5952 C   0  0  0  0  0  0  0  0  0  0  0  0
   49.0947   54.5538   36.8015 O   0  0  0  0  0  0  0  0  0  0  0  0
   46.5568   54.2797   34.9101 C   0  0  0  0  0  0  0  0  0  0  0  0
   46.7057   55.3647   33.8476 C   0  0  0  0  0  0  0  0  0  0  0  0
   45.2401   56.4350   33.6933 S   0  0  2  0  0  0  0  0  0  0  0  0
   43.8827   55.2948   33.2837 C   0  0  0  0  0  0  0  0  0  0  0  0
   45.2844   57.3772   32.1261 C   0  0  0  0  0  0  0  0  0  0  0  0
   46.4703   58.2921   32.3101 C   0  0  1  0  0  0  0  0  0  0  0  0
   47.5525   57.5196   31.9065 O   0  0  0  0  0  0  0  0  0  0  0  0
   46.6633   59.5471   31.4576 C   0  0  1  0  0  0  0  0  0  0  0  0
   46.0794   60.6813   32.0315 O   0  0  0  0  0  0  0  0  0  0  0  0
   48.2662   59.5771   31.4379 C   0  0  1  0  0  0  0  0  0  0  0  0
   48.8782   59.5867   32.7359 O   0  0  0  0  0  0  0  0  0  0  0  0
   48.2175   58.2169   30.7807 C   0  0  1  0  0  0  0  0  0  0  0  0
   49.6200   55.1191   34.8291 O   0  0  0  0  0  0  0  0  0  0  0  0
   49.5111   55.8441   26.5422 N   0  0  0  0  0  0  0  0  0  0  0  0
   48.5778   56.7662   26.7832 C   0  0  0  0  0  0  0  0  0  0  0  0
   48.4271   57.3161   27.9875 N   0  0  0  0  0  0  0  0  0  0  0  0
   49.1266   56.8736   29.0410 C   0  0  0  0  0  0  0  0  0  0  0  0
   50.0921   55.8369   28.8369 C   0  0  0  0  0  0  0  0  0  0  0  0
   50.2605   55.3411   27.5148 C   0  0  0  0  0  0  0  0  0  0  0  0
   51.1737   54.3644   27.2322 N   0  0  0  0  0  0  0  0  0  0  0  0
   50.6478   55.5715   30.0353 N   0  0  0  0  0  0  0  0  0  0  0  0
   50.1065   56.3462   30.9495 C   0  0  0  0  0  0  0  0  0  0  0  0
   49.1689   57.1877   30.4030 N   0  0  0  0  0  0  0  0  0  0  0  0
  2  1  1  1  0  0  0
  2  3  1  0  0  0  0
  2  5  1  0  0  0  0
  3  4  1  0  0  0  0
  3 17  1  0  0  0  0
  5  6  1  0  0  0  0
  7  6  1  6  0  0  0
  7  8  1  0  0  0  0
  7  9  1  0  0  0  0
 10  9  1  6  0  0  0
 10 11  1  0  0  0  0
 10 12  1  0  0  0  0
 11 16  1  0  0  0  0
 12 13  1  1  0  0  0
 12 14  1  0  0  0  0
 14 15  1  1  0  0  0
 14 16  1  0  0  0  0
 16 27  1  1  0  0  0
 18 19  2  0  0  0  0
 18 23  1  0  0  0  0
 19 20  1  0  0  0  0
 20 21  2  0  0  0  0
 21 22  1  0  0  0  0
 21 27  1  0  0  0  0
 22 23  2  0  0  0  0
 22 25  1  0  0  0  0
 23 24  1  0  0  0  0
 25 26  2  0  0  0  0
 26 27  1  0  0  0  0
M  END
>  <CHROM.1>
-30.10990761,-174.78603957,-174.49137007,-58.67051247,-66.21413797,85.57419633
127.96352223,47.97710263,56.45444993,31.83421059,-2.09031151,0.84076075,-0.93799010

>  <Name>
ligand

>  <RI>
0

>  <Rbt.Current_Directory>
/home/itssahil/PROJECTS/Mol_Feturizer/New_Systems/rnas/3IQN

>  <Rbt.Executable>
rbdock ($Id: //depot/dev/client3/rdock/2013.1/src/exe/rbdock.cxx#4 $)

>  <Rbt.Library>
libRbt.so (2013.1, Build901 2013/11/27)

>  <Rbt.Parameter_File>
/export/apps/rDock/src/rDock_2013.1_src/data/scripts/dock_solv.prm

>  <Rbt.Receptor>
prm/pocket_docking_8.prm

>  <SCORE>
-24.4104

>  <SCORE.INTER>
-20.6352

>  <SCORE.INTER.CONST>
1

>  <SCORE.INTER.POLAR>
0

>  <SCORE.INTER.ROT>
7

>  <SCORE.INTER.SOLV>
14.7216

>  <SCORE.INTER.VDW>
-26.9307

>  <SCORE.INTER.norm>
-0.764268

>  <SCORE.INTRA>
-3.77512

>  <SCORE.INTRA.DIHEDRAL>
-4.49028

>  <SCORE.INTRA.DIHEDRAL.0>
10.0365

>  <SCORE.INTRA.POLAR>
0

>  <SCORE.INTRA.POLAR.0>
0

>  <SCORE.INTRA.REPUL>
0

>  <SCORE.INTRA.REPUL.0>
0

>  <SCORE.INTRA.SOLV>
-1.15584

>  <SCORE.INTRA.SOLV.lig_0>
-48.6728

>  <SCORE.INTRA.VDW>
-0.952058

>  <SCORE.INTRA.VDW.0>
-1.10662

>  <SCORE.INTRA.norm>
-0.139819

>  <SCORE.RESTR>
0

>  <SCORE.RESTR.CAVITY>
0

>  <SCORE.RESTR.norm>
0

>  <SCORE.SYSTEM>
0

>  <SCORE.SYSTEM.CONST>
0

>  <SCORE.SYSTEM.DIHEDRAL>
0

>  <SCORE.SYSTEM.SOLV>
0

>  <SCORE.SYSTEM.norm>
0

>  <SCORE.heavy>
27

>  <SCORE.norm>
-0.904088

>  <RMSD>
6.560

$$$$
ligand
 OpenBabel11021811483D
libRbt.so/2013.1/901 2013/11/27
 27 29  0  0  0  0  0  0  0  0999 V2000
   49.4677   54.1406   35.4847 N   0  0  0  0  0  0  0  0  0  0  0  0
   48.1056   54.2118   34.9397 C   0  0  2  0  0  0  0  0  0  0  0  0
   47.6427   52.8189   34.6347 C   0  0  0  0  0  0  0  0  0  0  0  0
   48.3748   52.0526   34.0288 O   0  0  0  0  0  0  0  0  0  0  0  0
   48.0893   55.0490   33.6521 C   0  0  0  0  0  0  0  0  0  0  0  0
   48.5727   56.4601   33.9737 C   0  0  0  0  0  0  0  0  0  0  0  0
   48.7422   57.5217   32.5034 S   0  0  2  0  0  0  0  0  0  0  0  0
   50.0198   58.7340   32.9601 C   0  0  0  0  0  0  0  0  0  0  0  0
   47.3224   58.6660   32.3597 C   0  0  0  0  0  0  0  0  0  0  0  0
   46.3698   57.9182   31.4594 C   0  0  1  0  0  0  0  0  0  0  0  0
   47.1082   57.6981   30.3030 O   0  0  0  0  0  0  0  0  0  0  0  0
   45.8931   56.5019   31.7847 C   0  0  1  0  0  0  0  0  0  0  0  0
   44.7150   56.4917   32.5389 O   0  0  0  0  0  0  0  0  0  0  0  0
   45.7136   55.9612   30.2861 C   0  0  1  0  0  0  0  0  0  0  0  0
   44.8436   56.7551   29.4662 O   0  0  0  0  0  0  0  0  0  0  0  0
   47.1859   56.2349   30.0817 C   0  0  1  0  0  0  0  0  0  0  0  0
   46.5398   52.4518   35.0082 O   0  0  0  0  0  0  0  0  0  0  0  0
   51.3516   53.6914   28.8794 N   0  0  0  0  0  0  0  0  0  0  0  0
   50.5771   53.6465   29.9646 C   0  0  0  0  0  0  0  0  0  0  0  0
   49.4684   54.3782   30.0678 N   0  0  0  0  0  0  0  0  0  0  0  0
   49.1511   55.2864   29.1354 C   0  0  0  0  0  0  0  0  0  0  0  0
   49.9946   55.4129   27.9859 C   0  0  0  0  0  0  0  0  0  0  0  0
   51.1232   54.5525   27.8961 C   0  0  0  0  0  0  0  0  0  0  0  0
   51.9682   54.5972   26.8229 N   0  0  0  0  0  0  0  0  0  0  0  0
   49.4687   56.3835   27.2135 N   0  0  0  0  0  0  0  0  0  0  0  0
   48.3876   56.8624   27.7885 C   0  0  0  0  0  0  0  0  0  0  0  0
   48.1226   56.2199   28.9730 N   0  0  0  0  0  0  0  0  0  0  0  0
  2  1  1  6  0  0  0
  2  3  1  0  0  0  0
  2  5  1  0  0  0  0
  3  4  1  0  0  0  0
  3 17  1  0  0  0  0
  5  6  1  0  0  0  0
  7  6  1  1  0  0  0
  7  8  1  0  0  0  0
  7  9  1  0  0  0  0
 10  9  1  1  0  0  0
 10 11  1  0  0  0  0
 10 12  1  0  0  0  0
 11 16  1  0  0  0  0
 12 13  1  6  0  0  0
 12 14  1  0  0  0  0
 14 15  1  6  0  0  0
 14 16  1  0  0  0  0
 16 27  1  6  0  0  0
 18 19  2  0  0  0  0
 18 23  1  0  0  0  0
 19 20  1  0  0  0  0
 20 21  2  0  0  0  0
 21 22  1  0  0  0  0
 21 27  1  0  0  0  0
 22 23  2  0  0  0  0
 22 25  1  0  0  0  0
 23 24  1  0  0  0  0
 25 26  2  0  0  0  0
 26 27  1  0  0  0  0
M  END
>  <CHROM.1>
-47.00716826,-60.28910114,174.93279372,-153.06011357,-93.36064535,-58.03592243
132.90740421,48.26681577,55.68479893,31.25692500,-2.09409708,0.76565951,-1.06128963

>  <Name>
ligand

>  <RI>
0

>  <Rbt.Current_Directory>
/home/itssahil/PROJECTS/Mol_Feturizer/New_Systems/rnas/3IQN

>  <Rbt.Executable>
rbdock ($Id: //depot/dev/client3/rdock/2013.1/src/exe/rbdock.cxx#4 $)

>  <Rbt.Library>
libRbt.so (2013.1, Build901 2013/11/27)

>  <Rbt.Parameter_File>
/export/apps/rDock/src/rDock_2013.1_src/data/scripts/dock_solv.prm

>  <Rbt.Receptor>
prm/pocket_docking_5.prm

>  <SCORE>
-14.6293

>  <SCORE.INTER>
-11.9889

>  <SCORE.INTER.CONST>
1

>  <SCORE.INTER.POLAR>
0

>  <SCORE.INTER.ROT>
7

>  <SCORE.INTER.SOLV>
13.0234

>  <SCORE.INTER.VDW>
-20.6004

>  <SCORE.INTER.norm>
-0.444034

>  <SCORE.INTRA>
-2.64037

>  <SCORE.INTRA.DIHEDRAL>
-2.02875

>  <SCORE.INTRA.DIHEDRAL.0>
10.0365

>  <SCORE.INTRA.POLAR>
0

>  <SCORE.INTRA.POLAR.0>
0

>  <SCORE.INTRA.REPUL>
0

>  <SCORE.INTRA.REPUL.0>
0

>  <SCORE.INTRA.SOLV>
0.105687

>  <SCORE.INTRA.SOLV.lig_0>
-48.6728

>  <SCORE.INTRA.VDW>
-1.67884

>  <SCORE.INTRA.VDW.0>
-1.10662

>  <SCORE.INTRA.norm>
-0.0977916

>  <SCORE.RESTR>
0

>  <SCORE.RESTR.CAVITY>
0

>  <SCORE.RESTR.norm>
0

>  <SCORE.SYSTEM>
0

>  <SCORE.SYSTEM.CONST>
0

>  <SCORE.SYSTEM.DIHEDRAL>
0

>  <SCORE.SYSTEM.SOLV>
0

>  <SCORE.SYSTEM.norm>
0

>  <SCORE.heavy>
27

>  <SCORE.norm>
-0.541825

>  <RMSD>
6.576

$$$$
ligand
 OpenBabel11021811483D
libRbt.so/2013.1/901 2013/11/27
 27 29  0  0  0  0  0  0  0  0999 V2000
   48.1435   60.3399   31.6130 N   0  0  0  0  0  0  0  0  0  0  0  0
   48.2546   58.8851   31.7816 C   0  0  2  0  0  0  0  0  0  0  0  0
   49.0939   58.6101   32.9929 C   0  0  0  0  0  0  0  0  0  0  0  0
   50.2235   59.0667   33.0678 O   0  0  0  0  0  0  0  0  0  0  0  0
   48.9164   58.2540   30.5475 C   0  0  0  0  0  0  0  0  0  0  0  0
   47.8935   58.1883   29.4171 C   0  0  0  0  0  0  0  0  0  0  0  0
   48.2543   56.8951   28.1863 S   0  0  2  0  0  0  0  0  0  0  0  0
   47.3976   57.4472   26.6791 C   0  0  0  0  0  0  0  0  0  0  0  0
   47.2725   55.3880   28.5191 C   0  0  0  0  0  0  0  0  0  0  0  0
   48.1557   54.6048   29.4591 C   0  0  1  0  0  0  0  0  0  0  0  0
   49.1737   54.1298   28.6414 O   0  0  0  0  0  0  0  0  0  0  0  0
   48.9565   55.2842   30.5709 C   0  0  1  0  0  0  0  0  0  0  0  0
   48.2489   55.3564   31.7754 O   0  0  0  0  0  0  0  0  0  0  0  0
   50.2084   54.2831   30.6081 C   0  0  1  0  0  0  0  0  0  0  0  0
   49.8642   52.9060   30.8194 O   0  0  0  0  0  0  0  0  0  0  0  0
   50.4596   54.6494   29.1635 C   0  0  1  0  0  0  0  0  0  0  0  0
   48.6371   57.9424   33.9074 O   0  0  0  0  0  0  0  0  0  0  0  0
   50.5143   54.9541   24.1462 N   0  0  0  0  0  0  0  0  0  0  0  0
   49.6201   55.3746   25.0423 C   0  0  0  0  0  0  0  0  0  0  0  0
   49.8212   55.2404   26.3526 N   0  0  0  0  0  0  0  0  0  0  0  0
   50.8765   54.5624   26.8234 C   0  0  0  0  0  0  0  0  0  0  0  0
   51.8258   54.0364   25.8902 C   0  0  0  0  0  0  0  0  0  0  0  0
   51.5960   54.2757   24.5074 C   0  0  0  0  0  0  0  0  0  0  0  0
   52.4635   53.8231   23.5533 N   0  0  0  0  0  0  0  0  0  0  0  0
   52.7754   53.4027   26.6056 N   0  0  0  0  0  0  0  0  0  0  0  0
   52.4893   53.4898   27.8860 C   0  0  0  0  0  0  0  0  0  0  0  0
   51.3368   54.2066   28.0951 N   0  0  0  0  0  0  0  0  0  0  0  0
  2  1  1  6  0  0  0
  2  3  1  0  0  0  0
  2  5  1  0  0  0  0
  3  4  1  0  0  0  0
  3 17  1  0  0  0  0
  5  6  1  0  0  0  0
  7  6  1  1  0  0  0
  7  8  1  0  0  0  0
  7  9  1  0  0  0  0
 10  9  1  6  0  0  0
 10 11  1  0  0  0  0
 10 12  1  0  0  0  0
 11 16  1  0  0  0  0
 12 13  1  1  0  0  0
 12 14  1  0  0  0  0
 14 15  1  6  0  0  0
 14 16  1  0  0  0  0
 16 27  1  6  0  0  0
 18 19  2  0  0  0  0
 18 23  1  0  0  0  0
 19 20  1  0  0  0  0
 20 21  2  0  0  0  0
 21 22  1  0  0  0  0
 21 27  1  0  0  0  0
 22 23  2  0  0  0  0
 22 25  1  0  0  0  0
 23 24  1  0  0  0  0
 25 26  2  0  0  0  0
 26 27  1  0  0  0  0
M  END
>  <CHROM.1>
-56.67155608,-76.59652040,-155.70577991,-156.82883091,-88.91707896,-73.21538466
50.39167587,49.60427815,55.84727593,28.83486662,2.21162269,-0.99065311,1.57867632

>  <Name>
ligand

>  <RI>
0

>  <Rbt.Current_Directory>
/home/itssahil/PROJECTS/Mol_Feturizer/New_Systems/rnas/3IQN

>  <Rbt.Executable>
rbdock ($Id: //depot/dev/client3/rdock/2013.1/src/exe/rbdock.cxx#4 $)

>  <Rbt.Library>
libRbt.so (2013.1, Build901 2013/11/27)

>  <Rbt.Parameter_File>
/export/apps/rDock/src/rDock_2013.1_src/data/scripts/dock_solv.prm

>  <Rbt.Receptor>
prm/pocket_docking_8.prm

>  <SCORE>
-13.2108

>  <SCORE.INTER>
-12.699

>  <SCORE.INTER.CONST>
1

>  <SCORE.INTER.POLAR>
0

>  <SCORE.INTER.ROT>
7

>  <SCORE.INTER.SOLV>
13.0909

>  <SCORE.INTER.VDW>
-21.0963

>  <SCORE.INTER.norm>
-0.470334

>  <SCORE.INTRA>
-0.512253

>  <SCORE.INTRA.DIHEDRAL>
0.398067

>  <SCORE.INTRA.DIHEDRAL.0>
10.0365

>  <SCORE.INTRA.POLAR>
0

>  <SCORE.INTRA.POLAR.0>
0

>  <SCORE.INTRA.REPUL>
0

>  <SCORE.INTRA.REPUL.0>
0

>  <SCORE.INTRA.SOLV>
0.42326

>  <SCORE.INTRA.SOLV.lig_0>
-48.6728

>  <SCORE.INTRA.VDW>
-0.922917

>  <SCORE.INTRA.VDW.0>
-1.10662

>  <SCORE.INTRA.norm>
-0.0189723

>  <SCORE.RESTR>
0.00046366

>  <SCORE.RESTR.CAVITY>
0.00046366

>  <SCORE.RESTR.norm>
1.71726e-05

>  <SCORE.SYSTEM>
0

>  <SCORE.SYSTEM.CONST>
0

>  <SCORE.SYSTEM.DIHEDRAL>
0

>  <SCORE.SYSTEM.SOLV>
0

>  <SCORE.SYSTEM.norm>
0

>  <SCORE.heavy>
27

>  <SCORE.norm>
-0.489289

>  <RMSD>
6.582

$$$$
ligand
 OpenBabel11021811483D
libRbt.so/2013.1/901 2013/11/27
 27 29  0  0  0  0  0  0  0  0999 V2000
   50.0956   54.0522   35.5033 N   0  0  0  0  0  0  0  0  0  0  0  0
   48.6647   54.1750   35.1951 C   0  0  2  0  0  0  0  0  0  0  0  0
   48.1822   52.8645   34.6498 C   0  0  0  0  0  0  0  0  0  0  0  0
   47.1100   52.4100   35.0160 O   0  0  0  0  0  0  0  0  0  0  0  0
   48.4368   55.2780   34.1507 C   0  0  0  0  0  0  0  0  0  0  0  0
   49.3815   55.0482   32.9747 C   0  0  0  0  0  0  0  0  0  0  0  0
   48.9609   56.0350   31.5026 S   0  0  2  0  0  0  0  0  0  0  0  0
   50.2677   55.6405   30.2997 C   0  0  0  0  0  0  0  0  0  0  0  0
   49.3601   57.8004   31.7668 C   0  0  0  0  0  0  0  0  0  0  0  0
   48.1189   58.5083   31.2818 C   0  0  1  0  0  0  0  0  0  0  0  0
   48.1395   58.3117   29.9064 O   0  0  0  0  0  0  0  0  0  0  0  0
   46.7156   58.0131   31.6345 C   0  0  1  0  0  0  0  0  0  0  0  0
   46.2220   58.5897   32.8095 O   0  0  0  0  0  0  0  0  0  0  0  0
   45.9549   58.4873   30.3051 C   0  0  1  0  0  0  0  0  0  0  0  0
   46.0833   59.8863   30.0118 O   0  0  0  0  0  0  0  0  0  0  0  0
   46.8975   57.5974   29.5280 C   0  0  1  0  0  0  0  0  0  0  0  0
   48.8579   52.2646   33.8287 O   0  0  0  0  0  0  0  0  0  0  0  0
   48.0841   53.5726   26.7601 N   0  0  0  0  0  0  0  0  0  0  0  0
   47.8592   53.7040   28.0684 C   0  0  0  0  0  0  0  0  0  0  0  0
   47.5007   54.8689   28.6067 N   0  0  0  0  0  0  0  0  0  0  0  0
   47.4728   55.9893   27.8726 C   0  0  0  0  0  0  0  0  0  0  0  0
   47.7738   55.9021   26.4760 C   0  0  0  0  0  0  0  0  0  0  0  0
   48.0770   54.6187   25.9439 C   0  0  0  0  0  0  0  0  0  0  0  0
   48.3579   54.4467   24.6175 N   0  0  0  0  0  0  0  0  0  0  0  0
   47.6832   57.1485   25.9726 N   0  0  0  0  0  0  0  0  0  0  0  0
   47.3605   57.9859   26.9335 C   0  0  0  0  0  0  0  0  0  0  0  0
   47.1992   57.3359   28.1325 N   0  0  0  0  0  0  0  0  0  0  0  0
  2  1  1  6  0  0  0
  2  3  1  0  0  0  0
  2  5  1  0  0  0  0
  3  4  1  0  0  0  0
  3 17  1  0  0  0  0
  5  6  1  0  0  0  0
  7  6  1  1  0  0  0
  7  8  1  0  0  0  0
  7  9  1  0  0  0  0
 10  9  1  1  0  0  0
 10 11  1  0  0  0  0
 10 12  1  0  0  0  0
 11 16  1  0  0  0  0
 12 13  1  1  0  0  0
 12 14  1  0  0  0  0
 14 15  1  6  0  0  0
 14 16  1  0  0  0  0
 16 27  1  6  0  0  0
 18 19  2  0  0  0  0
 18 23  1  0  0  0  0
 19 20  1  0  0  0  0
 20 21  2  0  0  0  0
 21 22  1  0  0  0  0
 21 27  1  0  0  0  0
 22 23  2  0  0  0  0
 22 25  1  0  0  0  0
 23 24  1  0  0  0  0
 25 26  2  0  0  0  0
 26 27  1  0  0  0  0
M  END
>  <CHROM.1>
137.23794678,50.31423017,166.49542284,177.32236203,-133.20656898,-69.52994987
108.32842683,48.00558209,55.96364175,30.51089586,-1.10296261,1.28593010,-1.73079520

>  <Name>
ligand

>  <RI>
0

>  <Rbt.Current_Directory>
/home/itssahil/PROJECTS/Mol_Feturizer/New_Systems/rnas/3IQN

>  <Rbt.Executable>
rbdock ($Id: //depot/dev/client3/rdock/2013.1/src/exe/rbdock.cxx#4 $)

>  <Rbt.Library>
libRbt.so (2013.1, Build901 2013/11/27)

>  <Rbt.Parameter_File>
/export/apps/rDock/src/rDock_2013.1_src/data/scripts/dock_solv.prm

>  <Rbt.Receptor>
prm/pocket_docking_3.prm

>  <SCORE>
-9.51963

>  <SCORE.INTER>
-7.34891

>  <SCORE.INTER.CONST>
1

>  <SCORE.INTER.POLAR>
0

>  <SCORE.INTER.ROT>
7

>  <SCORE.INTER.SOLV>
16.4045

>  <SCORE.INTER.VDW>
-18.6341

>  <SCORE.INTER.norm>
-0.272182

>  <SCORE.INTRA>
-2.17071

>  <SCORE.INTRA.DIHEDRAL>
-1.27104

>  <SCORE.INTRA.DIHEDRAL.0>
10.0365

>  <SCORE.INTRA.POLAR>
0

>  <SCORE.INTRA.POLAR.0>
0

>  <SCORE.INTRA.REPUL>
0

>  <SCORE.INTRA.REPUL.0>
0

>  <SCORE.INTRA.SOLV>
-0.00274742

>  <SCORE.INTRA.SOLV.lig_0>
-48.6728

>  <SCORE.INTRA.VDW>
-1.53382

>  <SCORE.INTRA.VDW.0>
-1.10662

>  <SCORE.INTRA.norm>
-0.0803968

>  <SCORE.RESTR>
0

>  <SCORE.RESTR.CAVITY>
0

>  <SCORE.RESTR.norm>
0

>  <SCORE.SYSTEM>
0

>  <SCORE.SYSTEM.CONST>
0

>  <SCORE.SYSTEM.DIHEDRAL>
0

>  <SCORE.SYSTEM.SOLV>
0

>  <SCORE.SYSTEM.norm>
0

>  <SCORE.heavy>
27

>  <SCORE.norm>
-0.352579

>  <RMSD>
6.592

$$$$
ligand
 OpenBabel11021811483D
libRbt.so/2013.1/901 2013/11/27
 27 29  0  0  0  0  0  0  0  0999 V2000
   48.7764   53.1092   37.5904 N   0  0  0  0  0  0  0  0  0  0  0  0
   48.1176   53.8238   36.4892 C   0  0  2  0  0  0  0  0  0  0  0  0
   47.0338   52.9481   35.9359 C   0  0  0  0  0  0  0  0  0  0  0  0
   47.3065   51.8374   35.5090 O   0  0  0  0  0  0  0  0  0  0  0  0
   49.1307   54.1452   35.3803 C   0  0  0  0  0  0  0  0  0  0  0  0
   48.6886   55.4155   34.6597 C   0  0  0  0  0  0  0  0  0  0  0  0
   47.0385   55.2819   33.9003 S   0  0  2  0  0  0  0  0  0  0  0  0
   47.3114   54.3190   32.3809 C   0  0  0  0  0  0  0  0  0  0  0  0
   46.5457   56.8669   33.1314 C   0  0  0  0  0  0  0  0  0  0  0  0
   47.8314   57.3636   32.5171 C   0  0  1  0  0  0  0  0  0  0  0  0
   47.7184   57.0113   31.1778 O   0  0  0  0  0  0  0  0  0  0  0  0
   48.1524   58.8550   32.4086 C   0  0  1  0  0  0  0  0  0  0  0  0
   48.8488   59.3370   33.5220 O   0  0  0  0  0  0  0  0  0  0  0  0
   49.0220   58.8139   31.0622 C   0  0  1  0  0  0  0  0  0  0  0  0
   50.1444   57.9207   31.1048 O   0  0  0  0  0  0  0  0  0  0  0  0
   47.8020   58.2509   30.3702 C   0  0  1  0  0  0  0  0  0  0  0  0
   45.8791   53.3447   35.9292 O   0  0  0  0  0  0  0  0  0  0  0  0
   50.1278   55.3447   26.9919 N   0  0  0  0  0  0  0  0  0  0  0  0
   50.5387   55.8304   28.1644 C   0  0  0  0  0  0  0  0  0  0  0  0
   49.7364   56.5510   28.9470 N   0  0  0  0  0  0  0  0  0  0  0  0
   48.5191   56.9247   28.5306 C   0  0  0  0  0  0  0  0  0  0  0  0
   48.0662   56.4794   27.2479 C   0  0  0  0  0  0  0  0  0  0  0  0
   48.9385   55.6510   26.4896 C   0  0  0  0  0  0  0  0  0  0  0  0
   48.5748   55.1691   25.2636 N   0  0  0  0  0  0  0  0  0  0  0  0
   46.8320   56.9880   27.0650 N   0  0  0  0  0  0  0  0  0  0  0  0
   46.4947   57.7051   28.1142 C   0  0  0  0  0  0  0  0  0  0  0  0
   47.4841   57.6974   29.0665 N   0  0  0  0  0  0  0  0  0  0  0  0
  2  1  1  1  0  0  0
  2  3  1  0  0  0  0
  2  5  1  0  0  0  0
  3  4  1  0  0  0  0
  3 17  1  0  0  0  0
  5  6  1  0  0  0  0
  7  6  1  6  0  0  0
  7  8  1  0  0  0  0
  7  9  1  0  0  0  0
 10  9  1  1  0  0  0
 10 11  1  0  0  0  0
 10 12  1  0  0  0  0
 11 16  1  0  0  0  0
 12 13  1  1  0  0  0
 12 14  1  0  0  0  0
 14 15  1  1  0  0  0
 14 16  1  0  0  0  0
 16 27  1  6  0  0  0
 18 19  2  0  0  0  0
 18 23  1  0  0  0  0
 19 20  1  0  0  0  0
 20 21  2  0  0  0  0
 21 22  1  0  0  0  0
 21 27  1  0  0  0  0
 22 23  2  0  0  0  0
 22 25  1  0  0  0  0
 23 24  1  0  0  0  0
 25 26  2  0  0  0  0
 26 27  1  0  0  0  0
M  END
>  <CHROM.1>
-57.73834317,-151.07585787,-59.45847694,-77.66048875,39.03791955,99.31010710
-72.45241121,48.10994121,55.97919399,31.66856514,2.78122398,1.45050316,0.70211443

>  <Name>
ligand

>  <RI>
0

>  <Rbt.Current_Directory>
/home/itssahil/PROJECTS/Mol_Feturizer/New_Systems/rnas/3IQN

>  <Rbt.Executable>
rbdock ($Id: //depot/dev/client3/rdock/2013.1/src/exe/rbdock.cxx#4 $)

>  <Rbt.Library>
libRbt.so (2013.1, Build901 2013/11/27)

>  <Rbt.Parameter_File>
/export/apps/rDock/src/rDock_2013.1_src/data/scripts/dock_solv.prm

>  <Rbt.Receptor>
prm/pocket_docking_4.prm

>  <SCORE>
-15.0778

>  <SCORE.INTER>
-14.2167

>  <SCORE.INTER.CONST>
1

>  <SCORE.INTER.POLAR>
0

>  <SCORE.INTER.ROT>
7

>  <SCORE.INTER.SOLV>
16.8166

>  <SCORE.INTER.VDW>
-23.35

>  <SCORE.INTER.norm>
-0.526544

>  <SCORE.INTRA>
-0.861166

>  <SCORE.INTRA.DIHEDRAL>
0.605296

>  <SCORE.INTRA.DIHEDRAL.0>
10.0365

>  <SCORE.INTRA.POLAR>
0

>  <SCORE.INTRA.POLAR.0>
0

>  <SCORE.INTRA.REPUL>
0

>  <SCORE.INTRA.REPUL.0>
0

>  <SCORE.INTRA.SOLV>
-0.543799

>  <SCORE.INTRA.SOLV.lig_0>
-48.6728

>  <SCORE.INTRA.VDW>
-0.891915

>  <SCORE.INTRA.VDW.0>
-1.10662

>  <SCORE.INTRA.norm>
-0.031895

>  <SCORE.RESTR>
0

>  <SCORE.RESTR.CAVITY>
0

>  <SCORE.RESTR.norm>
0

>  <SCORE.SYSTEM>
0

>  <SCORE.SYSTEM.CONST>
0

>  <SCORE.SYSTEM.DIHEDRAL>
0

>  <SCORE.SYSTEM.SOLV>
0

>  <SCORE.SYSTEM.norm>
0

>  <SCORE.heavy>
27

>  <SCORE.norm>
-0.558439

>  <RMSD>
6.595

$$$$
ligand
 OpenBabel11021811483D
libRbt.so/2013.1/901 2013/11/27
 27 29  0  0  0  0  0  0  0  0999 V2000
   49.6336   54.8396   34.4567 N   0  0  0  0  0  0  0  0  0  0  0  0
   48.3563   54.7757   35.1790 C   0  0  2  0  0  0  0  0  0  0  0  0
   48.5711   54.0236   36.4580 C   0  0  0  0  0  0  0  0  0  0  0  0
   49.1870   54.5439   37.3746 O   0  0  0  0  0  0  0  0  0  0  0  0
   47.2999   54.0510   34.3315 C   0  0  0  0  0  0  0  0  0  0  0  0
   46.8862   54.9576   33.1760 C   0  0  0  0  0  0  0  0  0  0  0  0
   45.7385   56.2833   33.6688 S   0  0  2  0  0  0  0  0  0  0  0  0
   44.1071   55.4794   33.7203 C   0  0  0  0  0  0  0  0  0  0  0  0
   45.4318   57.4294   32.2766 C   0  0  0  0  0  0  0  0  0  0  0  0
   46.6218   58.3558   32.3272 C   0  0  1  0  0  0  0  0  0  0  0  0
   47.6730   57.5730   31.8656 O   0  0  0  0  0  0  0  0  0  0  0  0
   46.7348   59.5777   31.4144 C   0  0  1  0  0  0  0  0  0  0  0  0
   46.1915   60.7308   31.9907 O   0  0  0  0  0  0  0  0  0  0  0  0
   48.3304   59.6138   31.2616 C   0  0  1  0  0  0  0  0  0  0  0  0
   49.0468   59.6763   32.5035 O   0  0  0  0  0  0  0  0  0  0  0  0
   48.2380   58.2291   30.6630 C   0  0  1  0  0  0  0  0  0  0  0  0
   48.1146   52.8980   36.5827 O   0  0  0  0  0  0  0  0  0  0  0  0
   49.3367   55.8440   26.3767 N   0  0  0  0  0  0  0  0  0  0  0  0
   48.4233   56.7756   26.6546 C   0  0  0  0  0  0  0  0  0  0  0  0
   48.3266   57.3268   27.8638 N   0  0  0  0  0  0  0  0  0  0  0  0
   49.0629   56.8769   28.8887 C   0  0  0  0  0  0  0  0  0  0  0  0
   50.0088   55.8302   28.6464 C   0  0  0  0  0  0  0  0  0  0  0  0
   50.1191   55.3330   27.3187 C   0  0  0  0  0  0  0  0  0  0  0  0
   51.0101   54.3470   27.0001 N   0  0  0  0  0  0  0  0  0  0  0  0
   50.6091   55.5588   29.8217 N   0  0  0  0  0  0  0  0  0  0  0  0
   50.1128   56.3388   30.7566 C   0  0  0  0  0  0  0  0  0  0  0  0
   49.1628   57.1902   30.2479 N   0  0  0  0  0  0  0  0  0  0  0  0
  2  1  1  6  0  0  0
  2  3  1  0  0  0  0
  2  5  1  0  0  0  0
  3  4  1  0  0  0  0
  3 17  1  0  0  0  0
  5  6  1  0  0  0  0
  7  6  1  6  0  0  0
  7  8  1  0  0  0  0
  7  9  1  0  0  0  0
 10  9  1  6  0  0  0
 10 11  1  0  0  0  0
 10 12  1  0  0  0  0
 11 16  1  0  0  0  0
 12 13  1  1  0  0  0
 12 14  1  0  0  0  0
 14 15  1  1  0  0  0
 14 16  1  0  0  0  0
 16 27  1  1  0  0  0
 18 19  2  0  0  0  0
 18 23  1  0  0  0  0
 19 20  1  0  0  0  0
 20 21  2  0  0  0  0
 21 22  1  0  0  0  0
 21 27  1  0  0  0  0
 22 23  2  0  0  0  0
 22 25  1  0  0  0  0
 23 24  1  0  0  0  0
 25 26  2  0  0  0  0
 26 27  1  0  0  0  0
M  END
>  <CHROM.1>
72.57705757,-71.93991340,-77.46262379,-80.87104992,-82.31204183,72.68722458
131.37692159,48.07524558,56.46387569,31.79936351,-1.97764400,0.90673157,-1.00798427

>  <Name>
ligand

>  <RI>
0

>  <Rbt.Current_Directory>
/home/itssahil/PROJECTS/Mol_Feturizer/New_Systems/rnas/3IQN

>  <Rbt.Executable>
rbdock ($Id: //depot/dev/client3/rdock/2013.1/src/exe/rbdock.cxx#4 $)

>  <Rbt.Library>
libRbt.so (2013.1, Build901 2013/11/27)

>  <Rbt.Parameter_File>
/export/apps/rDock/src/rDock_2013.1_src/data/scripts/dock_solv.prm

>  <Rbt.Receptor>
prm/pocket_docking_5.prm

>  <SCORE>
-22.7839

>  <SCORE.INTER>
-20.374

>  <SCORE.INTER.CONST>
1

>  <SCORE.INTER.POLAR>
0

>  <SCORE.INTER.ROT>
7

>  <SCORE.INTER.SOLV>
14.0914

>  <SCORE.INTER.VDW>
-26.5465

>  <SCORE.INTER.norm>
-0.754594

>  <SCORE.INTRA>
-2.40986

>  <SCORE.INTRA.DIHEDRAL>
-3.3638

>  <SCORE.INTRA.DIHEDRAL.0>
10.0365

>  <SCORE.INTRA.POLAR>
0

>  <SCORE.INTRA.POLAR.0>
0

>  <SCORE.INTRA.REPUL>
0

>  <SCORE.INTRA.REPUL.0>
0

>  <SCORE.INTRA.SOLV>
-0.14415

>  <SCORE.INTRA.SOLV.lig_0>
-48.6728

>  <SCORE.INTRA.VDW>
-0.655883

>  <SCORE.INTRA.VDW.0>
-1.10662

>  <SCORE.INTRA.norm>
-0.089254

>  <SCORE.RESTR>
0

>  <SCORE.RESTR.CAVITY>
0

>  <SCORE.RESTR.norm>
0

>  <SCORE.SYSTEM>
0

>  <SCORE.SYSTEM.CONST>
0

>  <SCORE.SYSTEM.DIHEDRAL>
0

>  <SCORE.SYSTEM.SOLV>
0

>  <SCORE.SYSTEM.norm>
0

>  <SCORE.heavy>
27

>  <SCORE.norm>
-0.843848

>  <RMSD>
6.608

$$$$
ligand
 OpenBabel11021811483D
libRbt.so/2013.1/901 2013/11/27
 27 29  0  0  0  0  0  0  0  0999 V2000
   47.7664   60.4435   32.3057 N   0  0  0  0  0  0  0  0  0  0  0  0
   47.6867   59.4837   31.1968 C   0  0  2  0  0  0  0  0  0  0  0  0
   46.2542   59.3691   30.7699 C   0  0  0  0  0  0  0  0  0  0  0  0
   45.3681   59.8065   31.4866 O   0  0  0  0  0  0  0  0  0  0  0  0
   48.1978   58.1065   31.6456 C   0  0  0  0  0  0  0  0  0  0  0  0
   47.4377   57.6812   32.8984 C   0  0  0  0  0  0  0  0  0  0  0  0
   47.7905   55.9708   33.4157 S   0  0  2  0  0  0  0  0  0  0  0  0
   49.5565   55.9810   33.8534 C   0  0  0  0  0  0  0  0  0  0  0  0
   47.8771   54.8576   31.9668 C   0  0  0  0  0  0  0  0  0  0  0  0
   46.4392   54.7674   31.5180 C   0  0  1  0  0  0  0  0  0  0  0  0
   46.5297   54.3806   30.1865 O   0  0  0  0  0  0  0  0  0  0  0  0
   45.4837   53.7100   32.0730 C   0  0  1  0  0  0  0  0  0  0  0  0
   44.7894   54.1538   33.2034 O   0  0  0  0  0  0  0  0  0  0  0  0
   44.5624   53.5172   30.7750 C   0  0  1  0  0  0  0  0  0  0  0  0
   43.9627   54.7254   30.2849 O   0  0  0  0  0  0  0  0  0  0  0  0
   45.8100   53.0943   30.0340 C   0  0  1  0  0  0  0  0  0  0  0  0
   45.9812   58.8517   29.6981 O   0  0  0  0  0  0  0  0  0  0  0  0
   49.8598   51.2790   27.6735 N   0  0  0  0  0  0  0  0  0  0  0  0
   49.6445   51.5592   28.9598 C   0  0  0  0  0  0  0  0  0  0  0  0
   48.4625   51.9915   29.3969 N   0  0  0  0  0  0  0  0  0  0  0  0
   47.4743   52.2834   28.5407 C   0  0  0  0  0  0  0  0  0  0  0  0
   47.6890   52.0599   27.1433 C   0  0  0  0  0  0  0  0  0  0  0  0
   48.9455   51.5269   26.7443 C   0  0  0  0  0  0  0  0  0  0  0  0
   49.2239   51.2677   25.4317 N   0  0  0  0  0  0  0  0  0  0  0  0
   46.5623   52.4318   26.5048 N   0  0  0  0  0  0  0  0  0  0  0  0
   45.6849   52.8654   27.3829 C   0  0  0  0  0  0  0  0  0  0  0  0
   46.1756   52.7877   28.6632 N   0  0  0  0  0  0  0  0  0  0  0  0
  2  1  1  1  0  0  0
  2  3  1  0  0  0  0
  2  5  1  0  0  0  0
  3  4  1  0  0  0  0
  3 17  1  0  0  0  0
  5  6  1  0  0  0  0
  7  6  1  6  0  0  0
  7  8  1  0  0  0  0
  7  9  1  0  0  0  0
 10  9  1  1  0  0  0
 10 11  1  0  0  0  0
 10 12  1  0  0  0  0
 11 16  1  0  0  0  0
 12 13  1  1  0  0  0
 12 14  1  0  0  0  0
 14 15  1  6  0  0  0
 14 16  1  0  0  0  0
 16 27  1  6  0  0  0
 18 19  2  0  0  0  0
 18 23  1  0  0  0  0
 19 20  1  0  0  0  0
 20 21  2  0  0  0  0
 21 22  1  0  0  0  0
 21 27  1  0  0  0  0
 22 23  2  0  0  0  0
 22 25  1  0  0  0  0
 23 24  1  0  0  0  0
 25 26  2  0  0  0  0
 26 27  1  0  0  0  0
M  END
>  <CHROM.1>
-14.39648916,53.85593304,172.49986088,64.11676192,-71.18207949,158.07206316
77.84782593,47.07402432,54.92003543,30.36720902,1.76539698,-0.90785724,0.77834830

>  <Name>
ligand

>  <RI>
0

>  <Rbt.Current_Directory>
/home/itssahil/PROJECTS/Mol_Feturizer/New_Systems/rnas/3IQN

>  <Rbt.Executable>
rbdock ($Id: //depot/dev/client3/rdock/2013.1/src/exe/rbdock.cxx#4 $)

>  <Rbt.Library>
libRbt.so (2013.1, Build901 2013/11/27)

>  <Rbt.Parameter_File>
/export/apps/rDock/src/rDock_2013.1_src/data/scripts/dock_solv.prm

>  <Rbt.Receptor>
prm/pocket_docking_6.prm

>  <SCORE>
-12.4706

>  <SCORE.INTER>
-9.07128

>  <SCORE.INTER.CONST>
1

>  <SCORE.INTER.POLAR>
0

>  <SCORE.INTER.ROT>
7

>  <SCORE.INTER.SOLV>
16.3594

>  <SCORE.INTER.VDW>
-19.7673

>  <SCORE.INTER.norm>
-0.335973

>  <SCORE.INTRA>
-3.39937

>  <SCORE.INTRA.DIHEDRAL>
-4.75266

>  <SCORE.INTRA.DIHEDRAL.0>
10.0365

>  <SCORE.INTRA.POLAR>
0

>  <SCORE.INTRA.POLAR.0>
0

>  <SCORE.INTRA.REPUL>
0

>  <SCORE.INTRA.REPUL.0>
0

>  <SCORE.INTRA.SOLV>
-0.265179

>  <SCORE.INTRA.SOLV.lig_0>
-48.6728

>  <SCORE.INTRA.VDW>
-0.890448

>  <SCORE.INTRA.VDW.0>
-1.10662

>  <SCORE.INTRA.norm>
-0.125903

>  <SCORE.RESTR>
0

>  <SCORE.RESTR.CAVITY>
0

>  <SCORE.RESTR.norm>
0

>  <SCORE.SYSTEM>
0

>  <SCORE.SYSTEM.CONST>
0

>  <SCORE.SYSTEM.DIHEDRAL>
0

>  <SCORE.SYSTEM.SOLV>
0

>  <SCORE.SYSTEM.norm>
0

>  <SCORE.heavy>
27

>  <SCORE.norm>
-0.461876

>  <RMSD>
6.613

$$$$
ligand
 OpenBabel11021811483D
libRbt.so/2013.1/901 2013/11/27
 27 29  0  0  0  0  0  0  0  0999 V2000
   48.6786   54.1160   35.3168 N   0  0  0  0  0  0  0  0  0  0  0  0
   47.2284   53.9038   35.2221 C   0  0  2  0  0  0  0  0  0  0  0  0
   46.8721   52.6918   36.0293 C   0  0  0  0  0  0  0  0  0  0  0  0
   46.1038   52.7923   36.9726 O   0  0  0  0  0  0  0  0  0  0  0  0
   46.8160   53.6826   33.7591 C   0  0  0  0  0  0  0  0  0  0  0  0
   46.9637   54.9977   32.9996 C   0  0  0  0  0  0  0  0  0  0  0  0
   45.8396   56.3050   33.5868 S   0  0  2  0  0  0  0  0  0  0  0  0
   44.1874   55.5449   33.5331 C   0  0  0  0  0  0  0  0  0  0  0  0
   45.5934   57.5790   32.2975 C   0  0  0  0  0  0  0  0  0  0  0  0
   46.8657   58.3873   32.3676 C   0  0  1  0  0  0  0  0  0  0  0  0
   47.8379   57.5204   31.8836 O   0  0  0  0  0  0  0  0  0  0  0  0
   47.0931   59.6155   31.4850 C   0  0  1  0  0  0  0  0  0  0  0  0
   46.6616   60.7999   32.0914 O   0  0  0  0  0  0  0  0  0  0  0  0
   48.6849   59.5045   31.3284 C   0  0  1  0  0  0  0  0  0  0  0  0
   49.4048   59.4679   32.5694 O   0  0  0  0  0  0  0  0  0  0  0  0
   48.4617   58.1500   30.6960 C   0  0  1  0  0  0  0  0  0  0  0  0
   47.3408   51.6050   35.7292 O   0  0  0  0  0  0  0  0  0  0  0  0
   49.3372   55.7880   26.3460 N   0  0  0  0  0  0  0  0  0  0  0  0
   48.5164   56.7948   26.6494 C   0  0  0  0  0  0  0  0  0  0  0  0
   48.4701   57.3197   27.8732 N   0  0  0  0  0  0  0  0  0  0  0  0
   49.1576   56.7738   28.8852 C   0  0  0  0  0  0  0  0  0  0  0  0
   49.9996   55.6485   28.6143 C   0  0  0  0  0  0  0  0  0  0  0  0
   50.0650   55.1792   27.2735 C   0  0  0  0  0  0  0  0  0  0  0  0
   50.8584   54.1215   26.9279 N   0  0  0  0  0  0  0  0  0  0  0  0
   50.5685   55.2891   29.7815 N   0  0  0  0  0  0  0  0  0  0  0  0
   50.1469   56.0874   30.7375 C   0  0  0  0  0  0  0  0  0  0  0  0
   49.2839   57.0391   30.2524 N   0  0  0  0  0  0  0  0  0  0  0  0
  2  1  1  6  0  0  0
  2  3  1  0  0  0  0
  2  5  1  0  0  0  0
  3  4  1  0  0  0  0
  3 17  1  0  0  0  0
  5  6  1  0  0  0  0
  7  6  1  6  0  0  0
  7  8  1  0  0  0  0
  7  9  1  0  0  0  0
 10  9  1  6  0  0  0
 10 11  1  0  0  0  0
 10 12  1  0  0  0  0
 11 16  1  0  0  0  0
 12 13  1  1  0  0  0
 12 14  1  0  0  0  0
 14 15  1  1  0  0  0
 14 16  1  0  0  0  0
 16 27  1  1  0  0  0
 18 19  2  0  0  0  0
 18 23  1  0  0  0  0
 19 20  1  0  0  0  0
 20 21  2  0  0  0  0
 21 22  1  0  0  0  0
 21 27  1  0  0  0  0
 22 23  2  0  0  0  0
 22 25  1  0  0  0  0
 23 24  1  0  0  0  0
 25 26  2  0  0  0  0
 26 27  1  0  0  0  0
M  END
>  <CHROM.1>
119.25378187,-70.19506764,-64.48224232,-53.07946947,-77.19724874,69.08456988
131.59255661,47.88314987,56.18301524,31.73364465,-2.35725144,1.04249520,-0.46648882

>  <Name>
ligand

>  <RI>
0

>  <Rbt.Current_Directory>
/home/itssahil/PROJECTS/Mol_Feturizer/New_Systems/rnas/3IQN

>  <Rbt.Executable>
rbdock ($Id: //depot/dev/client3/rdock/2013.1/src/exe/rbdock.cxx#4 $)

>  <Rbt.Library>
libRbt.so (2013.1, Build901 2013/11/27)

>  <Rbt.Parameter_File>
/export/apps/rDock/src/rDock_2013.1_src/data/scripts/dock_solv.prm

>  <Rbt.Receptor>
prm/pocket_docking_7.prm

>  <SCORE>
-22.4249

>  <SCORE.INTER>
-18.8119

>  <SCORE.INTER.CONST>
1

>  <SCORE.INTER.POLAR>
0

>  <SCORE.INTER.ROT>
7

>  <SCORE.INTER.SOLV>
11.9369

>  <SCORE.INTER.VDW>
-24.7869

>  <SCORE.INTER.norm>
-0.696739

>  <SCORE.INTRA>
-3.61294

>  <SCORE.INTRA.DIHEDRAL>
-5.14426

>  <SCORE.INTRA.DIHEDRAL.0>
10.0365

>  <SCORE.INTRA.POLAR>
0

>  <SCORE.INTRA.POLAR.0>
0

>  <SCORE.INTRA.REPUL>
0

>  <SCORE.INTRA.REPUL.0>
0

>  <SCORE.INTRA.SOLV>
0.0326589

>  <SCORE.INTRA.SOLV.lig_0>
-48.6728

>  <SCORE.INTRA.VDW>
-1.05714

>  <SCORE.INTRA.VDW.0>
-1.10662

>  <SCORE.INTRA.norm>
-0.133813

>  <SCORE.RESTR>
0

>  <SCORE.RESTR.CAVITY>
0

>  <SCORE.RESTR.norm>
0

>  <SCORE.SYSTEM>
0

>  <SCORE.SYSTEM.CONST>
0

>  <SCORE.SYSTEM.DIHEDRAL>
0

>  <SCORE.SYSTEM.SOLV>
0

>  <SCORE.SYSTEM.norm>
0

>  <SCORE.heavy>
27

>  <SCORE.norm>
-0.830551

>  <RMSD>
6.619

$$$$
ligand
 OpenBabel11021811483D
libRbt.so/2013.1/901 2013/11/27
 27 29  0  0  0  0  0  0  0  0999 V2000
   46.5625   54.0742   35.4332 N   0  0  0  0  0  0  0  0  0  0  0  0
   47.8821   54.1208   34.7900 C   0  0  2  0  0  0  0  0  0  0  0  0
   48.9290   54.2079   35.8596 C   0  0  0  0  0  0  0  0  0  0  0  0
   50.0983   53.9878   35.5869 O   0  0  0  0  0  0  0  0  0  0  0  0
   47.9854   55.3487   33.8729 C   0  0  0  0  0  0  0  0  0  0  0  0
   46.9472   55.2245   32.7617 C   0  0  0  0  0  0  0  0  0  0  0  0
   45.4569   56.2325   33.0452 S   0  0  2  0  0  0  0  0  0  0  0  0
   44.2583   55.6318   31.8152 C   0  0  0  0  0  0  0  0  0  0  0  0
   45.6844   57.9274   32.3960 C   0  0  0  0  0  0  0  0  0  0  0  0
   47.1511   57.9649   32.0434 C   0  0  1  0  0  0  0  0  0  0  0  0
   47.1932   57.4801   30.7419 O   0  0  0  0  0  0  0  0  0  0  0  0
   47.9143   59.2822   31.8973 C   0  0  1  0  0  0  0  0  0  0  0  0
   48.4994   59.7000   33.0973 O   0  0  0  0  0  0  0  0  0  0  0  0
   48.9699   58.8231   30.7813 C   0  0  1  0  0  0  0  0  0  0  0  0
   49.7480   57.6704   31.1353 O   0  0  0  0  0  0  0  0  0  0  0  0
   47.7911   58.5286   29.8824 C   0  0  1  0  0  0  0  0  0  0  0  0
   48.6084   54.5143   36.9972 O   0  0  0  0  0  0  0  0  0  0  0  0
   50.2799   55.3131   26.9269 N   0  0  0  0  0  0  0  0  0  0  0  0
   50.5978   55.8484   28.1067 C   0  0  0  0  0  0  0  0  0  0  0  0
   49.7621   56.6533   28.7617 N   0  0  0  0  0  0  0  0  0  0  0  0
   48.6146   57.0600   28.2024 C   0  0  0  0  0  0  0  0  0  0  0  0
   48.2681   56.5603   26.9066 C   0  0  0  0  0  0  0  0  0  0  0  0
   49.1651   55.6459   26.2890 C   0  0  0  0  0  0  0  0  0  0  0  0
   48.8996   55.1089   25.0606 N   0  0  0  0  0  0  0  0  0  0  0  0
   47.0879   57.1164   26.5701 N   0  0  0  0  0  0  0  0  0  0  0  0
   46.6874   57.9114   27.5378 C   0  0  0  0  0  0  0  0  0  0  0  0
   47.5750   57.9133   28.5856 N   0  0  0  0  0  0  0  0  0  0  0  0
  2  1  1  1  0  0  0
  2  3  1  0  0  0  0
  2  5  1  0  0  0  0
  3  4  1  0  0  0  0
  3 17  1  0  0  0  0
  5  6  1  0  0  0  0
  7  6  1  6  0  0  0
  7  8  1  0  0  0  0
  7  9  1  0  0  0  0
 10  9  1  6  0  0  0
 10 11  1  0  0  0  0
 10 12  1  0  0  0  0
 11 16  1  0  0  0  0
 12 13  1  1  0  0  0
 12 14  1  0  0  0  0
 14 15  1  1  0  0  0
 14 16  1  0  0  0  0
 16 27  1  6  0  0  0
 18 19  2  0  0  0  0
 18 23  1  0  0  0  0
 19 20  1  0  0  0  0
 20 21  2  0  0  0  0
 21 22  1  0  0  0  0
 21 27  1  0  0  0  0
 22 23  2  0  0  0  0
 22 25  1  0  0  0  0
 23 24  1  0  0  0  0
 25 26  2  0  0  0  0
 26 27  1  0  0  0  0
M  END
>  <CHROM.1>
165.19516364,-62.65373903,100.98351663,-167.68682681,-9.13970667,87.48318997
-87.78887682,47.89462997,56.49551407,31.14825544,-1.73573997,0.75778781,-1.25989152

>  <Name>
ligand

>  <RI>
0

>  <Rbt.Current_Directory>
/home/itssahil/PROJECTS/Mol_Feturizer/New_Systems/rnas/3IQN

>  <Rbt.Executable>
rbdock ($Id: //depot/dev/client3/rdock/2013.1/src/exe/rbdock.cxx#4 $)

>  <Rbt.Library>
libRbt.so (2013.1, Build901 2013/11/27)

>  <Rbt.Parameter_File>
/export/apps/rDock/src/rDock_2013.1_src/data/scripts/dock_solv.prm

>  <Rbt.Receptor>
prm/pocket_docking_4.prm

>  <SCORE>
-14.494

>  <SCORE.INTER>
-17.1635

>  <SCORE.INTER.CONST>
1

>  <SCORE.INTER.POLAR>
0

>  <SCORE.INTER.ROT>
7

>  <SCORE.INTER.SOLV>
13.8073

>  <SCORE.INTER.VDW>
-24.3114

>  <SCORE.INTER.norm>
-0.635684

>  <SCORE.INTRA>
2.66931

>  <SCORE.INTRA.DIHEDRAL>
5.22813

>  <SCORE.INTRA.DIHEDRAL.0>
10.0365

>  <SCORE.INTRA.POLAR>
0

>  <SCORE.INTRA.POLAR.0>
0

>  <SCORE.INTRA.REPUL>
0

>  <SCORE.INTRA.REPUL.0>
0

>  <SCORE.INTRA.SOLV>
1.17822

>  <SCORE.INTRA.SOLV.lig_0>
-48.6728

>  <SCORE.INTRA.VDW>
-0.533862

>  <SCORE.INTRA.VDW.0>
-1.10662

>  <SCORE.INTRA.norm>
0.0988633

>  <SCORE.RESTR>
0.000188009

>  <SCORE.RESTR.CAVITY>
0.000188009

>  <SCORE.RESTR.norm>
6.96331e-06

>  <SCORE.SYSTEM>
0

>  <SCORE.SYSTEM.CONST>
0

>  <SCORE.SYSTEM.DIHEDRAL>
0

>  <SCORE.SYSTEM.SOLV>
0

>  <SCORE.SYSTEM.norm>
0

>  <SCORE.heavy>
27

>  <SCORE.norm>
-0.536814

>  <RMSD>
6.628

$$$$
ligand
 OpenBabel11021811483D
libRbt.so/2013.1/901 2013/11/27
 27 29  0  0  0  0  0  0  0  0999 V2000
   45.1473   53.6965   35.3596 N   0  0  0  0  0  0  0  0  0  0  0  0
   46.3812   53.3170   34.6590 C   0  0  2  0  0  0  0  0  0  0  0  0
   47.0365   52.2042   35.4203 C   0  0  0  0  0  0  0  0  0  0  0  0
   46.6689   51.9431   36.5547 O   0  0  0  0  0  0  0  0  0  0  0  0
   47.3393   54.5149   34.5792 C   0  0  0  0  0  0  0  0  0  0  0  0
   47.0032   55.3350   33.3372 C   0  0  0  0  0  0  0  0  0  0  0  0
   45.5766   56.4444   33.5645 S   0  0  2  0  0  0  0  0  0  0  0  0
   44.1277   55.4060   33.2004 C   0  0  0  0  0  0  0  0  0  0  0  0
   45.4311   57.6126   32.1644 C   0  0  0  0  0  0  0  0  0  0  0  0
   46.6682   58.4659   32.3006 C   0  0  1  0  0  0  0  0  0  0  0  0
   47.6900   57.6478   31.8345 O   0  0  0  0  0  0  0  0  0  0  0  0
   46.8809   59.7224   31.4549 C   0  0  1  0  0  0  0  0  0  0  0  0
   46.3823   60.8752   32.0708 O   0  0  0  0  0  0  0  0  0  0  0  0
   48.4805   59.6747   31.3562 C   0  0  1  0  0  0  0  0  0  0  0  0
   49.1548   59.6357   32.6224 O   0  0  0  0  0  0  0  0  0  0  0  0
   48.3328   58.3283   30.6857 C   0  0  1  0  0  0  0  0  0  0  0  0
   47.9259   51.5529   34.8953 O   0  0  0  0  0  0  0  0  0  0  0  0
   49.2813   55.9404   26.3652 N   0  0  0  0  0  0  0  0  0  0  0  0
   48.4069   56.9025   26.6638 C   0  0  0  0  0  0  0  0  0  0  0  0
   48.3479   57.4468   27.8786 N   0  0  0  0  0  0  0  0  0  0  0  0
   49.0818   56.9616   28.8889 C   0  0  0  0  0  0  0  0  0  0  0  0
   49.9850   55.8831   28.6246 C   0  0  0  0  0  0  0  0  0  0  0  0
   50.0579   55.3933   27.2916 C   0  0  0  0  0  0  0  0  0  0  0  0
   50.9074   54.3780   26.9522 N   0  0  0  0  0  0  0  0  0  0  0  0
   50.5917   55.5801   29.7888 N   0  0  0  0  0  0  0  0  0  0  0  0
   50.1380   56.3699   30.7370 C   0  0  0  0  0  0  0  0  0  0  0  0
   49.2127   57.2597   30.2490 N   0  0  0  0  0  0  0  0  0  0  0  0
  2  1  1  1  0  0  0
  2  3  1  0  0  0  0
  2  5  1  0  0  0  0
  3  4  1  0  0  0  0
  3 17  1  0  0  0  0
  5  6  1  0  0  0  0
  7  6  1  6  0  0  0
  7  8  1  0  0  0  0
  7  9  1  0  0  0  0
 10  9  1  6  0  0  0
 10 11  1  0  0  0  0
 10 12  1  0  0  0  0
 11 16  1  0  0  0  0
 12 13  1  1  0  0  0
 12 14  1  0  0  0  0
 14 15  1  1  0  0  0
 14 16  1  0  0  0  0
 16 27  1  1  0  0  0
 18 19  2  0  0  0  0
 18 23  1  0  0  0  0
 19 20  1  0  0  0  0
 20 21  2  0  0  0  0
 21 22  1  0  0  0  0
 21 27  1  0  0  0  0
 22 23  2  0  0  0  0
 22 25  1  0  0  0  0
 23 24  1  0  0  0  0
 25 26  2  0  0  0  0
 26 27  1  0  0  0  0
M  END
>  <CHROM.1>
-13.54815530,-86.88422702,80.10726607,-85.57777194,-66.21813779,75.78792347
127.54310302,47.70536735,56.24796988,31.66849619,-2.33699848,0.99015898,-0.41865037

>  <Name>
ligand

>  <RI>
0

>  <Rbt.Current_Directory>
/home/itssahil/PROJECTS/Mol_Feturizer/New_Systems/rnas/3IQN

>  <Rbt.Executable>
rbdock ($Id: //depot/dev/client3/rdock/2013.1/src/exe/rbdock.cxx#4 $)

>  <Rbt.Library>
libRbt.so (2013.1, Build901 2013/11/27)

>  <Rbt.Parameter_File>
/export/apps/rDock/src/rDock_2013.1_src/data/scripts/dock_solv.prm

>  <Rbt.Receptor>
prm/pocket_docking_5.prm

>  <SCORE>
-20.3046

>  <SCORE.INTER>
-19.4364

>  <SCORE.INTER.CONST>
1

>  <SCORE.INTER.POLAR>
0

>  <SCORE.INTER.ROT>
7

>  <SCORE.INTER.SOLV>
12.3206

>  <SCORE.INTER.VDW>
-25.3312

>  <SCORE.INTER.norm>
-0.719867

>  <SCORE.INTRA>
-0.868207

>  <SCORE.INTRA.DIHEDRAL>
-1.31348

>  <SCORE.INTRA.DIHEDRAL.0>
10.0365

>  <SCORE.INTRA.POLAR>
0

>  <SCORE.INTRA.POLAR.0>
0

>  <SCORE.INTRA.REPUL>
0

>  <SCORE.INTRA.REPUL.0>
0

>  <SCORE.INTRA.SOLV>
1.73176

>  <SCORE.INTRA.SOLV.lig_0>
-48.6728

>  <SCORE.INTRA.VDW>
-1.07735

>  <SCORE.INTRA.VDW.0>
-1.10662

>  <SCORE.INTRA.norm>
-0.0321558

>  <SCORE.RESTR>
0

>  <SCORE.RESTR.CAVITY>
0

>  <SCORE.RESTR.norm>
0

>  <SCORE.SYSTEM>
0

>  <SCORE.SYSTEM.CONST>
0

>  <SCORE.SYSTEM.DIHEDRAL>
0

>  <SCORE.SYSTEM.SOLV>
0

>  <SCORE.SYSTEM.norm>
0

>  <SCORE.heavy>
27

>  <SCORE.norm>
-0.752023

>  <RMSD>
6.631

$$$$
ligand
 OpenBabel11021811483D
libRbt.so/2013.1/901 2013/11/27
 27 29  0  0  0  0  0  0  0  0999 V2000
   43.0955   53.3372   34.9876 N   0  0  0  0  0  0  0  0  0  0  0  0
   44.4452   52.8219   34.7230 C   0  0  2  0  0  0  0  0  0  0  0  0
   44.8991   52.0422   35.9203 C   0  0  0  0  0  0  0  0  0  0  0  0
   46.0780   51.7520   36.0472 O   0  0  0  0  0  0  0  0  0  0  0  0
   45.4191   53.9825   34.4699 C   0  0  0  0  0  0  0  0  0  0  0  0
   46.6023   53.4665   33.6563 C   0  0  0  0  0  0  0  0  0  0  0  0
   47.9234   54.7006   33.4342 S   0  0  2  0  0  0  0  0  0  0  0  0
   48.8159   54.7047   35.0197 C   0  0  0  0  0  0  0  0  0  0  0  0
   47.2459   56.3983   33.5005 C   0  0  0  0  0  0  0  0  0  0  0  0
   48.2591   57.2019   32.7230 C   0  0  1  0  0  0  0  0  0  0  0  0
   47.8970   57.0005   31.3967 O   0  0  0  0  0  0  0  0  0  0  0  0
   48.3055   58.7290   32.7924 C   0  0  1  0  0  0  0  0  0  0  0  0
   49.1548   59.1954   33.8014 O   0  0  0  0  0  0  0  0  0  0  0  0
   48.8355   59.0187   31.3072 C   0  0  1  0  0  0  0  0  0  0  0  0
   50.0646   58.3572   30.9734 O   0  0  0  0  0  0  0  0  0  0  0  0
   47.5939   58.3224   30.7996 C   0  0  1  0  0  0  0  0  0  0  0  0
   44.0884   51.7141   36.7723 O   0  0  0  0  0  0  0  0  0  0  0  0
   49.4359   56.0006   26.7395 N   0  0  0  0  0  0  0  0  0  0  0  0
   50.0256   56.3961   27.8687 C   0  0  0  0  0  0  0  0  0  0  0  0
   49.3375   56.9575   28.8620 N   0  0  0  0  0  0  0  0  0  0  0  0
   48.0412   57.2634   28.7173 C   0  0  0  0  0  0  0  0  0  0  0  0
   47.3868   56.9158   27.4928 C   0  0  0  0  0  0  0  0  0  0  0  0
   48.1554   56.2511   26.4979 C   0  0  0  0  0  0  0  0  0  0  0  0
   47.6017   55.8692   25.3083 N   0  0  0  0  0  0  0  0  0  0  0  0
   46.1087   57.3295   27.5952 N   0  0  0  0  0  0  0  0  0  0  0  0
   45.9265   57.9009   28.7652 C   0  0  0  0  0  0  0  0  0  0  0  0
   47.0752   57.8817   29.5175 N   0  0  0  0  0  0  0  0  0  0  0  0
  2  1  1  1  0  0  0
  2  3  1  0  0  0  0
  2  5  1  0  0  0  0
  3  4  1  0  0  0  0
  3 17  1  0  0  0  0
  5  6  1  0  0  0  0
  7  6  1  1  0  0  0
  7  8  1  0  0  0  0
  7  9  1  0  0  0  0
 10  9  1  1  0  0  0
 10 11  1  0  0  0  0
 10 12  1  0  0  0  0
 11 16  1  0  0  0  0
 12 13  1  1  0  0  0
 12 14  1  0  0  0  0
 14 15  1  1  0  0  0
 14 16  1  0  0  0  0
 16 27  1  6  0  0  0
 18 19  2  0  0  0  0
 18 23  1  0  0  0  0
 19 20  1  0  0  0  0
 20 21  2  0  0  0  0
 21 22  1  0  0  0  0
 21 27  1  0  0  0  0
 22 23  2  0  0  0  0
 22 25  1  0  0  0  0
 23 24  1  0  0  0  0
 25 26  2  0  0  0  0
 26 27  1  0  0  0  0
M  END
>  <CHROM.1>
-165.03565894,-156.69156094,-173.87714851,77.96902812,-155.76241793,82.27998420
-66.14415991,47.35682466,55.88926533,31.68663669,2.13110137,0.91586675,1.64214151

>  <Name>
ligand

>  <RI>
0

>  <Rbt.Current_Directory>
/home/itssahil/PROJECTS/Mol_Feturizer/New_Systems/rnas/3IQN

>  <Rbt.Executable>
rbdock ($Id: //depot/dev/client3/rdock/2013.1/src/exe/rbdock.cxx#4 $)

>  <Rbt.Library>
libRbt.so (2013.1, Build901 2013/11/27)

>  <Rbt.Parameter_File>
/export/apps/rDock/src/rDock_2013.1_src/data/scripts/dock_solv.prm

>  <Rbt.Receptor>
prm/pocket_docking_8.prm

>  <SCORE>
-12.1854

>  <SCORE.INTER>
-11.6766

>  <SCORE.INTER.CONST>
1

>  <SCORE.INTER.POLAR>
0

>  <SCORE.INTER.ROT>
7

>  <SCORE.INTER.SOLV>
15.1491

>  <SCORE.INTER.VDW>
-21.1008

>  <SCORE.INTER.norm>
-0.432469

>  <SCORE.INTRA>
-0.508794

>  <SCORE.INTRA.DIHEDRAL>
0.63556

>  <SCORE.INTRA.DIHEDRAL.0>
10.0365

>  <SCORE.INTRA.POLAR>
0

>  <SCORE.INTRA.POLAR.0>
0

>  <SCORE.INTRA.REPUL>
0

>  <SCORE.INTRA.REPUL.0>
0

>  <SCORE.INTRA.SOLV>
-0.889109

>  <SCORE.INTRA.SOLV.lig_0>
-48.6728

>  <SCORE.INTRA.VDW>
-0.382019

>  <SCORE.INTRA.VDW.0>
-1.10662

>  <SCORE.INTRA.norm>
-0.0188442

>  <SCORE.RESTR>
0

>  <SCORE.RESTR.CAVITY>
0

>  <SCORE.RESTR.norm>
0

>  <SCORE.SYSTEM>
0

>  <SCORE.SYSTEM.CONST>
0

>  <SCORE.SYSTEM.DIHEDRAL>
0

>  <SCORE.SYSTEM.SOLV>
0

>  <SCORE.SYSTEM.norm>
0

>  <SCORE.heavy>
27

>  <SCORE.norm>
-0.451313

>  <RMSD>
6.631

$$$$
ligand
 OpenBabel11021811483D
libRbt.so/2013.1/901 2013/11/27
 27 29  0  0  0  0  0  0  0  0999 V2000
   49.0820   53.9744   34.0503 N   0  0  0  0  0  0  0  0  0  0  0  0
   47.7121   53.7185   34.5144 C   0  0  2  0  0  0  0  0  0  0  0  0
   47.7193   52.4763   35.3536 C   0  0  0  0  0  0  0  0  0  0  0  0
   47.4984   52.5494   36.5520 O   0  0  0  0  0  0  0  0  0  0  0  0
   46.7714   53.5203   33.3164 C   0  0  0  0  0  0  0  0  0  0  0  0
   46.6508   54.8394   32.5589 C   0  0  0  0  0  0  0  0  0  0  0  0
   46.0790   56.2225   33.5969 S   0  0  2  0  0  0  0  0  0  0  0  0
   44.3078   55.8971   33.8564 C   0  0  0  0  0  0  0  0  0  0  0  0
   45.9309   57.7570   32.6124 C   0  0  0  0  0  0  0  0  0  0  0  0
   47.3346   57.9736   32.1027 C   0  0  1  0  0  0  0  0  0  0  0  0
   47.3042   57.4563   30.8134 O   0  0  0  0  0  0  0  0  0  0  0  0
   47.8965   59.3735   31.8508 C   0  0  1  0  0  0  0  0  0  0  0  0
   48.5434   59.9026   32.9726 O   0  0  0  0  0  0  0  0  0  0  0  0
   48.8810   59.0197   30.6358 C   0  0  1  0  0  0  0  0  0  0  0  0
   49.8381   57.9901   30.9248 O   0  0  0  0  0  0  0  0  0  0  0  0
   47.6642   58.5453   29.8752 C   0  0  1  0  0  0  0  0  0  0  0  0
   47.9309   51.3934   34.8308 O   0  0  0  0  0  0  0  0  0  0  0  0
   50.1319   55.3548   26.8752 N   0  0  0  0  0  0  0  0  0  0  0  0
   50.4971   55.9559   28.0087 C   0  0  0  0  0  0  0  0  0  0  0  0
   49.6617   56.7390   28.6900 N   0  0  0  0  0  0  0  0  0  0  0  0
   48.4568   57.0567   28.1979 C   0  0  0  0  0  0  0  0  0  0  0  0
   48.0531   56.4848   26.9495 C   0  0  0  0  0  0  0  0  0  0  0  0
   48.9585   55.5975   26.3051 C   0  0  0  0  0  0  0  0  0  0  0  0
   48.6424   54.9957   25.1196 N   0  0  0  0  0  0  0  0  0  0  0  0
   46.8220   56.9590   26.6760 N   0  0  0  0  0  0  0  0  0  0  0  0
   46.4419   57.7698   27.6389 C   0  0  0  0  0  0  0  0  0  0  0  0
   47.3971   57.8653   28.6209 N   0  0  0  0  0  0  0  0  0  0  0  0
  2  1  1  6  0  0  0
  2  3  1  0  0  0  0
  2  5  1  0  0  0  0
  3  4  1  0  0  0  0
  3 17  1  0  0  0  0
  5  6  1  0  0  0  0
  7  6  1  6  0  0  0
  7  8  1  0  0  0  0
  7  9  1  0  0  0  0
 10  9  1  6  0  0  0
 10 11  1  0  0  0  0
 10 12  1  0  0  0  0
 11 16  1  0  0  0  0
 12 13  1  1  0  0  0
 12 14  1  0  0  0  0
 14 15  1  1  0  0  0
 14 16  1  0  0  0  0
 16 27  1  6  0  0  0
 18 19  2  0  0  0  0
 18 23  1  0  0  0  0
 19 20  1  0  0  0  0
 20 21  2  0  0  0  0
 21 22  1  0  0  0  0
 21 27  1  0  0  0  0
 22 23  2  0  0  0  0
 22 25  1  0  0  0  0
 23 24  1  0  0  0  0
 25 26  2  0  0  0  0
 26 27  1  0  0  0  0
M  END
>  <CHROM.1>
112.18565022,-67.02452382,-56.47613781,-73.74511722,-59.91561554,98.17759247
-82.94883722,47.76123428,56.18115833,31.11811413,-2.17373782,1.24864594,-0.60007106

>  <Name>
ligand

>  <RI>
0

>  <Rbt.Current_Directory>
/home/itssahil/PROJECTS/Mol_Feturizer/New_Systems/rnas/3IQN

>  <Rbt.Executable>
rbdock ($Id: //depot/dev/client3/rdock/2013.1/src/exe/rbdock.cxx#4 $)

>  <Rbt.Library>
libRbt.so (2013.1, Build901 2013/11/27)

>  <Rbt.Parameter_File>
/export/apps/rDock/src/rDock_2013.1_src/data/scripts/dock_solv.prm

>  <Rbt.Receptor>
prm/pocket_docking_3.prm

>  <SCORE>
-16.5695

>  <SCORE.INTER>
-14.2652

>  <SCORE.INTER.CONST>
1

>  <SCORE.INTER.POLAR>
0

>  <SCORE.INTER.ROT>
7

>  <SCORE.INTER.SOLV>
13.2844

>  <SCORE.INTER.VDW>
-22.2049

>  <SCORE.INTER.norm>
-0.528342

>  <SCORE.INTRA>
-2.45329

>  <SCORE.INTRA.DIHEDRAL>
-2.84543

>  <SCORE.INTRA.DIHEDRAL.0>
10.0365

>  <SCORE.INTRA.POLAR>
0

>  <SCORE.INTRA.POLAR.0>
0

>  <SCORE.INTRA.REPUL>
0

>  <SCORE.INTRA.REPUL.0>
0

>  <SCORE.INTRA.SOLV>
0.430832

>  <SCORE.INTRA.SOLV.lig_0>
-48.6728

>  <SCORE.INTRA.VDW>
-1.246

>  <SCORE.INTRA.VDW.0>
-1.10662

>  <SCORE.INTRA.norm>
-0.0908627

>  <SCORE.RESTR>
0.148995

>  <SCORE.RESTR.CAVITY>
0.148995

>  <SCORE.RESTR.norm>
0.00551833

>  <SCORE.SYSTEM>
0

>  <SCORE.SYSTEM.CONST>
0

>  <SCORE.SYSTEM.DIHEDRAL>
0

>  <SCORE.SYSTEM.SOLV>
0

>  <SCORE.SYSTEM.norm>
0

>  <SCORE.heavy>
27

>  <SCORE.norm>
-0.613686

>  <RMSD>
6.632

$$$$
ligand
 OpenBabel11021811483D
libRbt.so/2013.1/901 2013/11/27
 27 29  0  0  0  0  0  0  0  0999 V2000
   49.7683   59.0062   33.9197 N   0  0  0  0  0  0  0  0  0  0  0  0
   49.0836   58.3595   32.7926 C   0  0  2  0  0  0  0  0  0  0  0  0
   48.1965   59.3714   32.1319 C   0  0  0  0  0  0  0  0  0  0  0  0
   48.6721   60.1831   31.3540 O   0  0  0  0  0  0  0  0  0  0  0  0
   48.2327   57.1815   33.2902 C   0  0  0  0  0  0  0  0  0  0  0  0
   49.1059   56.2670   34.1444 C   0  0  0  0  0  0  0  0  0  0  0  0
   48.2925   54.7009   34.5951 S   0  0  2  0  0  0  0  0  0  0  0  0
   49.2511   54.0793   36.0112 C   0  0  0  0  0  0  0  0  0  0  0  0
   48.7023   53.3851   33.3924 C   0  0  0  0  0  0  0  0  0  0  0  0
   47.9806   53.8265   32.1429 C   0  0  1  0  0  0  0  0  0  0  0  0
   48.9820   53.8799   31.1811 O   0  0  0  0  0  0  0  0  0  0  0  0
   46.9464   52.9381   31.4498 C   0  0  1  0  0  0  0  0  0  0  0  0
   45.6472   53.1604   31.9181 O   0  0  0  0  0  0  0  0  0  0  0  0
   47.1886   53.4236   29.9411 C   0  0  1  0  0  0  0  0  0  0  0  0
   47.0518   54.8381   29.7409 O   0  0  0  0  0  0  0  0  0  0  0  0
   48.6161   52.9490   30.0878 C   0  0  1  0  0  0  0  0  0  0  0  0
   46.9977   59.3689   32.3636 O   0  0  0  0  0  0  0  0  0  0  0  0
   50.1514   51.3301   25.5833 N   0  0  0  0  0  0  0  0  0  0  0  0
   48.9914   51.1764   26.2237 C   0  0  0  0  0  0  0  0  0  0  0  0
   48.7633   51.7385   27.4100 N   0  0  0  0  0  0  0  0  0  0  0  0
   49.7376   52.3801   28.0688 C   0  0  0  0  0  0  0  0  0  0  0  0
   51.0188   52.5087   27.4440 C   0  0  0  0  0  0  0  0  0  0  0  0
   51.1799   51.9522   26.1453 C   0  0  0  0  0  0  0  0  0  0  0  0
   52.3657   52.0474   25.4726 N   0  0  0  0  0  0  0  0  0  0  0  0
   51.8123   53.1797   28.3015 N   0  0  0  0  0  0  0  0  0  0  0  0
   51.1348   53.4663   29.3912 C   0  0  0  0  0  0  0  0  0  0  0  0
   49.8401   53.0155   29.3104 N   0  0  0  0  0  0  0  0  0  0  0  0
  2  1  1  1  0  0  0
  2  3  1  0  0  0  0
  2  5  1  0  0  0  0
  3  4  1  0  0  0  0
  3 17  1  0  0  0  0
  5  6  1  0  0  0  0
  7  6  1  6  0  0  0
  7  8  1  0  0  0  0
  7  9  1  0  0  0  0
 10  9  1  1  0  0  0
 10 11  1  0  0  0  0
 10 12  1  0  0  0  0
 11 16  1  0  0  0  0
 12 13  1  1  0  0  0
 12 14  1  0  0  0  0
 14 15  1  1  0  0  0
 14 16  1  0  0  0  0
 16 27  1  6  0  0  0
 18 19  2  0  0  0  0
 18 23  1  0  0  0  0
 19 20  1  0  0  0  0
 20 21  2  0  0  0  0
 21 22  1  0  0  0  0
 21 27  1  0  0  0  0
 22 23  2  0  0  0  0
 22 25  1  0  0  0  0
 23 24  1  0  0  0  0
 25 26  2  0  0  0  0
 26 27  1  0  0  0  0
M  END
>  <CHROM.1>
79.94847643,-52.10761360,-171.36381460,-161.47856373,-69.17502802,124.42773899
-170.84012982,48.93546887,54.52380334,30.79571693,-2.20210572,-1.17421313
-2.83767408

>  <Name>
ligand

>  <RI>
0

>  <Rbt.Current_Directory>
/home/itssahil/PROJECTS/Mol_Feturizer/New_Systems/rnas/3IQN

>  <Rbt.Executable>
rbdock ($Id: //depot/dev/client3/rdock/2013.1/src/exe/rbdock.cxx#4 $)

>  <Rbt.Library>
libRbt.so (2013.1, Build901 2013/11/27)

>  <Rbt.Parameter_File>
/export/apps/rDock/src/rDock_2013.1_src/data/scripts/dock_solv.prm

>  <Rbt.Receptor>
prm/pocket_docking_8.prm

>  <SCORE>
-16.8058

>  <SCORE.INTER>
-16.3746

>  <SCORE.INTER.CONST>
1

>  <SCORE.INTER.POLAR>
0

>  <SCORE.INTER.ROT>
7

>  <SCORE.INTER.SOLV>
15.4941

>  <SCORE.INTER.VDW>
-24.3478

>  <SCORE.INTER.norm>
-0.606466

>  <SCORE.INTRA>
-0.431222

>  <SCORE.INTRA.DIHEDRAL>
0.266797

>  <SCORE.INTRA.DIHEDRAL.0>
10.0365

>  <SCORE.INTRA.POLAR>
0

>  <SCORE.INTRA.POLAR.0>
0

>  <SCORE.INTRA.REPUL>
0

>  <SCORE.INTRA.REPUL.0>
0

>  <SCORE.INTRA.SOLV>
-0.344849

>  <SCORE.INTRA.SOLV.lig_0>
-48.6728

>  <SCORE.INTRA.VDW>
-0.392195

>  <SCORE.INTRA.VDW.0>
-1.10662

>  <SCORE.INTRA.norm>
-0.0159712

>  <SCORE.RESTR>
0

>  <SCORE.RESTR.CAVITY>
0

>  <SCORE.RESTR.norm>
0

>  <SCORE.SYSTEM>
0

>  <SCORE.SYSTEM.CONST>
0

>  <SCORE.SYSTEM.DIHEDRAL>
0

>  <SCORE.SYSTEM.SOLV>
0

>  <SCORE.SYSTEM.norm>
0

>  <SCORE.heavy>
27

>  <SCORE.norm>
-0.622438

>  <RMSD>
6.642

$$$$
ligand
 OpenBabel11021811483D
libRbt.so/2013.1/901 2013/11/27
 27 29  0  0  0  0  0  0  0  0999 V2000
   49.5656   54.7420   34.8976 N   0  0  0  0  0  0  0  0  0  0  0  0
   48.1834   54.6063   35.3756 C   0  0  2  0  0  0  0  0  0  0  0  0
   48.1823   53.7096   36.5770 C   0  0  0  0  0  0  0  0  0  0  0  0
   48.5083   54.1514   37.6672 O   0  0  0  0  0  0  0  0  0  0  0  0
   47.2979   53.9939   34.2801 C   0  0  0  0  0  0  0  0  0  0  0  0
   47.0562   55.0410   33.1969 C   0  0  0  0  0  0  0  0  0  0  0  0
   45.8665   56.3303   33.6866 S   0  0  2  0  0  0  0  0  0  0  0  0
   44.2542   55.4872   33.6888 C   0  0  0  0  0  0  0  0  0  0  0  0
   45.5623   57.4928   32.3075 C   0  0  0  0  0  0  0  0  0  0  0  0
   46.7847   58.3773   32.3293 C   0  0  1  0  0  0  0  0  0  0  0  0
   47.7863   57.5741   31.7979 O   0  0  0  0  0  0  0  0  0  0  0  0
   46.8984   59.6213   31.4470 C   0  0  1  0  0  0  0  0  0  0  0  0
   46.4218   60.7742   32.0800 O   0  0  0  0  0  0  0  0  0  0  0  0
   48.4858   59.6090   31.2219 C   0  0  1  0  0  0  0  0  0  0  0  0
   49.2592   59.6108   32.4308 O   0  0  0  0  0  0  0  0  0  0  0  0
   48.3188   58.2465   30.5895 C   0  0  1  0  0  0  0  0  0  0  0  0
   47.8396   52.5434   36.4619 O   0  0  0  0  0  0  0  0  0  0  0  0
   49.1103   55.9255   26.2015 N   0  0  0  0  0  0  0  0  0  0  0  0
   48.2422   56.8772   26.5481 C   0  0  0  0  0  0  0  0  0  0  0  0
   48.2281   57.4041   27.7718 N   0  0  0  0  0  0  0  0  0  0  0  0
   49.0047   56.9102   28.7453 C   0  0  0  0  0  0  0  0  0  0  0  0
   49.9036   55.8418   28.4302 C   0  0  0  0  0  0  0  0  0  0  0  0
   49.9266   55.3710   27.0885 C   0  0  0  0  0  0  0  0  0  0  0  0
   50.7684   54.3665   26.7014 N   0  0  0  0  0  0  0  0  0  0  0  0
   50.5581   55.5269   29.5650 N   0  0  0  0  0  0  0  0  0  0  0  0
   50.1373   56.3004   30.5415 C   0  0  0  0  0  0  0  0  0  0  0  0
   49.1876   57.1903   30.1032 N   0  0  0  0  0  0  0  0  0  0  0  0
  2  1  1  6  0  0  0
  2  3  1  0  0  0  0
  2  5  1  0  0  0  0
  3  4  1  0  0  0  0
  3 17  1  0  0  0  0
  5  6  1  0  0  0  0
  7  6  1  6  0  0  0
  7  8  1  0  0  0  0
  7  9  1  0  0  0  0
 10  9  1  6  0  0  0
 10 11  1  0  0  0  0
 10 12  1  0  0  0  0
 11 16  1  0  0  0  0
 12 13  1  1  0  0  0
 12 14  1  0  0  0  0
 14 15  1  1  0  0  0
 14 16  1  0  0  0  0
 16 27  1  1  0  0  0
 18 19  2  0  0  0  0
 18 23  1  0  0  0  0
 19 20  1  0  0  0  0
 20 21  2  0  0  0  0
 21 22  1  0  0  0  0
 21 27  1  0  0  0  0
 22 23  2  0  0  0  0
 22 25  1  0  0  0  0
 23 24  1  0  0  0  0
 25 26  2  0  0  0  0
 26 27  1  0  0  0  0
M  END
>  <CHROM.1>
79.33092442,-73.10180247,-74.86652063,-71.72032355,-77.88703319,74.46289469
130.66741868,48.04740951,56.43330734,31.76524862,-2.01684524,1.00677013,-0.91928266

>  <Name>
ligand

>  <RI>
0

>  <Rbt.Current_Directory>
/home/itssahil/PROJECTS/Mol_Feturizer/New_Systems/rnas/3IQN

>  <Rbt.Executable>
rbdock ($Id: //depot/dev/client3/rdock/2013.1/src/exe/rbdock.cxx#4 $)

>  <Rbt.Library>
libRbt.so (2013.1, Build901 2013/11/27)

>  <Rbt.Parameter_File>
/export/apps/rDock/src/rDock_2013.1_src/data/scripts/dock_solv.prm

>  <Rbt.Receptor>
prm/pocket_docking_6.prm

>  <SCORE>
-22.4771

>  <SCORE.INTER>
-19.624

>  <SCORE.INTER.CONST>
1

>  <SCORE.INTER.POLAR>
0

>  <SCORE.INTER.ROT>
7

>  <SCORE.INTER.SOLV>
14.4632

>  <SCORE.INTER.VDW>
-26.1704

>  <SCORE.INTER.norm>
-0.726816

>  <SCORE.INTRA>
-2.85309

>  <SCORE.INTRA.DIHEDRAL>
-4.21914

>  <SCORE.INTRA.DIHEDRAL.0>
10.0365

>  <SCORE.INTRA.POLAR>
0

>  <SCORE.INTRA.POLAR.0>
0

>  <SCORE.INTRA.REPUL>
0

>  <SCORE.INTRA.REPUL.0>
0

>  <SCORE.INTRA.SOLV>
-0.197601

>  <SCORE.INTRA.SOLV.lig_0>
-48.6728

>  <SCORE.INTRA.VDW>
-0.644719

>  <SCORE.INTRA.VDW.0>
-1.10662

>  <SCORE.INTRA.norm>
-0.10567

>  <SCORE.RESTR>
0

>  <SCORE.RESTR.CAVITY>
0

>  <SCORE.RESTR.norm>
0

>  <SCORE.SYSTEM>
0

>  <SCORE.SYSTEM.CONST>
0

>  <SCORE.SYSTEM.DIHEDRAL>
0

>  <SCORE.SYSTEM.SOLV>
0

>  <SCORE.SYSTEM.norm>
0

>  <SCORE.heavy>
27

>  <SCORE.norm>
-0.832486

>  <RMSD>
6.660

$$$$
ligand
 OpenBabel11021811483D
libRbt.so/2013.1/901 2013/11/27
 27 29  0  0  0  0  0  0  0  0999 V2000
   44.5386   53.5217   34.9874 N   0  0  0  0  0  0  0  0  0  0  0  0
   43.8013   54.7316   34.6003 C   0  0  2  0  0  0  0  0  0  0  0  0
   42.7552   54.3496   33.5968 C   0  0  0  0  0  0  0  0  0  0  0  0
   42.8421   53.2882   33.0001 O   0  0  0  0  0  0  0  0  0  0  0  0
   44.7556   55.7612   33.9769 C   0  0  0  0  0  0  0  0  0  0  0  0
   45.5443   55.0895   32.8566 C   0  0  0  0  0  0  0  0  0  0  0  0
   44.6237   54.9745   31.2892 S   0  0  2  0  0  0  0  0  0  0  0  0
   45.7538   54.1059   30.1584 C   0  0  0  0  0  0  0  0  0  0  0  0
   44.5816   56.5936   30.4390 C   0  0  0  0  0  0  0  0  0  0  0  0
   45.9413   57.1743   30.7409 C   0  0  1  0  0  0  0  0  0  0  0  0
   46.7439   56.6948   29.7130 O   0  0  0  0  0  0  0  0  0  0  0  0
   46.2152   58.6767   30.6591 C   0  0  1  0  0  0  0  0  0  0  0  0
   45.9975   59.3295   31.8770 O   0  0  0  0  0  0  0  0  0  0  0  0
   47.7554   58.6141   30.2181 C   0  0  1  0  0  0  0  0  0  0  0  0
   48.5978   57.8587   31.1009 O   0  0  0  0  0  0  0  0  0  0  0  0
   47.3039   57.8599   28.9887 C   0  0  1  0  0  0  0  0  0  0  0  0
   41.8111   55.0964   33.3920 O   0  0  0  0  0  0  0  0  0  0  0  0
   51.2992   54.8698   28.3839 N   0  0  0  0  0  0  0  0  0  0  0  0
   50.8262   55.4969   29.4621 C   0  0  0  0  0  0  0  0  0  0  0  0
   49.7033   56.2131   29.4228 N   0  0  0  0  0  0  0  0  0  0  0  0
   49.0674   56.4372   28.2651 C   0  0  0  0  0  0  0  0  0  0  0  0
   49.5818   55.8362   27.0723 C   0  0  0  0  0  0  0  0  0  0  0  0
   50.7414   55.0214   27.1895 C   0  0  0  0  0  0  0  0  0  0  0  0
   51.2852   54.3973   26.1021 N   0  0  0  0  0  0  0  0  0  0  0  0
   48.7777   56.2142   26.0595 N   0  0  0  0  0  0  0  0  0  0  0  0
   47.8257   56.9930   26.5244 C   0  0  0  0  0  0  0  0  0  0  0  0
   47.9339   57.1616   27.8830 N   0  0  0  0  0  0  0  0  0  0  0  0
  2  1  1  6  0  0  0
  2  3  1  0  0  0  0
  2  5  1  0  0  0  0
  3  4  1  0  0  0  0
  3 17  1  0  0  0  0
  5  6  1  0  0  0  0
  7  6  1  1  0  0  0
  7  8  1  0  0  0  0
  7  9  1  0  0  0  0
 10  9  1  6  0  0  0
 10 11  1  0  0  0  0
 10 12  1  0  0  0  0
 11 16  1  0  0  0  0
 12 13  1  1  0  0  0
 12 14  1  0  0  0  0
 14 15  1  1  0  0  0
 14 16  1  0  0  0  0
 16 27  1  6  0  0  0
 18 19  2  0  0  0  0
 18 23  1  0  0  0  0
 19 20  1  0  0  0  0
 20 21  2  0  0  0  0
 21 22  1  0  0  0  0
 21 27  1  0  0  0  0
 22 23  2  0  0  0  0
 22 25  1  0  0  0  0
 23 24  1  0  0  0  0
 25 26  2  0  0  0  0
 26 27  1  0  0  0  0
M  END
>  <CHROM.1>
-18.08874894,52.41161051,80.97606556,-178.42406453,36.40458527,88.22577050
-70.92953438,46.71965416,55.96376900,30.41952455,-2.96205980,0.74442467,-0.05565103

>  <Name>
ligand

>  <RI>
0

>  <Rbt.Current_Directory>
/home/itssahil/PROJECTS/Mol_Feturizer/New_Systems/rnas/3IQN

>  <Rbt.Executable>
rbdock ($Id: //depot/dev/client3/rdock/2013.1/src/exe/rbdock.cxx#4 $)

>  <Rbt.Library>
libRbt.so (2013.1, Build901 2013/11/27)

>  <Rbt.Parameter_File>
/export/apps/rDock/src/rDock_2013.1_src/data/scripts/dock_solv.prm

>  <Rbt.Receptor>
prm/pocket_docking_6.prm

>  <SCORE>
-10.2439

>  <SCORE.INTER>
-9.95911

>  <SCORE.INTER.CONST>
1

>  <SCORE.INTER.POLAR>
0

>  <SCORE.INTER.ROT>
7

>  <SCORE.INTER.SOLV>
9.70311

>  <SCORE.INTER.VDW>
-18.1404

>  <SCORE.INTER.norm>
-0.368856

>  <SCORE.INTRA>
-0.289564

>  <SCORE.INTRA.DIHEDRAL>
-1.66579

>  <SCORE.INTRA.DIHEDRAL.0>
10.0365

>  <SCORE.INTRA.POLAR>
0

>  <SCORE.INTRA.POLAR.0>
0

>  <SCORE.INTRA.REPUL>
0

>  <SCORE.INTRA.REPUL.0>
0

>  <SCORE.INTRA.SOLV>
0.69527

>  <SCORE.INTRA.SOLV.lig_0>
-48.6728

>  <SCORE.INTRA.VDW>
0.195695

>  <SCORE.INTRA.VDW.0>
-1.10662

>  <SCORE.INTRA.norm>
-0.0107246

>  <SCORE.RESTR>
0.00478991

>  <SCORE.RESTR.CAVITY>
0.00478991

>  <SCORE.RESTR.norm>
0.000177404

>  <SCORE.SYSTEM>
0

>  <SCORE.SYSTEM.CONST>
0

>  <SCORE.SYSTEM.DIHEDRAL>
0

>  <SCORE.SYSTEM.SOLV>
0

>  <SCORE.SYSTEM.norm>
0

>  <SCORE.heavy>
27

>  <SCORE.norm>
-0.379403

>  <RMSD>
6.662

$$$$
ligand
 OpenBabel11021811483D
libRbt.so/2013.1/901 2013/11/27
 27 29  0  0  0  0  0  0  0  0999 V2000
   49.5112   59.2184   33.7072 N   0  0  0  0  0  0  0  0  0  0  0  0
   49.4887   58.2994   32.5617 C   0  0  2  0  0  0  0  0  0  0  0  0
   48.9629   59.0399   31.3690 C   0  0  0  0  0  0  0  0  0  0  0  0
   48.3870   60.1057   31.5189 O   0  0  0  0  0  0  0  0  0  0  0  0
   48.5788   57.0982   32.8593 C   0  0  0  0  0  0  0  0  0  0  0  0
   49.0915   56.3870   34.1081 C   0  0  0  0  0  0  0  0  0  0  0  0
   48.3165   54.7626   34.3877 S   0  0  2  0  0  0  0  0  0  0  0  0
   49.1362   54.1157   35.8776 C   0  0  0  0  0  0  0  0  0  0  0  0
   48.9330   53.5315   33.1834 C   0  0  0  0  0  0  0  0  0  0  0  0
   48.2110   53.9049   31.9121 C   0  0  1  0  0  0  0  0  0  0  0  0
   49.2127   53.9088   30.9491 O   0  0  0  0  0  0  0  0  0  0  0  0
   47.1785   52.9794   31.2667 C   0  0  1  0  0  0  0  0  0  0  0  0
   45.8787   53.2241   31.7222 O   0  0  0  0  0  0  0  0  0  0  0  0
   47.4206   53.3846   29.7345 C   0  0  1  0  0  0  0  0  0  0  0  0
   47.2816   54.7863   29.4596 O   0  0  0  0  0  0  0  0  0  0  0  0
   48.8487   52.9208   29.9065 C   0  0  1  0  0  0  0  0  0  0  0  0
   49.1272   58.5801   30.2499 O   0  0  0  0  0  0  0  0  0  0  0  0
   50.3874   51.0703   25.4933 N   0  0  0  0  0  0  0  0  0  0  0  0
   49.2273   50.9491   26.1404 C   0  0  0  0  0  0  0  0  0  0  0  0
   48.9982   51.5722   27.2957 N   0  0  0  0  0  0  0  0  0  0  0  0
   49.9715   52.2483   27.9204 C   0  0  0  0  0  0  0  0  0  0  0  0
   51.2529   52.3455   27.2901 C   0  0  0  0  0  0  0  0  0  0  0  0
   51.4150   51.7221   26.0223 C   0  0  0  0  0  0  0  0  0  0  0  0
   52.6010   51.7834   25.3459 N   0  0  0  0  0  0  0  0  0  0  0  0
   52.0453   53.0613   28.1116 N   0  0  0  0  0  0  0  0  0  0  0  0
   51.3671   53.4037   29.1847 C   0  0  0  0  0  0  0  0  0  0  0  0
   50.0729   52.9479   29.1271 N   0  0  0  0  0  0  0  0  0  0  0  0
  2  1  1  1  0  0  0
  2  3  1  0  0  0  0
  2  5  1  0  0  0  0
  3  4  1  0  0  0  0
  3 17  1  0  0  0  0
  5  6  1  0  0  0  0
  7  6  1  6  0  0  0
  7  8  1  0  0  0  0
  7  9  1  0  0  0  0
 10  9  1  1  0  0  0
 10 11  1  0  0  0  0
 10 12  1  0  0  0  0
 11 16  1  0  0  0  0
 12 13  1  1  0  0  0
 12 14  1  0  0  0  0
 14 15  1  1  0  0  0
 14 16  1  0  0  0  0
 16 27  1  6  0  0  0
 18 19  2  0  0  0  0
 18 23  1  0  0  0  0
 19 20  1  0  0  0  0
 20 21  2  0  0  0  0
 21 22  1  0  0  0  0
 21 27  1  0  0  0  0
 22 23  2  0  0  0  0
 22 25  1  0  0  0  0
 23 24  1  0  0  0  0
 25 26  2  0  0  0  0
 26 27  1  0  0  0  0
M  END
>  <CHROM.1>
-15.25395980,-58.44381119,-168.44448770,178.00313532,-75.54778204,132.84189468
-170.78811151,49.19404994,54.44367626,30.52750096,-2.12850825,-1.13164257
-2.75921831

>  <Name>
ligand

>  <RI>
0

>  <Rbt.Current_Directory>
/home/itssahil/PROJECTS/Mol_Feturizer/New_Systems/rnas/3IQN

>  <Rbt.Executable>
rbdock ($Id: //depot/dev/client3/rdock/2013.1/src/exe/rbdock.cxx#4 $)

>  <Rbt.Library>
libRbt.so (2013.1, Build901 2013/11/27)

>  <Rbt.Parameter_File>
/export/apps/rDock/src/rDock_2013.1_src/data/scripts/dock_solv.prm

>  <Rbt.Receptor>
prm/pocket_docking_7.prm

>  <SCORE>
-18.4924

>  <SCORE.INTER>
-16.0836

>  <SCORE.INTER.CONST>
1

>  <SCORE.INTER.POLAR>
0

>  <SCORE.INTER.ROT>
7

>  <SCORE.INTER.SOLV>
16.1541

>  <SCORE.INTER.VDW>
-24.3738

>  <SCORE.INTER.norm>
-0.595688

>  <SCORE.INTRA>
-2.40885

>  <SCORE.INTRA.DIHEDRAL>
-1.65285

>  <SCORE.INTRA.DIHEDRAL.0>
10.0365

>  <SCORE.INTRA.POLAR>
0

>  <SCORE.INTRA.POLAR.0>
0

>  <SCORE.INTRA.REPUL>
0

>  <SCORE.INTRA.REPUL.0>
0

>  <SCORE.INTRA.SOLV>
-0.324337

>  <SCORE.INTRA.SOLV.lig_0>
-48.6728

>  <SCORE.INTRA.VDW>
-1.42026

>  <SCORE.INTRA.VDW.0>
-1.10662

>  <SCORE.INTRA.norm>
-0.0892168

>  <SCORE.RESTR>
0

>  <SCORE.RESTR.CAVITY>
0

>  <SCORE.RESTR.norm>
0

>  <SCORE.SYSTEM>
0

>  <SCORE.SYSTEM.CONST>
0

>  <SCORE.SYSTEM.DIHEDRAL>
0

>  <SCORE.SYSTEM.SOLV>
0

>  <SCORE.SYSTEM.norm>
0

>  <SCORE.heavy>
27

>  <SCORE.norm>
-0.684905

>  <RMSD>
6.682

$$$$
ligand
 OpenBabel11021811483D
libRbt.so/2013.1/901 2013/11/27
 27 29  0  0  0  0  0  0  0  0999 V2000
   41.7064   53.3218   32.7057 N   0  0  0  0  0  0  0  0  0  0  0  0
   42.7450   53.7874   33.6341 C   0  0  2  0  0  0  0  0  0  0  0  0
   42.1282   53.9586   34.9897 C   0  0  0  0  0  0  0  0  0  0  0  0
   42.7077   53.5413   35.9798 O   0  0  0  0  0  0  0  0  0  0  0  0
   43.3199   55.1309   33.1610 C   0  0  0  0  0  0  0  0  0  0  0  0
   44.5951   55.4266   33.9451 C   0  0  0  0  0  0  0  0  0  0  0  0
   45.5163   56.8665   33.3160 S   0  0  2  0  0  0  0  0  0  0  0  0
   45.3719   56.7460   31.5063 C   0  0  0  0  0  0  0  0  0  0  0  0
   47.3199   56.5995   33.4621 C   0  0  0  0  0  0  0  0  0  0  0  0
   47.4780   55.1371   33.1249 C   0  0  1  0  0  0  0  0  0  0  0  0
   48.1385   55.1467   31.9025 O   0  0  0  0  0  0  0  0  0  0  0  0
   48.3777   54.2110   33.9446 C   0  0  1  0  0  0  0  0  0  0  0  0
   47.6935   53.5871   34.9930 O   0  0  0  0  0  0  0  0  0  0  0  0
   48.8242   53.2136   32.7713 C   0  0  1  0  0  0  0  0  0  0  0  0
   47.7364   52.5918   32.0715 O   0  0  0  0  0  0  0  0  0  0  0  0
   49.4154   54.4130   32.0669 C   0  0  1  0  0  0  0  0  0  0  0  0
   41.0545   54.5296   35.0988 O   0  0  0  0  0  0  0  0  0  0  0  0
   50.0621   51.9285   27.7451 N   0  0  0  0  0  0  0  0  0  0  0  0
   49.5221   51.5492   28.9044 C   0  0  0  0  0  0  0  0  0  0  0  0
   49.3967   52.3902   29.9303 N   0  0  0  0  0  0  0  0  0  0  0  0
   49.9235   53.6210   29.8824 C   0  0  0  0  0  0  0  0  0  0  0  0
   50.5715   54.0436   28.6781 C   0  0  0  0  0  0  0  0  0  0  0  0
   50.6087   53.1277   27.5910 C   0  0  0  0  0  0  0  0  0  0  0  0
   51.1925   53.4597   26.4007 N   0  0  0  0  0  0  0  0  0  0  0  0
   51.0134   55.2994   28.8856 N   0  0  0  0  0  0  0  0  0  0  0  0
   50.6994   55.6776   30.1051 C   0  0  0  0  0  0  0  0  0  0  0  0
   50.0106   54.6953   30.7735 N   0  0  0  0  0  0  0  0  0  0  0  0
  2  1  1  6  0  0  0
  2  3  1  0  0  0  0
  2  5  1  0  0  0  0
  3  4  1  0  0  0  0
  3 17  1  0  0  0  0
  5  6  1  0  0  0  0
  7  6  1  1  0  0  0
  7  8  1  0  0  0  0
  7  9  1  0  0  0  0
 10  9  1  1  0  0  0
 10 11  1  0  0  0  0
 10 12  1  0  0  0  0
 11 16  1  0  0  0  0
 12 13  1  1  0  0  0
 12 14  1  0  0  0  0
 14 15  1  6  0  0  0
 14 16  1  0  0  0  0
 16 27  1  6  0  0  0
 18 19  2  0  0  0  0
 18 23  1  0  0  0  0
 19 20  1  0  0  0  0
 20 21  2  0  0  0  0
 21 22  1  0  0  0  0
 21 27  1  0  0  0  0
 22 23  2  0  0  0  0
 22 25  1  0  0  0  0
 23 24  1  0  0  0  0
 25 26  2  0  0  0  0
 26 27  1  0  0  0  0
M  END
>  <CHROM.1>
135.06133422,-167.05934540,171.42217036,-38.97086430,38.06181738,111.27814106
-102.32943211,47.11610625,54.36069418,31.92691862,2.64548245,0.44731404,0.69991285

>  <Name>
ligand

>  <RI>
0

>  <Rbt.Current_Directory>
/home/itssahil/PROJECTS/Mol_Feturizer/New_Systems/rnas/3IQN

>  <Rbt.Executable>
rbdock ($Id: //depot/dev/client3/rdock/2013.1/src/exe/rbdock.cxx#4 $)

>  <Rbt.Library>
libRbt.so (2013.1, Build901 2013/11/27)

>  <Rbt.Parameter_File>
/export/apps/rDock/src/rDock_2013.1_src/data/scripts/dock_solv.prm

>  <Rbt.Receptor>
prm/pocket_docking_7.prm

>  <SCORE>
-13.4059

>  <SCORE.INTER>
-13.7936

>  <SCORE.INTER.CONST>
1

>  <SCORE.INTER.POLAR>
0

>  <SCORE.INTER.ROT>
7

>  <SCORE.INTER.SOLV>
6.15437

>  <SCORE.INTER.VDW>
-19.5139

>  <SCORE.INTER.norm>
-0.510874

>  <SCORE.INTRA>
0.387749

>  <SCORE.INTRA.DIHEDRAL>
1.63025

>  <SCORE.INTRA.DIHEDRAL.0>
10.0365

>  <SCORE.INTRA.POLAR>
0

>  <SCORE.INTRA.POLAR.0>
0

>  <SCORE.INTRA.REPUL>
0

>  <SCORE.INTRA.REPUL.0>
0

>  <SCORE.INTRA.SOLV>
-0.764387

>  <SCORE.INTRA.SOLV.lig_0>
-48.6728

>  <SCORE.INTRA.VDW>
-0.0451801

>  <SCORE.INTRA.VDW.0>
-1.10662

>  <SCORE.INTRA.norm>
0.0143611

>  <SCORE.RESTR>
0

>  <SCORE.RESTR.CAVITY>
0

>  <SCORE.RESTR.norm>
0

>  <SCORE.SYSTEM>
0

>  <SCORE.SYSTEM.CONST>
0

>  <SCORE.SYSTEM.DIHEDRAL>
0

>  <SCORE.SYSTEM.SOLV>
0

>  <SCORE.SYSTEM.norm>
0

>  <SCORE.heavy>
27

>  <SCORE.norm>
-0.496513

>  <RMSD>
6.692

$$$$
ligand
 OpenBabel11021811483D
libRbt.so/2013.1/901 2013/11/27
 27 29  0  0  0  0  0  0  0  0999 V2000
   46.7188   57.3535   32.5345 N   0  0  0  0  0  0  0  0  0  0  0  0
   47.9207   58.1919   32.6333 C   0  0  2  0  0  0  0  0  0  0  0  0
   47.8719   59.2221   31.5453 C   0  0  0  0  0  0  0  0  0  0  0  0
   48.4504   60.2874   31.6887 O   0  0  0  0  0  0  0  0  0  0  0  0
   49.1844   57.3343   32.4686 C   0  0  0  0  0  0  0  0  0  0  0  0
   49.4734   56.6215   33.7864 C   0  0  0  0  0  0  0  0  0  0  0  0
   48.4142   55.1676   34.0724 S   0  0  2  0  0  0  0  0  0  0  0  0
   48.9565   54.5170   35.6827 C   0  0  0  0  0  0  0  0  0  0  0  0
   48.9382   53.7641   33.0229 C   0  0  0  0  0  0  0  0  0  0  0  0
   48.2026   54.0111   31.7287 C   0  0  1  0  0  0  0  0  0  0  0  0
   49.2077   54.0107   30.7692 O   0  0  0  0  0  0  0  0  0  0  0  0
   47.2292   52.9868   31.1436 C   0  0  1  0  0  0  0  0  0  0  0  0
   45.9149   53.1846   31.5800 O   0  0  0  0  0  0  0  0  0  0  0  0
   47.4556   53.3047   29.5885 C   0  0  1  0  0  0  0  0  0  0  0  0
   47.2369   54.6750   29.2223 O   0  0  0  0  0  0  0  0  0  0  0  0
   48.9073   52.9371   29.7929 C   0  0  1  0  0  0  0  0  0  0  0  0
   47.2657   58.9839   30.5126 O   0  0  0  0  0  0  0  0  0  0  0  0
   50.5209   51.0197   25.4353 N   0  0  0  0  0  0  0  0  0  0  0  0
   49.3638   50.8767   26.0834 C   0  0  0  0  0  0  0  0  0  0  0  0
   49.1102   51.5231   27.2206 N   0  0  0  0  0  0  0  0  0  0  0  0
   50.0581   52.2491   27.8282 C   0  0  0  0  0  0  0  0  0  0  0  0
   51.3372   52.3728   27.1979 C   0  0  0  0  0  0  0  0  0  0  0  0
   51.5242   51.7207   25.9481 C   0  0  0  0  0  0  0  0  0  0  0  0
   52.7092   51.8039   25.2725 N   0  0  0  0  0  0  0  0  0  0  0  0
   52.1024   53.1377   28.0008 N   0  0  0  0  0  0  0  0  0  0  0  0
   51.4098   53.4860   29.0628 C   0  0  0  0  0  0  0  0  0  0  0  0
   50.1321   52.9847   29.0153 N   0  0  0  0  0  0  0  0  0  0  0  0
  2  1  1  6  0  0  0
  2  3  1  0  0  0  0
  2  5  1  0  0  0  0
  3  4  1  0  0  0  0
  3 17  1  0  0  0  0
  5  6  1  0  0  0  0
  7  6  1  6  0  0  0
  7  8  1  0  0  0  0
  7  9  1  0  0  0  0
 10  9  1  1  0  0  0
 10 11  1  0  0  0  0
 10 12  1  0  0  0  0
 11 16  1  0  0  0  0
 12 13  1  1  0  0  0
 12 14  1  0  0  0  0
 14 15  1  1  0  0  0
 14 16  1  0  0  0  0
 16 27  1  6  0  0  0
 18 19  2  0  0  0  0
 18 23  1  0  0  0  0
 19 20  1  0  0  0  0
 20 21  2  0  0  0  0
 21 22  1  0  0  0  0
 21 27  1  0  0  0  0
 22 23  2  0  0  0  0
 22 25  1  0  0  0  0
 23 24  1  0  0  0  0
 25 26  2  0  0  0  0
 26 27  1  0  0  0  0
M  END
>  <CHROM.1>
153.52800966,-79.20854181,78.11766285,-179.97734010,-86.05714088,125.51673509
-168.21945775,49.00604009,54.47877406,30.37552881,-2.60574093,-1.20189590
3.00462260

>  <Name>
ligand

>  <RI>
0

>  <Rbt.Current_Directory>
/home/itssahil/PROJECTS/Mol_Feturizer/New_Systems/rnas/3IQN

>  <Rbt.Executable>
rbdock ($Id: //depot/dev/client3/rdock/2013.1/src/exe/rbdock.cxx#4 $)

>  <Rbt.Library>
libRbt.so (2013.1, Build901 2013/11/27)

>  <Rbt.Parameter_File>
/export/apps/rDock/src/rDock_2013.1_src/data/scripts/dock_solv.prm

>  <Rbt.Receptor>
prm/pocket_docking_8.prm

>  <SCORE>
-17.4789

>  <SCORE.INTER>
-16.7245

>  <SCORE.INTER.CONST>
1

>  <SCORE.INTER.POLAR>
0

>  <SCORE.INTER.ROT>
7

>  <SCORE.INTER.SOLV>
8.91146

>  <SCORE.INTER.VDW>
-22.3869

>  <SCORE.INTER.norm>
-0.619428

>  <SCORE.INTRA>
-0.754309

>  <SCORE.INTRA.DIHEDRAL>
1.73228

>  <SCORE.INTRA.DIHEDRAL.0>
10.0365

>  <SCORE.INTRA.POLAR>
0

>  <SCORE.INTRA.POLAR.0>
0

>  <SCORE.INTRA.REPUL>
0

>  <SCORE.INTRA.REPUL.0>
0

>  <SCORE.INTRA.SOLV>
1.43678

>  <SCORE.INTRA.SOLV.lig_0>
-48.6728

>  <SCORE.INTRA.VDW>
-2.33884

>  <SCORE.INTRA.VDW.0>
-1.10662

>  <SCORE.INTRA.norm>
-0.0279374

>  <SCORE.RESTR>
0

>  <SCORE.RESTR.CAVITY>
0

>  <SCORE.RESTR.norm>
0

>  <SCORE.SYSTEM>
0

>  <SCORE.SYSTEM.CONST>
0

>  <SCORE.SYSTEM.DIHEDRAL>
0

>  <SCORE.SYSTEM.SOLV>
0

>  <SCORE.SYSTEM.norm>
0

>  <SCORE.heavy>
27

>  <SCORE.norm>
-0.647365

>  <RMSD>
6.702

$$$$
ligand
 OpenBabel11021811483D
libRbt.so/2013.1/901 2013/11/27
 27 29  0  0  0  0  0  0  0  0999 V2000
   49.1565   53.4087   33.7171 N   0  0  0  0  0  0  0  0  0  0  0  0
   49.2989   54.5468   34.6347 C   0  0  2  0  0  0  0  0  0  0  0  0
   48.9260   54.0940   36.0143 C   0  0  0  0  0  0  0  0  0  0  0  0
   49.2440   54.7658   36.9827 O   0  0  0  0  0  0  0  0  0  0  0  0
   48.3740   55.6960   34.2067 C   0  0  0  0  0  0  0  0  0  0  0  0
   46.9467   55.1676   34.0978 C   0  0  0  0  0  0  0  0  0  0  0  0
   45.7218   56.4599   33.7145 S   0  0  2  0  0  0  0  0  0  0  0  0
   44.1161   55.6093   33.8071 C   0  0  0  0  0  0  0  0  0  0  0  0
   45.7210   56.8460   31.9266 C   0  0  0  0  0  0  0  0  0  0  0  0
   47.1559   57.2279   31.6581 C   0  0  1  0  0  0  0  0  0  0  0  0
   47.3192   56.9765   30.3013 O   0  0  0  0  0  0  0  0  0  0  0  0
   47.6391   58.6757   31.7549 C   0  0  1  0  0  0  0  0  0  0  0  0
   48.1054   59.0021   33.0327 O   0  0  0  0  0  0  0  0  0  0  0  0
   48.7861   58.6191   30.6360 C   0  0  1  0  0  0  0  0  0  0  0  0
   49.7749   57.6007   30.8472 O   0  0  0  0  0  0  0  0  0  0  0  0
   47.7080   58.2466   29.6444 C   0  0  1  0  0  0  0  0  0  0  0  0
   48.2911   53.0616   36.1620 O   0  0  0  0  0  0  0  0  0  0  0  0
   50.2305   55.0299   26.7190 N   0  0  0  0  0  0  0  0  0  0  0  0
   50.4031   55.3777   27.9952 C   0  0  0  0  0  0  0  0  0  0  0  0
   49.5791   56.2248   28.6107 N   0  0  0  0  0  0  0  0  0  0  0  0
   48.6130   56.8617   27.9355 C   0  0  0  0  0  0  0  0  0  0  0  0
   48.4377   56.5660   26.5461 C   0  0  0  0  0  0  0  0  0  0  0  0
   49.3002   55.5978   25.9622 C   0  0  0  0  0  0  0  0  0  0  0  0
   49.1872   55.2457   24.6466 N   0  0  0  0  0  0  0  0  0  0  0  0
   47.4202   57.3303   26.1036 N   0  0  0  0  0  0  0  0  0  0  0  0
   46.9641   58.0666   27.0928 C   0  0  0  0  0  0  0  0  0  0  0  0
   47.6447   57.8174   28.2592 N   0  0  0  0  0  0  0  0  0  0  0  0
  2  1  1  6  0  0  0
  2  3  1  0  0  0  0
  2  5  1  0  0  0  0
  3  4  1  0  0  0  0
  3 17  1  0  0  0  0
  5  6  1  0  0  0  0
  7  6  1  6  0  0  0
  7  8  1  0  0  0  0
  7  9  1  0  0  0  0
 10  9  1  6  0  0  0
 10 11  1  0  0  0  0
 10 12  1  0  0  0  0
 11 16  1  0  0  0  0
 12 13  1  1  0  0  0
 12 14  1  0  0  0  0
 14 15  1  1  0  0  0
 14 16  1  0  0  0  0
 16 27  1  6  0  0  0
 18 19  2  0  0  0  0
 18 23  1  0  0  0  0
 19 20  1  0  0  0  0
 20 21  2  0  0  0  0
 21 22  1  0  0  0  0
 21 27  1  0  0  0  0
 22 23  2  0  0  0  0
 22 25  1  0  0  0  0
 23 24  1  0  0  0  0
 25 26  2  0  0  0  0
 26 27  1  0  0  0  0
M  END
>  <CHROM.1>
163.75057715,54.43057411,175.76266020,-174.50638902,-56.43613456,155.71209298
-66.39336024,48.01882645,56.29744191,31.11850419,-1.73564621,0.76404639,-1.26912366

>  <Name>
ligand

>  <RI>
0

>  <Rbt.Current_Directory>
/home/itssahil/PROJECTS/Mol_Feturizer/New_Systems/rnas/3IQN

>  <Rbt.Executable>
rbdock ($Id: //depot/dev/client3/rdock/2013.1/src/exe/rbdock.cxx#4 $)

>  <Rbt.Library>
libRbt.so (2013.1, Build901 2013/11/27)

>  <Rbt.Parameter_File>
/export/apps/rDock/src/rDock_2013.1_src/data/scripts/dock_solv.prm

>  <Rbt.Receptor>
prm/pocket_docking_6.prm

>  <SCORE>
-20.4813

>  <SCORE.INTER>
-17.433

>  <SCORE.INTER.CONST>
1

>  <SCORE.INTER.POLAR>
0

>  <SCORE.INTER.ROT>
7

>  <SCORE.INTER.SOLV>
15.9224

>  <SCORE.INTER.VDW>
-25.1961

>  <SCORE.INTER.norm>
-0.645667

>  <SCORE.INTRA>
-3.04833

>  <SCORE.INTRA.DIHEDRAL>
-4.34182

>  <SCORE.INTRA.DIHEDRAL.0>
10.0365

>  <SCORE.INTRA.POLAR>
0

>  <SCORE.INTRA.POLAR.0>
0

>  <SCORE.INTRA.REPUL>
0

>  <SCORE.INTRA.REPUL.0>
0

>  <SCORE.INTRA.SOLV>
0.272471

>  <SCORE.INTRA.SOLV.lig_0>
-48.6728

>  <SCORE.INTRA.VDW>
-1.01365

>  <SCORE.INTRA.VDW.0>
-1.10662

>  <SCORE.INTRA.norm>
-0.112901

>  <SCORE.RESTR>
0

>  <SCORE.RESTR.CAVITY>
0

>  <SCORE.RESTR.norm>
0

>  <SCORE.SYSTEM>
0

>  <SCORE.SYSTEM.CONST>
0

>  <SCORE.SYSTEM.DIHEDRAL>
0

>  <SCORE.SYSTEM.SOLV>
0

>  <SCORE.SYSTEM.norm>
0

>  <SCORE.heavy>
27

>  <SCORE.norm>
-0.758568

>  <RMSD>
6.706

$$$$
ligand
 OpenBabel11021811483D
libRbt.so/2013.1/901 2013/11/27
 27 29  0  0  0  0  0  0  0  0999 V2000
   48.4672   53.0402   34.0715 N   0  0  0  0  0  0  0  0  0  0  0  0
   47.8637   53.6694   35.2535 C   0  0  2  0  0  0  0  0  0  0  0  0
   47.6892   52.6223   36.3121 C   0  0  0  0  0  0  0  0  0  0  0  0
   48.0697   52.8387   37.4516 O   0  0  0  0  0  0  0  0  0  0  0  0
   46.4951   54.2695   34.8980 C   0  0  0  0  0  0  0  0  0  0  0  0
   46.6978   55.4065   33.9009 C   0  0  0  0  0  0  0  0  0  0  0  0
   45.2286   56.4637   33.6975 S   0  0  2  0  0  0  0  0  0  0  0  0
   43.8902   55.3083   33.2685 C   0  0  0  0  0  0  0  0  0  0  0  0
   45.3048   57.3873   32.1205 C   0  0  0  0  0  0  0  0  0  0  0  0
   46.4968   58.2928   32.3112 C   0  0  1  0  0  0  0  0  0  0  0  0
   47.5684   57.5321   31.8599 O   0  0  0  0  0  0  0  0  0  0  0  0
   46.6762   59.5755   31.4980 C   0  0  1  0  0  0  0  0  0  0  0  0
   46.1073   60.6910   32.1217 O   0  0  0  0  0  0  0  0  0  0  0  0
   48.2785   59.6026   31.4468 C   0  0  1  0  0  0  0  0  0  0  0  0
   48.9166   59.5668   32.7318 O   0  0  0  0  0  0  0  0  0  0  0  0
   48.2125   58.2656   30.7451 C   0  0  1  0  0  0  0  0  0  0  0  0
   47.1522   51.5620   36.0324 O   0  0  0  0  0  0  0  0  0  0  0  0
   49.3151   55.9323   26.4312 N   0  0  0  0  0  0  0  0  0  0  0  0
   48.3867   56.8442   26.7247 C   0  0  0  0  0  0  0  0  0  0  0  0
   48.2912   57.3849   27.9387 N   0  0  0  0  0  0  0  0  0  0  0  0
   49.0460   56.9421   28.9531 C   0  0  0  0  0  0  0  0  0  0  0  0
   50.0094   55.9156   28.6943 C   0  0  0  0  0  0  0  0  0  0  0  0
   50.1163   55.4300   27.3620 C   0  0  0  0  0  0  0  0  0  0  0  0
   51.0230   54.4636   27.0278 N   0  0  0  0  0  0  0  0  0  0  0  0
   50.6262   55.6476   29.8617 N   0  0  0  0  0  0  0  0  0  0  0  0
   50.1241   56.4113   30.8070 C   0  0  0  0  0  0  0  0  0  0  0  0
   49.1531   57.2477   30.3136 N   0  0  0  0  0  0  0  0  0  0  0  0
  2  1  1  6  0  0  0
  2  3  1  0  0  0  0
  2  5  1  0  0  0  0
  3  4  1  0  0  0  0
  3 17  1  0  0  0  0
  5  6  1  0  0  0  0
  7  6  1  6  0  0  0
  7  8  1  0  0  0  0
  7  9  1  0  0  0  0
 10  9  1  6  0  0  0
 10 11  1  0  0  0  0
 10 12  1  0  0  0  0
 11 16  1  0  0  0  0
 12 13  1  1  0  0  0
 12 14  1  0  0  0  0
 14 15  1  1  0  0  0
 14 16  1  0  0  0  0
 16 27  1  1  0  0  0
 18 19  2  0  0  0  0
 18 23  1  0  0  0  0
 19 20  1  0  0  0  0
 20 21  2  0  0  0  0
 21 22  1  0  0  0  0
 21 27  1  0  0  0  0
 22 23  2  0  0  0  0
 22 25  1  0  0  0  0
 23 24  1  0  0  0  0
 25 26  2  0  0  0  0
 26 27  1  0  0  0  0
M  END
>  <CHROM.1>
131.16326523,-65.08448639,-166.05960540,-54.39834491,-65.06603992,88.87080253
125.57471399,47.78964518,56.24286616,31.83347376,-2.09457969,0.93014328,-0.71953235

>  <Name>
ligand

>  <RI>
0

>  <Rbt.Current_Directory>
/home/itssahil/PROJECTS/Mol_Feturizer/New_Systems/rnas/3IQN

>  <Rbt.Executable>
rbdock ($Id: //depot/dev/client3/rdock/2013.1/src/exe/rbdock.cxx#4 $)

>  <Rbt.Library>
libRbt.so (2013.1, Build901 2013/11/27)

>  <Rbt.Parameter_File>
/export/apps/rDock/src/rDock_2013.1_src/data/scripts/dock_solv.prm

>  <Rbt.Receptor>
prm/pocket_docking_5.prm

>  <SCORE>
-23.2718

>  <SCORE.INTER>
-20.2966

>  <SCORE.INTER.CONST>
1

>  <SCORE.INTER.POLAR>
0

>  <SCORE.INTER.ROT>
7

>  <SCORE.INTER.SOLV>
13.8619

>  <SCORE.INTER.VDW>
-26.4183

>  <SCORE.INTER.norm>
-0.751724

>  <SCORE.INTRA>
-2.97525

>  <SCORE.INTRA.DIHEDRAL>
-3.27266

>  <SCORE.INTRA.DIHEDRAL.0>
10.0365

>  <SCORE.INTRA.POLAR>
0

>  <SCORE.INTRA.POLAR.0>
0

>  <SCORE.INTRA.REPUL>
0

>  <SCORE.INTRA.REPUL.0>
0

>  <SCORE.INTRA.SOLV>
-0.505341

>  <SCORE.INTRA.SOLV.lig_0>
-48.6728

>  <SCORE.INTRA.VDW>
-1.08625

>  <SCORE.INTRA.VDW.0>
-1.10662

>  <SCORE.INTRA.norm>
-0.110195

>  <SCORE.RESTR>
0

>  <SCORE.RESTR.CAVITY>
0

>  <SCORE.RESTR.norm>
0

>  <SCORE.SYSTEM>
0

>  <SCORE.SYSTEM.CONST>
0

>  <SCORE.SYSTEM.DIHEDRAL>
0

>  <SCORE.SYSTEM.SOLV>
0

>  <SCORE.SYSTEM.norm>
0

>  <SCORE.heavy>
27

>  <SCORE.norm>
-0.861919

>  <RMSD>
6.710

$$$$
ligand
 OpenBabel11021811483D
libRbt.so/2013.1/901 2013/11/27
 27 29  0  0  0  0  0  0  0  0999 V2000
   48.3135   52.9268   33.9750 N   0  0  0  0  0  0  0  0  0  0  0  0
   47.8321   53.5873   35.1954 C   0  0  2  0  0  0  0  0  0  0  0  0
   47.6707   52.5494   36.2651 C   0  0  0  0  0  0  0  0  0  0  0  0
   47.9907   52.8050   37.4151 O   0  0  0  0  0  0  0  0  0  0  0  0
   46.4798   54.2679   34.9356 C   0  0  0  0  0  0  0  0  0  0  0  0
   46.6705   55.3640   33.8914 C   0  0  0  0  0  0  0  0  0  0  0  0
   45.2235   56.4557   33.7130 S   0  0  2  0  0  0  0  0  0  0  0  0
   43.8516   55.3328   33.3039 C   0  0  0  0  0  0  0  0  0  0  0  0
   45.2962   57.3801   32.1363 C   0  0  0  0  0  0  0  0  0  0  0  0
   46.4932   58.2799   32.3218 C   0  0  1  0  0  0  0  0  0  0  0  0
   47.5603   57.5113   31.8732 O   0  0  0  0  0  0  0  0  0  0  0  0
   46.6790   59.5578   31.5023 C   0  0  1  0  0  0  0  0  0  0  0  0
   46.1166   60.6793   32.1212 O   0  0  0  0  0  0  0  0  0  0  0  0
   48.2813   59.5759   31.4498 C   0  0  1  0  0  0  0  0  0  0  0  0
   48.9202   59.5428   32.7344 O   0  0  0  0  0  0  0  0  0  0  0  0
   48.2075   58.2360   30.7544 C   0  0  1  0  0  0  0  0  0  0  0  0
   47.2045   51.4567   35.9833 O   0  0  0  0  0  0  0  0  0  0  0  0
   49.3477   55.9322   26.4346 N   0  0  0  0  0  0  0  0  0  0  0  0
   48.4260   56.8524   26.7230 C   0  0  0  0  0  0  0  0  0  0  0  0
   48.3185   57.3822   27.9408 N   0  0  0  0  0  0  0  0  0  0  0  0
   49.0523   56.9201   28.9621 C   0  0  0  0  0  0  0  0  0  0  0  0
   50.0070   55.8846   28.7076 C   0  0  0  0  0  0  0  0  0  0  0  0
   50.1285   55.4109   27.3723 C   0  0  0  0  0  0  0  0  0  0  0  0
   51.0284   54.4368   27.0421 N   0  0  0  0  0  0  0  0  0  0  0  0
   50.6026   55.5975   29.8815 N   0  0  0  0  0  0  0  0  0  0  0  0
   50.0954   56.3579   30.8267 C   0  0  0  0  0  0  0  0  0  0  0  0
   49.1422   57.2110   30.3270 N   0  0  0  0  0  0  0  0  0  0  0  0
  2  1  1  6  0  0  0
  2  3  1  0  0  0  0
  2  5  1  0  0  0  0
  3  4  1  0  0  0  0
  3 17  1  0  0  0  0
  5  6  1  0  0  0  0
  7  6  1  6  0  0  0
  7  8  1  0  0  0  0
  7  9  1  0  0  0  0
 10  9  1  6  0  0  0
 10 11  1  0  0  0  0
 10 12  1  0  0  0  0
 11 16  1  0  0  0  0
 12 13  1  1  0  0  0
 12 14  1  0  0  0  0
 14 15  1  1  0  0  0
 14 16  1  0  0  0  0
 16 27  1  1  0  0  0
 18 19  2  0  0  0  0
 18 23  1  0  0  0  0
 19 20  1  0  0  0  0
 20 21  2  0  0  0  0
 21 22  1  0  0  0  0
 21 27  1  0  0  0  0
 22 23  2  0  0  0  0
 22 25  1  0  0  0  0
 23 24  1  0  0  0  0
 25 26  2  0  0  0  0
 26 27  1  0  0  0  0
M  END
>  <CHROM.1>
140.35376782,-63.27181819,-169.23435094,-56.98962848,-66.32356921,88.47852728
126.87993998,47.77969060,56.21356685,31.83233570,-2.10692039,0.93201900,-0.70143812

>  <Name>
ligand

>  <RI>
0

>  <Rbt.Current_Directory>
/home/itssahil/PROJECTS/Mol_Feturizer/New_Systems/rnas/3IQN

>  <Rbt.Executable>
rbdock ($Id: //depot/dev/client3/rdock/2013.1/src/exe/rbdock.cxx#4 $)

>  <Rbt.Library>
libRbt.so (2013.1, Build901 2013/11/27)

>  <Rbt.Parameter_File>
/export/apps/rDock/src/rDock_2013.1_src/data/scripts/dock_solv.prm

>  <Rbt.Receptor>
prm/pocket_docking_6.prm

>  <SCORE>
-23.4011

>  <SCORE.INTER>
-20.1097

>  <SCORE.INTER.CONST>
1

>  <SCORE.INTER.POLAR>
0

>  <SCORE.INTER.ROT>
7

>  <SCORE.INTER.SOLV>
14.0644

>  <SCORE.INTER.VDW>
-26.3613

>  <SCORE.INTER.norm>
-0.744804

>  <SCORE.INTRA>
-3.29136

>  <SCORE.INTRA.DIHEDRAL>
-3.8366

>  <SCORE.INTRA.DIHEDRAL.0>
10.0365

>  <SCORE.INTRA.POLAR>
0

>  <SCORE.INTRA.POLAR.0>
0

>  <SCORE.INTRA.REPUL>
0

>  <SCORE.INTRA.REPUL.0>
0

>  <SCORE.INTRA.SOLV>
-0.485784

>  <SCORE.INTRA.SOLV.lig_0>
-48.6728

>  <SCORE.INTRA.VDW>
-1.13017

>  <SCORE.INTRA.VDW.0>
-1.10662

>  <SCORE.INTRA.norm>
-0.121902

>  <SCORE.RESTR>
0

>  <SCORE.RESTR.CAVITY>
0

>  <SCORE.RESTR.norm>
0

>  <SCORE.SYSTEM>
0

>  <SCORE.SYSTEM.CONST>
0

>  <SCORE.SYSTEM.DIHEDRAL>
0

>  <SCORE.SYSTEM.SOLV>
0

>  <SCORE.SYSTEM.norm>
0

>  <SCORE.heavy>
27

>  <SCORE.norm>
-0.866707

>  <RMSD>
6.711

$$$$
ligand
 OpenBabel11021811483D
libRbt.so/2013.1/901 2013/11/27
 27 29  0  0  0  0  0  0  0  0999 V2000
   42.8326   54.9382   33.4508 N   0  0  0  0  0  0  0  0  0  0  0  0
   44.2049   54.4327   33.5870 C   0  0  2  0  0  0  0  0  0  0  0  0
   44.2191   53.3785   34.6527 C   0  0  0  0  0  0  0  0  0  0  0  0
   43.5001   53.4930   35.6326 O   0  0  0  0  0  0  0  0  0  0  0  0
   45.1561   55.5720   33.9827 C   0  0  0  0  0  0  0  0  0  0  0  0
   45.1677   56.6155   32.8695 C   0  0  0  0  0  0  0  0  0  0  0  0
   46.6925   57.6107   32.8236 S   0  0  2  0  0  0  0  0  0  0  0  0
   46.2622   59.0594   31.8105 C   0  0  0  0  0  0  0  0  0  0  0  0
   47.9285   56.8563   31.7061 C   0  0  0  0  0  0  0  0  0  0  0  0
   47.8581   55.3905   32.0573 C   0  0  1  0  0  0  0  0  0  0  0  0
   48.4309   54.7575   30.9610 O   0  0  0  0  0  0  0  0  0  0  0  0
   48.6721   54.7944   33.2067 C   0  0  1  0  0  0  0  0  0  0  0  0
   47.9786   54.8113   34.4214 O   0  0  0  0  0  0  0  0  0  0  0  0
   48.8961   53.3260   32.6031 C   0  0  1  0  0  0  0  0  0  0  0  0
   47.6881   52.6357   32.2511 O   0  0  0  0  0  0  0  0  0  0  0  0
   49.6009   53.9841   31.4393 C   0  0  1  0  0  0  0  0  0  0  0  0
   44.9396   52.4007   34.5278 O   0  0  0  0  0  0  0  0  0  0  0  0
   47.8460   51.6994   27.3199 N   0  0  0  0  0  0  0  0  0  0  0  0
   47.2543   52.0016   28.4767 C   0  0  0  0  0  0  0  0  0  0  0  0
   47.8911   52.6671   29.4394 N   0  0  0  0  0  0  0  0  0  0  0  0
   49.1960   52.9519   29.3350 C   0  0  0  0  0  0  0  0  0  0  0  0
   49.8847   52.5841   28.1353 C   0  0  0  0  0  0  0  0  0  0  0  0
   49.1339   51.9420   27.1124 C   0  0  0  0  0  0  0  0  0  0  0  0
   49.7120   51.5745   25.9299 N   0  0  0  0  0  0  0  0  0  0  0  0
   51.1671   52.9708   28.2801 N   0  0  0  0  0  0  0  0  0  0  0  0
   51.3236   53.5345   29.4577 C   0  0  0  0  0  0  0  0  0  0  0  0
   50.1426   53.5709   30.1576 N   0  0  0  0  0  0  0  0  0  0  0  0
  2  1  1  1  0  0  0
  2  3  1  0  0  0  0
  2  5  1  0  0  0  0
  3  4  1  0  0  0  0
  3 17  1  0  0  0  0
  5  6  1  0  0  0  0
  7  6  1  6  0  0  0
  7  8  1  0  0  0  0
  7  9  1  0  0  0  0
 10  9  1  6  0  0  0
 10 11  1  0  0  0  0
 10 12  1  0  0  0  0
 11 16  1  0  0  0  0
 12 13  1  1  0  0  0
 12 14  1  0  0  0  0
 14 15  1  6  0  0  0
 14 16  1  0  0  0  0
 16 27  1  6  0  0  0
 18 19  2  0  0  0  0
 18 23  1  0  0  0  0
 19 20  1  0  0  0  0
 20 21  2  0  0  0  0
 21 22  1  0  0  0  0
 21 27  1  0  0  0  0
 22 23  2  0  0  0  0
 22 25  1  0  0  0  0
 23 24  1  0  0  0  0
 25 26  2  0  0  0  0
 26 27  1  0  0  0  0
M  END
>  <CHROM.1>
-35.84741429,-62.58719559,-155.26599160,-162.98329123,-43.85040718,161.01909963
-52.29577122,47.43745625,54.26070552,31.48679635,2.47106631,0.73724952,0.40941925

>  <Name>
ligand

>  <RI>
0

>  <Rbt.Current_Directory>
/home/itssahil/PROJECTS/Mol_Feturizer/New_Systems/rnas/3IQN

>  <Rbt.Executable>
rbdock ($Id: //depot/dev/client3/rdock/2013.1/src/exe/rbdock.cxx#4 $)

>  <Rbt.Library>
libRbt.so (2013.1, Build901 2013/11/27)

>  <Rbt.Parameter_File>
/export/apps/rDock/src/rDock_2013.1_src/data/scripts/dock_solv.prm

>  <Rbt.Receptor>
prm/pocket_docking_8.prm

>  <SCORE>
-13.4011

>  <SCORE.INTER>
-11.7915

>  <SCORE.INTER.CONST>
1

>  <SCORE.INTER.POLAR>
0

>  <SCORE.INTER.ROT>
7

>  <SCORE.INTER.SOLV>
11.1291

>  <SCORE.INTER.VDW>
-19.8373

>  <SCORE.INTER.norm>
-0.436722

>  <SCORE.INTRA>
-1.60957

>  <SCORE.INTRA.DIHEDRAL>
-0.969378

>  <SCORE.INTRA.DIHEDRAL.0>
10.0365

>  <SCORE.INTRA.POLAR>
0

>  <SCORE.INTRA.POLAR.0>
0

>  <SCORE.INTRA.REPUL>
0

>  <SCORE.INTRA.REPUL.0>
0

>  <SCORE.INTRA.SOLV>
0.5167

>  <SCORE.INTRA.SOLV.lig_0>
-48.6728

>  <SCORE.INTRA.VDW>
-1.38323

>  <SCORE.INTRA.VDW.0>
-1.10662

>  <SCORE.INTRA.norm>
-0.0596138

>  <SCORE.RESTR>
0

>  <SCORE.RESTR.CAVITY>
0

>  <SCORE.RESTR.norm>
0

>  <SCORE.SYSTEM>
0

>  <SCORE.SYSTEM.CONST>
0

>  <SCORE.SYSTEM.DIHEDRAL>
0

>  <SCORE.SYSTEM.SOLV>
0

>  <SCORE.SYSTEM.norm>
0

>  <SCORE.heavy>
27

>  <SCORE.norm>
-0.496336

>  <RMSD>
6.713

$$$$
ligand
 OpenBabel11021811483D
libRbt.so/2013.1/901 2013/11/27
 27 29  0  0  0  0  0  0  0  0999 V2000
   48.6841   53.1830   34.1853 N   0  0  0  0  0  0  0  0  0  0  0  0
   48.0616   53.8857   35.3149 C   0  0  2  0  0  0  0  0  0  0  0  0
   47.9732   52.9382   36.4732 C   0  0  0  0  0  0  0  0  0  0  0  0
   48.5855   53.1753   37.5023 O   0  0  0  0  0  0  0  0  0  0  0  0
   46.6513   54.3614   34.9352 C   0  0  0  0  0  0  0  0  0  0  0  0
   46.7639   55.4179   33.8401 C   0  0  0  0  0  0  0  0  0  0  0  0
   45.2726   56.4499   33.6712 S   0  0  2  0  0  0  0  0  0  0  0  0
   43.9546   55.2782   33.2234 C   0  0  0  0  0  0  0  0  0  0  0  0
   45.3195   57.4118   32.1161 C   0  0  0  0  0  0  0  0  0  0  0  0
   46.5183   58.3086   32.3043 C   0  0  1  0  0  0  0  0  0  0  0  0
   47.5847   57.5369   31.8594 O   0  0  0  0  0  0  0  0  0  0  0  0
   46.7097   59.5854   31.4844 C   0  0  1  0  0  0  0  0  0  0  0  0
   46.1486   60.7088   32.1008 O   0  0  0  0  0  0  0  0  0  0  0  0
   48.3123   59.5993   31.4364 C   0  0  1  0  0  0  0  0  0  0  0  0
   48.9474   59.5655   32.7229 O   0  0  0  0  0  0  0  0  0  0  0  0
   48.2370   58.2591   30.7419 C   0  0  1  0  0  0  0  0  0  0  0  0
   47.2756   51.9398   36.3871 O   0  0  0  0  0  0  0  0  0  0  0  0
   49.3371   55.9010   26.4410 N   0  0  0  0  0  0  0  0  0  0  0  0
   48.4157   56.8221   26.7273 C   0  0  0  0  0  0  0  0  0  0  0  0
   48.3198   57.3679   27.9390 N   0  0  0  0  0  0  0  0  0  0  0  0
   49.0662   56.9218   28.9582 C   0  0  0  0  0  0  0  0  0  0  0  0
   50.0215   55.8859   28.7071 C   0  0  0  0  0  0  0  0  0  0  0  0
   50.1298   55.3947   27.3770 C   0  0  0  0  0  0  0  0  0  0  0  0
   51.0291   54.4190   27.0500 N   0  0  0  0  0  0  0  0  0  0  0  0
   50.6308   55.6165   29.8781 N   0  0  0  0  0  0  0  0  0  0  0  0
   50.1316   56.3879   30.8185 C   0  0  0  0  0  0  0  0  0  0  0  0
   49.1702   57.2313   30.3180 N   0  0  0  0  0  0  0  0  0  0  0  0
  2  1  1  6  0  0  0
  2  3  1  0  0  0  0
  2  5  1  0  0  0  0
  3  4  1  0  0  0  0
  3 17  1  0  0  0  0
  5  6  1  0  0  0  0
  7  6  1  6  0  0  0
  7  8  1  0  0  0  0
  7  9  1  0  0  0  0
 10  9  1  6  0  0  0
 10 11  1  0  0  0  0
 10 12  1  0  0  0  0
 11 16  1  0  0  0  0
 12 13  1  1  0  0  0
 12 14  1  0  0  0  0
 14 15  1  1  0  0  0
 14 16  1  0  0  0  0
 16 27  1  1  0  0  0
 18 19  2  0  0  0  0
 18 23  1  0  0  0  0
 19 20  1  0  0  0  0
 20 21  2  0  0  0  0
 21 22  1  0  0  0  0
 21 27  1  0  0  0  0
 22 23  2  0  0  0  0
 22 25  1  0  0  0  0
 23 24  1  0  0  0  0
 25 26  2  0  0  0  0
 26 27  1  0  0  0  0
M  END
>  <CHROM.1>
116.80264963,-65.74009441,-161.12217267,-61.56486268,-63.50620307,86.69279109
125.75652953,47.86633071,56.28884669,31.85724849,-2.04227737,0.91534280,-0.80839858

>  <Name>
ligand

>  <RI>
0

>  <Rbt.Current_Directory>
/home/itssahil/PROJECTS/Mol_Feturizer/New_Systems/rnas/3IQN

>  <Rbt.Executable>
rbdock ($Id: //depot/dev/client3/rdock/2013.1/src/exe/rbdock.cxx#4 $)

>  <Rbt.Library>
libRbt.so (2013.1, Build901 2013/11/27)

>  <Rbt.Parameter_File>
/export/apps/rDock/src/rDock_2013.1_src/data/scripts/dock_solv.prm

>  <Rbt.Receptor>
prm/pocket_docking_5.prm

>  <SCORE>
-23.2707

>  <SCORE.INTER>
-20.2304

>  <SCORE.INTER.CONST>
1

>  <SCORE.INTER.POLAR>
0

>  <SCORE.INTER.ROT>
7

>  <SCORE.INTER.SOLV>
13.4378

>  <SCORE.INTER.VDW>
-26.2328

>  <SCORE.INTER.norm>
-0.749274

>  <SCORE.INTRA>
-3.04027

>  <SCORE.INTRA.DIHEDRAL>
-3.34914

>  <SCORE.INTRA.DIHEDRAL.0>
10.0365

>  <SCORE.INTRA.POLAR>
0

>  <SCORE.INTRA.POLAR.0>
0

>  <SCORE.INTRA.REPUL>
0

>  <SCORE.INTRA.REPUL.0>
0

>  <SCORE.INTRA.SOLV>
-0.503224

>  <SCORE.INTRA.SOLV.lig_0>
-48.6728

>  <SCORE.INTRA.VDW>
-1.11409

>  <SCORE.INTRA.VDW.0>
-1.10662

>  <SCORE.INTRA.norm>
-0.112603

>  <SCORE.RESTR>
0

>  <SCORE.RESTR.CAVITY>
0

>  <SCORE.RESTR.norm>
0

>  <SCORE.SYSTEM>
0

>  <SCORE.SYSTEM.CONST>
0

>  <SCORE.SYSTEM.DIHEDRAL>
0

>  <SCORE.SYSTEM.SOLV>
0

>  <SCORE.SYSTEM.norm>
0

>  <SCORE.heavy>
27

>  <SCORE.norm>
-0.861876

>  <RMSD>
6.716

$$$$
ligand
 OpenBabel11021811483D
libRbt.so/2013.1/901 2013/11/27
 27 29  0  0  0  0  0  0  0  0999 V2000
   49.1787   53.3623   33.8366 N   0  0  0  0  0  0  0  0  0  0  0  0
   49.3106   54.5314   34.7160 C   0  0  2  0  0  0  0  0  0  0  0  0
   48.8895   54.1352   36.0991 C   0  0  0  0  0  0  0  0  0  0  0  0
   49.3083   54.7543   37.0642 O   0  0  0  0  0  0  0  0  0  0  0  0
   48.4165   55.6768   34.2181 C   0  0  0  0  0  0  0  0  0  0  0  0
   46.9784   55.1757   34.1224 C   0  0  0  0  0  0  0  0  0  0  0  0
   45.7881   56.4721   33.6533 S   0  0  2  0  0  0  0  0  0  0  0  0
   44.1815   55.6196   33.6005 C   0  0  0  0  0  0  0  0  0  0  0  0
   45.9366   56.8799   31.8764 C   0  0  0  0  0  0  0  0  0  0  0  0
   47.3646   57.3516   31.7517 C   0  0  1  0  0  0  0  0  0  0  0  0
   47.7501   56.9161   30.4898 O   0  0  0  0  0  0  0  0  0  0  0  0
   47.7220   58.8368   31.6783 C   0  0  1  0  0  0  0  0  0  0  0  0
   47.9637   59.3940   32.9384 O   0  0  0  0  0  0  0  0  0  0  0  0
   49.0271   58.7220   30.7540 C   0  0  1  0  0  0  0  0  0  0  0  0
   50.0428   57.8453   31.2631 O   0  0  0  0  0  0  0  0  0  0  0  0
   48.1421   58.1043   29.6959 C   0  0  1  0  0  0  0  0  0  0  0  0
   48.1159   53.2032   36.2530 O   0  0  0  0  0  0  0  0  0  0  0  0
   51.2140   54.6333   27.7506 N   0  0  0  0  0  0  0  0  0  0  0  0
   51.1629   55.1790   28.9667 C   0  0  0  0  0  0  0  0  0  0  0  0
   50.2220   56.0606   29.3029 N   0  0  0  0  0  0  0  0  0  0  0  0
   49.3601   56.5316   28.3918 C   0  0  0  0  0  0  0  0  0  0  0  0
   49.4255   56.0201   27.0566 C   0  0  0  0  0  0  0  0  0  0  0  0
   50.4030   55.0261   26.7765 C   0  0  0  0  0  0  0  0  0  0  0  0
   50.5194   54.4735   25.5320 N   0  0  0  0  0  0  0  0  0  0  0  0
   48.4705   56.6490   26.3441 N   0  0  0  0  0  0  0  0  0  0  0  0
   47.8343   57.4988   27.1200 C   0  0  0  0  0  0  0  0  0  0  0  0
   48.3215   57.4681   28.4036 N   0  0  0  0  0  0  0  0  0  0  0  0
  2  1  1  6  0  0  0
  2  3  1  0  0  0  0
  2  5  1  0  0  0  0
  3  4  1  0  0  0  0
  3 17  1  0  0  0  0
  5  6  1  0  0  0  0
  7  6  1  6  0  0  0
  7  8  1  0  0  0  0
  7  9  1  0  0  0  0
 10  9  1  6  0  0  0
 10 11  1  0  0  0  0
 10 12  1  0  0  0  0
 11 16  1  0  0  0  0
 12 13  1  1  0  0  0
 12 14  1  0  0  0  0
 14 15  1  1  0  0  0
 14 16  1  0  0  0  0
 16 27  1  6  0  0  0
 18 19  2  0  0  0  0
 18 23  1  0  0  0  0
 19 20  1  0  0  0  0
 20 21  2  0  0  0  0
 21 22  1  0  0  0  0
 21 27  1  0  0  0  0
 22 23  2  0  0  0  0
 22 25  1  0  0  0  0
 23 24  1  0  0  0  0
 25 26  2  0  0  0  0
 26 27  1  0  0  0  0
M  END
>  <CHROM.1>
155.80151602,56.00038082,175.94788114,179.60647554,-59.98051145,145.63640786
-63.99921330,48.39337798,56.18293418,31.34178286,-1.93216198,0.78073826,-1.17468178

>  <Name>
ligand

>  <RI>
0

>  <Rbt.Current_Directory>
/home/itssahil/PROJECTS/Mol_Feturizer/New_Systems/rnas/3IQN

>  <Rbt.Executable>
rbdock ($Id: //depot/dev/client3/rdock/2013.1/src/exe/rbdock.cxx#4 $)

>  <Rbt.Library>
libRbt.so (2013.1, Build901 2013/11/27)

>  <Rbt.Parameter_File>
/export/apps/rDock/src/rDock_2013.1_src/data/scripts/dock_solv.prm

>  <Rbt.Receptor>
prm/pocket_docking_6.prm

>  <SCORE>
-20.7321

>  <SCORE.INTER>
-18.1218

>  <SCORE.INTER.CONST>
1

>  <SCORE.INTER.POLAR>
0

>  <SCORE.INTER.ROT>
7

>  <SCORE.INTER.SOLV>
13.1272

>  <SCORE.INTER.VDW>
-24.7236

>  <SCORE.INTER.norm>
-0.671177

>  <SCORE.INTRA>
-2.61036

>  <SCORE.INTRA.DIHEDRAL>
-3.607

>  <SCORE.INTRA.DIHEDRAL.0>
10.0365

>  <SCORE.INTRA.POLAR>
0

>  <SCORE.INTRA.POLAR.0>
0

>  <SCORE.INTRA.REPUL>
0

>  <SCORE.INTRA.REPUL.0>
0

>  <SCORE.INTRA.SOLV>
0.151375

>  <SCORE.INTRA.SOLV.lig_0>
-48.6728

>  <SCORE.INTRA.VDW>
-0.882543

>  <SCORE.INTRA.VDW.0>
-1.10662

>  <SCORE.INTRA.norm>
-0.0966799

>  <SCORE.RESTR>
0

>  <SCORE.RESTR.CAVITY>
0

>  <SCORE.RESTR.norm>
0

>  <SCORE.SYSTEM>
0

>  <SCORE.SYSTEM.CONST>
0

>  <SCORE.SYSTEM.DIHEDRAL>
0

>  <SCORE.SYSTEM.SOLV>
0

>  <SCORE.SYSTEM.norm>
0

>  <SCORE.heavy>
27

>  <SCORE.norm>
-0.767857

>  <RMSD>
6.721

$$$$
ligand
 OpenBabel11021811483D
libRbt.so/2013.1/901 2013/11/27
 27 29  0  0  0  0  0  0  0  0999 V2000
   48.7923   54.3740   35.2831 N   0  0  0  0  0  0  0  0  0  0  0  0
   47.4001   53.9214   35.1636 C   0  0  2  0  0  0  0  0  0  0  0  0
   47.2290   52.6867   35.9966 C   0  0  0  0  0  0  0  0  0  0  0  0
   46.4426   51.8206   35.6477 O   0  0  0  0  0  0  0  0  0  0  0  0
   47.0677   53.5996   33.6989 C   0  0  0  0  0  0  0  0  0  0  0  0
   47.0871   54.8943   32.8916 C   0  0  0  0  0  0  0  0  0  0  0  0
   46.0573   56.2133   33.6108 S   0  0  2  0  0  0  0  0  0  0  0  0
   44.3515   55.6020   33.4465 C   0  0  0  0  0  0  0  0  0  0  0  0
   45.9434   57.6424   32.4748 C   0  0  0  0  0  0  0  0  0  0  0  0
   47.3796   57.8788   32.0770 C   0  0  1  0  0  0  0  0  0  0  0  0
   47.4422   57.4200   30.7669 O   0  0  0  0  0  0  0  0  0  0  0  0
   47.9563   59.2876   31.9290 C   0  0  1  0  0  0  0  0  0  0  0  0
   48.5207   59.7645   33.1168 O   0  0  0  0  0  0  0  0  0  0  0  0
   49.0256   58.9867   30.7729 C   0  0  1  0  0  0  0  0  0  0  0  0
   49.9609   57.9434   31.0830 O   0  0  0  0  0  0  0  0  0  0  0  0
   47.8669   58.5494   29.9067 C   0  0  1  0  0  0  0  0  0  0  0  0
   47.8897   52.5460   37.0136 O   0  0  0  0  0  0  0  0  0  0  0  0
   50.3663   55.1977   27.1159 N   0  0  0  0  0  0  0  0  0  0  0  0
   50.6462   55.7346   28.3045 C   0  0  0  0  0  0  0  0  0  0  0  0
   49.8126   56.5812   28.9076 N   0  0  0  0  0  0  0  0  0  0  0  0
   48.7125   57.0271   28.2864 C   0  0  0  0  0  0  0  0  0  0  0  0
   48.4112   56.5255   26.9801 C   0  0  0  0  0  0  0  0  0  0  0  0
   49.2996   55.5675   26.4186 C   0  0  0  0  0  0  0  0  0  0  0  0
   49.0744   55.0262   25.1842 N   0  0  0  0  0  0  0  0  0  0  0  0
   47.2735   57.1249   26.5782 N   0  0  0  0  0  0  0  0  0  0  0  0
   46.8580   57.9478   27.5157 C   0  0  0  0  0  0  0  0  0  0  0  0
   47.6911   57.9269   28.6072 N   0  0  0  0  0  0  0  0  0  0  0  0
  2  1  1  6  0  0  0
  2  3  1  0  0  0  0
  2  5  1  0  0  0  0
  3  4  1  0  0  0  0
  3 17  1  0  0  0  0
  5  6  1  0  0  0  0
  7  6  1  6  0  0  0
  7  8  1  0  0  0  0
  7  9  1  0  0  0  0
 10  9  1  6  0  0  0
 10 11  1  0  0  0  0
 10 12  1  0  0  0  0
 11 16  1  0  0  0  0
 12 13  1  1  0  0  0
 12 14  1  0  0  0  0
 14 15  1  1  0  0  0
 14 16  1  0  0  0  0
 16 27  1  6  0  0  0
 18 19  2  0  0  0  0
 18 23  1  0  0  0  0
 19 20  1  0  0  0  0
 20 21  2  0  0  0  0
 21 22  1  0  0  0  0
 21 27  1  0  0  0  0
 22 23  2  0  0  0  0
 22 25  1  0  0  0  0
 23 24  1  0  0  0  0
 25 26  2  0  0  0  0
 26 27  1  0  0  0  0
M  END
>  <CHROM.1>
-147.65103195,-67.25777121,-51.93614664,-66.84184292,-47.96563567,106.61706606
-76.63234598,47.83473489,56.19467331,31.30738973,-2.34413802,1.25072224,-0.45751049

>  <Name>
ligand

>  <RI>
0

>  <Rbt.Current_Directory>
/home/itssahil/PROJECTS/Mol_Feturizer/New_Systems/rnas/3IQN

>  <Rbt.Executable>
rbdock ($Id: //depot/dev/client3/rdock/2013.1/src/exe/rbdock.cxx#4 $)

>  <Rbt.Library>
libRbt.so (2013.1, Build901 2013/11/27)

>  <Rbt.Parameter_File>
/export/apps/rDock/src/rDock_2013.1_src/data/scripts/dock_solv.prm

>  <Rbt.Receptor>
prm/pocket_docking_3.prm

>  <SCORE>
-15.8511

>  <SCORE.INTER>
-16.0566

>  <SCORE.INTER.CONST>
1

>  <SCORE.INTER.POLAR>
0

>  <SCORE.INTER.ROT>
7

>  <SCORE.INTER.SOLV>
14.6407

>  <SCORE.INTER.VDW>
-23.8513

>  <SCORE.INTER.norm>
-0.594689

>  <SCORE.INTRA>
-0.438316

>  <SCORE.INTRA.DIHEDRAL>
-1.08513

>  <SCORE.INTRA.DIHEDRAL.0>
10.0365

>  <SCORE.INTRA.POLAR>
0

>  <SCORE.INTRA.POLAR.0>
0

>  <SCORE.INTRA.REPUL>
0

>  <SCORE.INTRA.REPUL.0>
0

>  <SCORE.INTRA.SOLV>
0.540988

>  <SCORE.INTRA.SOLV.lig_0>
-48.6728

>  <SCORE.INTRA.VDW>
-0.166246

>  <SCORE.INTRA.VDW.0>
-1.10662

>  <SCORE.INTRA.norm>
-0.0162339

>  <SCORE.RESTR>
0.643851

>  <SCORE.RESTR.CAVITY>
0.643851

>  <SCORE.RESTR.norm>
0.0238463

>  <SCORE.SYSTEM>
0

>  <SCORE.SYSTEM.CONST>
0

>  <SCORE.SYSTEM.DIHEDRAL>
0

>  <SCORE.SYSTEM.SOLV>
0

>  <SCORE.SYSTEM.norm>
0

>  <SCORE.heavy>
27

>  <SCORE.norm>
-0.587077

>  <RMSD>
6.725

$$$$
ligand
 OpenBabel11021811483D
libRbt.so/2013.1/901 2013/11/27
 27 29  0  0  0  0  0  0  0  0999 V2000
   48.4905   52.9393   34.1640 N   0  0  0  0  0  0  0  0  0  0  0  0
   47.9349   53.6774   35.3058 C   0  0  2  0  0  0  0  0  0  0  0  0
   47.7981   52.7321   36.4613 C   0  0  0  0  0  0  0  0  0  0  0  0
   47.1466   51.7073   36.3361 O   0  0  0  0  0  0  0  0  0  0  0  0
   46.5556   54.2517   34.9495 C   0  0  0  0  0  0  0  0  0  0  0  0
   46.7257   55.3068   33.8603 C   0  0  0  0  0  0  0  0  0  0  0  0
   45.2850   56.4073   33.6849 S   0  0  2  0  0  0  0  0  0  0  0  0
   43.9063   55.2932   33.2746 C   0  0  0  0  0  0  0  0  0  0  0  0
   45.3621   57.3340   32.1097 C   0  0  0  0  0  0  0  0  0  0  0  0
   46.5614   58.2302   32.2981 C   0  0  1  0  0  0  0  0  0  0  0  0
   47.6285   57.4547   31.8615 O   0  0  0  0  0  0  0  0  0  0  0  0
   46.7578   59.5025   31.4723 C   0  0  1  0  0  0  0  0  0  0  0  0
   46.1957   60.6298   32.0806 O   0  0  0  0  0  0  0  0  0  0  0  0
   48.3606   59.5139   31.4307 C   0  0  1  0  0  0  0  0  0  0  0  0
   48.9905   59.4860   32.7199 O   0  0  0  0  0  0  0  0  0  0  0  0
   48.2862   58.1702   30.7429 C   0  0  1  0  0  0  0  0  0  0  0  0
   48.3529   52.9844   37.5192 O   0  0  0  0  0  0  0  0  0  0  0  0
   49.4264   55.8150   26.4508 N   0  0  0  0  0  0  0  0  0  0  0  0
   48.5058   56.7398   26.7279 C   0  0  0  0  0  0  0  0  0  0  0  0
   48.3981   57.2838   27.9394 N   0  0  0  0  0  0  0  0  0  0  0  0
   49.1304   56.8325   28.9665 C   0  0  0  0  0  0  0  0  0  0  0  0
   50.0839   55.7927   28.7247 C   0  0  0  0  0  0  0  0  0  0  0  0
   50.2057   55.3034   27.3951 C   0  0  0  0  0  0  0  0  0  0  0  0
   51.1044   54.3243   27.0769 N   0  0  0  0  0  0  0  0  0  0  0  0
   50.6781   55.5183   29.9024 N   0  0  0  0  0  0  0  0  0  0  0  0
   50.1713   56.2903   30.8383 C   0  0  0  0  0  0  0  0  0  0  0  0
   49.2197   57.1389   30.3281 N   0  0  0  0  0  0  0  0  0  0  0  0
  2  1  1  6  0  0  0
  2  3  1  0  0  0  0
  2  5  1  0  0  0  0
  3  4  1  0  0  0  0
  3 17  1  0  0  0  0
  5  6  1  0  0  0  0
  7  6  1  6  0  0  0
  7  8  1  0  0  0  0
  7  9  1  0  0  0  0
 10  9  1  6  0  0  0
 10 11  1  0  0  0  0
 10 12  1  0  0  0  0
 11 16  1  0  0  0  0
 12 13  1  1  0  0  0
 12 14  1  0  0  0  0
 14 15  1  1  0  0  0
 14 16  1  0  0  0  0
 16 27  1  1  0  0  0
 18 19  2  0  0  0  0
 18 23  1  0  0  0  0
 19 20  1  0  0  0  0
 20 21  2  0  0  0  0
 21 22  1  0  0  0  0
 21 27  1  0  0  0  0
 22 23  2  0  0  0  0
 22 25  1  0  0  0  0
 23 24  1  0  0  0  0
 25 26  2  0  0  0  0
 26 27  1  0  0  0  0
M  END
>  <CHROM.1>
-56.15526557,-65.90963472,-162.92021071,-59.77615009,-66.52906371,87.92707123
126.38688708,47.86502762,56.18445404,31.86144036,-2.08689349,0.91977973,-0.75475737

>  <Name>
ligand

>  <RI>
0

>  <Rbt.Current_Directory>
/home/itssahil/PROJECTS/Mol_Feturizer/New_Systems/rnas/3IQN

>  <Rbt.Executable>
rbdock ($Id: //depot/dev/client3/rdock/2013.1/src/exe/rbdock.cxx#4 $)

>  <Rbt.Library>
libRbt.so (2013.1, Build901 2013/11/27)

>  <Rbt.Parameter_File>
/export/apps/rDock/src/rDock_2013.1_src/data/scripts/dock_solv.prm

>  <Rbt.Receptor>
prm/pocket_docking_4.prm

>  <SCORE>
-23.1122

>  <SCORE.INTER>
-19.9741

>  <SCORE.INTER.CONST>
1

>  <SCORE.INTER.POLAR>
0

>  <SCORE.INTER.ROT>
7

>  <SCORE.INTER.SOLV>
13.6715

>  <SCORE.INTER.VDW>
-26.1399

>  <SCORE.INTER.norm>
-0.739781

>  <SCORE.INTRA>
-3.13812

>  <SCORE.INTRA.DIHEDRAL>
-3.32315

>  <SCORE.INTRA.DIHEDRAL.0>
10.0365

>  <SCORE.INTRA.POLAR>
0

>  <SCORE.INTRA.POLAR.0>
0

>  <SCORE.INTRA.REPUL>
0

>  <SCORE.INTRA.REPUL.0>
0

>  <SCORE.INTRA.SOLV>
-0.509074

>  <SCORE.INTRA.SOLV.lig_0>
-48.6728

>  <SCORE.INTRA.VDW>
-1.22201

>  <SCORE.INTRA.VDW.0>
-1.10662

>  <SCORE.INTRA.norm>
-0.116226

>  <SCORE.RESTR>
0

>  <SCORE.RESTR.CAVITY>
0

>  <SCORE.RESTR.norm>
0

>  <SCORE.SYSTEM>
0

>  <SCORE.SYSTEM.CONST>
0

>  <SCORE.SYSTEM.DIHEDRAL>
0

>  <SCORE.SYSTEM.SOLV>
0

>  <SCORE.SYSTEM.norm>
0

>  <SCORE.heavy>
27

>  <SCORE.norm>
-0.856008

>  <RMSD>
6.737

$$$$
ligand
 OpenBabel11021811483D
libRbt.so/2013.1/901 2013/11/27
 27 29  0  0  0  0  0  0  0  0999 V2000
   49.8473   57.8635   31.0988 N   0  0  0  0  0  0  0  0  0  0  0  0
   48.7996   57.7676   32.1236 C   0  0  2  0  0  0  0  0  0  0  0  0
   48.7870   59.0435   32.9107 C   0  0  0  0  0  0  0  0  0  0  0  0
   47.9633   59.9079   32.6566 O   0  0  0  0  0  0  0  0  0  0  0  0
   49.0821   56.5884   33.0665 C   0  0  0  0  0  0  0  0  0  0  0  0
   47.8401   56.3233   33.9124 C   0  0  0  0  0  0  0  0  0  0  0  0
   47.7418   54.6170   34.5421 S   0  0  2  0  0  0  0  0  0  0  0  0
   49.2132   54.4337   35.5965 C   0  0  0  0  0  0  0  0  0  0  0  0
   48.1917   53.4153   33.2384 C   0  0  0  0  0  0  0  0  0  0  0  0
   47.3261   53.8324   32.0749 C   0  0  1  0  0  0  0  0  0  0  0  0
   48.0504   53.4295   30.9597 O   0  0  0  0  0  0  0  0  0  0  0  0
   45.9692   53.1815   31.8023 C   0  0  1  0  0  0  0  0  0  0  0  0
   44.9162   53.8483   32.4373 O   0  0  0  0  0  0  0  0  0  0  0  0
   45.9578   53.3154   30.2046 C   0  0  1  0  0  0  0  0  0  0  0  0
   46.1332   54.6538   29.7174 O   0  0  0  0  0  0  0  0  0  0  0  0
   47.2150   52.4765   30.1917 C   0  0  1  0  0  0  0  0  0  0  0  0
   49.5921   59.2057   33.8142 O   0  0  0  0  0  0  0  0  0  0  0  0
   47.4226   52.1301   25.1811 N   0  0  0  0  0  0  0  0  0  0  0  0
   46.4360   52.5077   25.9956 C   0  0  0  0  0  0  0  0  0  0  0  0
   46.6031   52.5809   27.3155 N   0  0  0  0  0  0  0  0  0  0  0  0
   47.7351   52.1566   27.8928 C   0  0  0  0  0  0  0  0  0  0  0  0
   48.7948   51.6803   27.0568 C   0  0  0  0  0  0  0  0  0  0  0  0
   48.5852   51.6956   25.6504 C   0  0  0  0  0  0  0  0  0  0  0  0
   49.5531   51.2745   24.7823 N   0  0  0  0  0  0  0  0  0  0  0  0
   49.8056   51.3135   27.8687 N   0  0  0  0  0  0  0  0  0  0  0  0
   49.4574   51.5174   29.1200 C   0  0  0  0  0  0  0  0  0  0  0  0
   48.1955   52.0519   29.2092 N   0  0  0  0  0  0  0  0  0  0  0  0
  2  1  1  6  0  0  0
  2  3  1  0  0  0  0
  2  5  1  0  0  0  0
  3  4  1  0  0  0  0
  3 17  1  0  0  0  0
  5  6  1  0  0  0  0
  7  6  1  6  0  0  0
  7  8  1  0  0  0  0
  7  9  1  0  0  0  0
 10  9  1  1  0  0  0
 10 11  1  0  0  0  0
 10 12  1  0  0  0  0
 11 16  1  0  0  0  0
 12 13  1  1  0  0  0
 12 14  1  0  0  0  0
 14 15  1  1  0  0  0
 14 16  1  0  0  0  0
 16 27  1  6  0  0  0
 18 19  2  0  0  0  0
 18 23  1  0  0  0  0
 19 20  1  0  0  0  0
 20 21  2  0  0  0  0
 21 22  1  0  0  0  0
 21 27  1  0  0  0  0
 22 23  2  0  0  0  0
 22 25  1  0  0  0  0
 23 24  1  0  0  0  0
 25 26  2  0  0  0  0
 26 27  1  0  0  0  0
M  END
>  <CHROM.1>
99.22253670,-167.53043654,155.94584361,61.80557845,-50.80222442,152.19260936
-128.32932100,47.94884820,54.28509766,30.69009358,-1.45185830,-1.19600507
-2.10677833

>  <Name>
ligand

>  <RI>
0

>  <Rbt.Current_Directory>
/home/itssahil/PROJECTS/Mol_Feturizer/New_Systems/rnas/3IQN

>  <Rbt.Executable>
rbdock ($Id: //depot/dev/client3/rdock/2013.1/src/exe/rbdock.cxx#4 $)

>  <Rbt.Library>
libRbt.so (2013.1, Build901 2013/11/27)

>  <Rbt.Parameter_File>
/export/apps/rDock/src/rDock_2013.1_src/data/scripts/dock_solv.prm

>  <Rbt.Receptor>
prm/pocket_docking_6.prm

>  <SCORE>
-16.3649

>  <SCORE.INTER>
-14.1749

>  <SCORE.INTER.CONST>
1

>  <SCORE.INTER.POLAR>
0

>  <SCORE.INTER.ROT>
7

>  <SCORE.INTER.SOLV>
14.584

>  <SCORE.INTER.VDW>
-22.578

>  <SCORE.INTER.norm>
-0.524998

>  <SCORE.INTRA>
-2.18999

>  <SCORE.INTRA.DIHEDRAL>
-1.39691

>  <SCORE.INTRA.DIHEDRAL.0>
10.0365

>  <SCORE.INTRA.POLAR>
0

>  <SCORE.INTRA.POLAR.0>
0

>  <SCORE.INTRA.REPUL>
0

>  <SCORE.INTRA.REPUL.0>
0

>  <SCORE.INTRA.SOLV>
-0.863204

>  <SCORE.INTRA.SOLV.lig_0>
-48.6728

>  <SCORE.INTRA.VDW>
-1.05993

>  <SCORE.INTRA.VDW.0>
-1.10662

>  <SCORE.INTRA.norm>
-0.0811107

>  <SCORE.RESTR>
0

>  <SCORE.RESTR.CAVITY>
0

>  <SCORE.RESTR.norm>
0

>  <SCORE.SYSTEM>
0

>  <SCORE.SYSTEM.CONST>
0

>  <SCORE.SYSTEM.DIHEDRAL>
0

>  <SCORE.SYSTEM.SOLV>
0

>  <SCORE.SYSTEM.norm>
0

>  <SCORE.heavy>
27

>  <SCORE.norm>
-0.606109

>  <RMSD>
6.751

$$$$
ligand
 OpenBabel11021811483D
libRbt.so/2013.1/901 2013/11/27
 27 29  0  0  0  0  0  0  0  0999 V2000
   49.8355   53.8984   35.6986 N   0  0  0  0  0  0  0  0  0  0  0  0
   48.7419   54.7604   35.2315 C   0  0  2  0  0  0  0  0  0  0  0  0
   47.6130   53.8879   34.7712 C   0  0  0  0  0  0  0  0  0  0  0  0
   46.4690   54.1405   35.1142 O   0  0  0  0  0  0  0  0  0  0  0  0
   49.2167   55.6393   34.0647 C   0  0  0  0  0  0  0  0  0  0  0  0
   48.1008   56.6108   33.6915 C   0  0  0  0  0  0  0  0  0  0  0  0
   48.4962   57.6507   32.2494 S   0  0  2  0  0  0  0  0  0  0  0  0
   49.7767   58.7956   32.8492 C   0  0  0  0  0  0  0  0  0  0  0  0
   47.1668   58.8687   31.9413 C   0  0  0  0  0  0  0  0  0  0  0  0
   46.1246   58.0600   31.2086 C   0  0  1  0  0  0  0  0  0  0  0  0
   46.6748   57.8734   29.9463 O   0  0  0  0  0  0  0  0  0  0  0  0
   45.7909   56.6213   31.6058 C   0  0  1  0  0  0  0  0  0  0  0  0
   44.7552   56.5493   32.5432 O   0  0  0  0  0  0  0  0  0  0  0  0
   45.3998   56.0589   30.1562 C   0  0  1  0  0  0  0  0  0  0  0  0
   44.3623   56.7947   29.4915 O   0  0  0  0  0  0  0  0  0  0  0  0
   46.8001   56.4154   29.7131 C   0  0  1  0  0  0  0  0  0  0  0  0
   47.8418   52.9362   34.0414 O   0  0  0  0  0  0  0  0  0  0  0  0
   47.0462   53.5875   25.5645 N   0  0  0  0  0  0  0  0  0  0  0  0
   46.3407   53.4411   26.6871 C   0  0  0  0  0  0  0  0  0  0  0  0
   46.3785   54.3460   27.6643 N   0  0  0  0  0  0  0  0  0  0  0  0
   47.2261   55.3823   27.6134 C   0  0  0  0  0  0  0  0  0  0  0  0
   48.0502   55.5381   26.4536 C   0  0  0  0  0  0  0  0  0  0  0  0
   47.9117   54.5814   25.4107 C   0  0  0  0  0  0  0  0  0  0  0  0
   48.6485   54.6685   24.2630 N   0  0  0  0  0  0  0  0  0  0  0  0
   48.8050   56.6370   26.6486 N   0  0  0  0  0  0  0  0  0  0  0  0
   48.5205   57.1606   27.8207 C   0  0  0  0  0  0  0  0  0  0  0  0
   47.5415   56.4454   28.4656 N   0  0  0  0  0  0  0  0  0  0  0  0
  2  1  1  6  0  0  0
  2  3  1  0  0  0  0
  2  5  1  0  0  0  0
  3  4  1  0  0  0  0
  3 17  1  0  0  0  0
  5  6  1  0  0  0  0
  7  6  1  1  0  0  0
  7  8  1  0  0  0  0
  7  9  1  0  0  0  0
 10  9  1  1  0  0  0
 10 11  1  0  0  0  0
 10 12  1  0  0  0  0
 11 16  1  0  0  0  0
 12 13  1  1  0  0  0
 12 14  1  0  0  0  0
 14 15  1  6  0  0  0
 14 16  1  0  0  0  0
 16 27  1  6  0  0  0
 18 19  2  0  0  0  0
 18 23  1  0  0  0  0
 19 20  1  0  0  0  0
 20 21  2  0  0  0  0
 21 22  1  0  0  0  0
 21 27  1  0  0  0  0
 22 23  2  0  0  0  0
 22 25  1  0  0  0  0
 23 24  1  0  0  0  0
 25 26  2  0  0  0  0
 26 27  1  0  0  0  0
M  END
>  <CHROM.1>
134.07626588,-174.75040293,-176.54708167,-70.61285088,-80.37616707,-72.86786633
-147.12378440,47.41996568,55.93415580,30.59776815,-0.90392986,1.44483570
-2.27655052

>  <Name>
ligand

>  <RI>
0

>  <Rbt.Current_Directory>
/home/itssahil/PROJECTS/Mol_Feturizer/New_Systems/rnas/3IQN

>  <Rbt.Executable>
rbdock ($Id: //depot/dev/client3/rdock/2013.1/src/exe/rbdock.cxx#4 $)

>  <Rbt.Library>
libRbt.so (2013.1, Build901 2013/11/27)

>  <Rbt.Parameter_File>
/export/apps/rDock/src/rDock_2013.1_src/data/scripts/dock_solv.prm

>  <Rbt.Receptor>
prm/pocket_docking_4.prm

>  <SCORE>
-14.6103

>  <SCORE.INTER>
-10.5985

>  <SCORE.INTER.CONST>
1

>  <SCORE.INTER.POLAR>
0

>  <SCORE.INTER.ROT>
7

>  <SCORE.INTER.SOLV>
14.425

>  <SCORE.INTER.VDW>
-20.1406

>  <SCORE.INTER.norm>
-0.392536

>  <SCORE.INTRA>
-4.01185

>  <SCORE.INTRA.DIHEDRAL>
-5.72538

>  <SCORE.INTRA.DIHEDRAL.0>
10.0365

>  <SCORE.INTRA.POLAR>
0

>  <SCORE.INTRA.POLAR.0>
0

>  <SCORE.INTRA.REPUL>
0

>  <SCORE.INTRA.REPUL.0>
0

>  <SCORE.INTRA.SOLV>
-0.686262

>  <SCORE.INTRA.SOLV.lig_0>
-48.6728

>  <SCORE.INTRA.VDW>
-0.806032

>  <SCORE.INTRA.VDW.0>
-1.10662

>  <SCORE.INTRA.norm>
-0.148587

>  <SCORE.RESTR>
0

>  <SCORE.RESTR.CAVITY>
0

>  <SCORE.RESTR.norm>
0

>  <SCORE.SYSTEM>
0

>  <SCORE.SYSTEM.CONST>
0

>  <SCORE.SYSTEM.DIHEDRAL>
0

>  <SCORE.SYSTEM.SOLV>
0

>  <SCORE.SYSTEM.norm>
0

>  <SCORE.heavy>
27

>  <SCORE.norm>
-0.541123

>  <RMSD>
6.763

$$$$
ligand
 OpenBabel11021811483D
libRbt.so/2013.1/901 2013/11/27
 27 29  0  0  0  0  0  0  0  0999 V2000
   48.7742   53.7537   34.2561 N   0  0  0  0  0  0  0  0  0  0  0  0
   47.6768   54.0599   35.1831 C   0  0  2  0  0  0  0  0  0  0  0  0
   47.3332   52.8128   35.9408 C   0  0  0  0  0  0  0  0  0  0  0  0
   47.0083   52.8837   37.1154 O   0  0  0  0  0  0  0  0  0  0  0  0
   46.4422   54.5428   34.4073 C   0  0  0  0  0  0  0  0  0  0  0  0
   46.7508   55.9001   33.7822 C   0  0  0  0  0  0  0  0  0  0  0  0
   45.3138   56.6672   32.9673 S   0  0  2  0  0  0  0  0  0  0  0  0
   45.0633   55.6807   31.4592 C   0  0  0  0  0  0  0  0  0  0  0  0
   45.7808   58.2510   32.1803 C   0  0  0  0  0  0  0  0  0  0  0  0
   47.2471   58.0636   31.8774 C   0  0  1  0  0  0  0  0  0  0  0  0
   47.2580   57.5620   30.5816 O   0  0  0  0  0  0  0  0  0  0  0  0
   48.2041   59.2495   31.7478 C   0  0  1  0  0  0  0  0  0  0  0  0
   48.8062   59.5893   32.9639 O   0  0  0  0  0  0  0  0  0  0  0  0
   49.2143   58.6235   30.6715 C   0  0  1  0  0  0  0  0  0  0  0  0
   49.7982   57.3714   31.0600 O   0  0  0  0  0  0  0  0  0  0  0  0
   48.0344   58.4984   29.7353 C   0  0  1  0  0  0  0  0  0  0  0  0
   47.3651   51.7318   35.3742 O   0  0  0  0  0  0  0  0  0  0  0  0
   50.3092   55.1752   26.7269 N   0  0  0  0  0  0  0  0  0  0  0  0
   50.6691   55.6824   27.9070 C   0  0  0  0  0  0  0  0  0  0  0  0
   49.8863   56.5266   28.5777 N   0  0  0  0  0  0  0  0  0  0  0  0
   48.7570   57.0006   28.0347 C   0  0  0  0  0  0  0  0  0  0  0  0
   48.3692   56.5316   26.7392 C   0  0  0  0  0  0  0  0  0  0  0  0
   49.2074   55.5743   26.1044 C   0  0  0  0  0  0  0  0  0  0  0  0
   48.8993   55.0629   24.8750 N   0  0  0  0  0  0  0  0  0  0  0  0
   47.2179   57.1546   26.4205 N   0  0  0  0  0  0  0  0  0  0  0  0
   46.8725   57.9624   27.3988 C   0  0  0  0  0  0  0  0  0  0  0  0
   47.7704   57.9067   28.4364 N   0  0  0  0  0  0  0  0  0  0  0  0
  2  1  1  6  0  0  0
  2  3  1  0  0  0  0
  2  5  1  0  0  0  0
  3  4  1  0  0  0  0
  3 17  1  0  0  0  0
  5  6  1  0  0  0  0
  7  6  1  1  0  0  0
  7  8  1  0  0  0  0
  7  9  1  0  0  0  0
 10  9  1  6  0  0  0
 10 11  1  0  0  0  0
 10 12  1  0  0  0  0
 11 16  1  0  0  0  0
 12 13  1  1  0  0  0
 12 14  1  0  0  0  0
 14 15  1  1  0  0  0
 14 16  1  0  0  0  0
 16 27  1  6  0  0  0
 18 19  2  0  0  0  0
 18 23  1  0  0  0  0
 19 20  1  0  0  0  0
 20 21  2  0  0  0  0
 21 22  1  0  0  0  0
 21 27  1  0  0  0  0
 22 23  2  0  0  0  0
 22 25  1  0  0  0  0
 23 24  1  0  0  0  0
 25 26  2  0  0  0  0
 26 27  1  0  0  0  0
M  END
>  <CHROM.1>
143.43498769,-67.69301111,-174.29521229,-72.25394515,27.15353854,92.20334090
-93.92309058,47.78091172,56.28692783,31.05399081,-2.15369162,1.17097269,-0.70656539

>  <Name>
ligand

>  <RI>
0

>  <Rbt.Current_Directory>
/home/itssahil/PROJECTS/Mol_Feturizer/New_Systems/rnas/3IQN

>  <Rbt.Executable>
rbdock ($Id: //depot/dev/client3/rdock/2013.1/src/exe/rbdock.cxx#4 $)

>  <Rbt.Library>
libRbt.so (2013.1, Build901 2013/11/27)

>  <Rbt.Parameter_File>
/export/apps/rDock/src/rDock_2013.1_src/data/scripts/dock_solv.prm

>  <Rbt.Receptor>
prm/pocket_docking_4.prm

>  <SCORE>
-18.8201

>  <SCORE.INTER>
-17.4435

>  <SCORE.INTER.CONST>
1

>  <SCORE.INTER.POLAR>
0

>  <SCORE.INTER.ROT>
7

>  <SCORE.INTER.SOLV>
12.8427

>  <SCORE.INTER.VDW>
-24.1766

>  <SCORE.INTER.norm>
-0.646056

>  <SCORE.INTRA>
-1.37659

>  <SCORE.INTRA.DIHEDRAL>
-1.66896

>  <SCORE.INTRA.DIHEDRAL.0>
10.0365

>  <SCORE.INTRA.POLAR>
0

>  <SCORE.INTRA.POLAR.0>
0

>  <SCORE.INTRA.REPUL>
0

>  <SCORE.INTRA.REPUL.0>
0

>  <SCORE.INTRA.SOLV>
-0.107789

>  <SCORE.INTRA.SOLV.lig_0>
-48.6728

>  <SCORE.INTRA.VDW>
-0.488217

>  <SCORE.INTRA.VDW.0>
-1.10662

>  <SCORE.INTRA.norm>
-0.0509849

>  <SCORE.RESTR>
0

>  <SCORE.RESTR.CAVITY>
0

>  <SCORE.RESTR.norm>
0

>  <SCORE.SYSTEM>
0

>  <SCORE.SYSTEM.CONST>
0

>  <SCORE.SYSTEM.DIHEDRAL>
0

>  <SCORE.SYSTEM.SOLV>
0

>  <SCORE.SYSTEM.norm>
0

>  <SCORE.heavy>
27

>  <SCORE.norm>
-0.697041

>  <RMSD>
6.766

$$$$
ligand
 OpenBabel11021811483D
libRbt.so/2013.1/901 2013/11/27
 27 29  0  0  0  0  0  0  0  0999 V2000
   48.8753   53.8737   34.2636 N   0  0  0  0  0  0  0  0  0  0  0  0
   47.7790   54.1028   35.2138 C   0  0  2  0  0  0  0  0  0  0  0  0
   47.4913   52.8156   35.9263 C   0  0  0  0  0  0  0  0  0  0  0  0
   47.4800   51.7648   35.3052 O   0  0  0  0  0  0  0  0  0  0  0  0
   46.5178   54.5685   34.4708 C   0  0  0  0  0  0  0  0  0  0  0  0
   46.7977   55.9203   33.8208 C   0  0  0  0  0  0  0  0  0  0  0  0
   45.3471   56.6378   32.9851 S   0  0  2  0  0  0  0  0  0  0  0  0
   45.1039   55.5935   31.5151 C   0  0  0  0  0  0  0  0  0  0  0  0
   45.7893   58.1979   32.1386 C   0  0  0  0  0  0  0  0  0  0  0  0
   47.2562   58.0180   31.8337 C   0  0  1  0  0  0  0  0  0  0  0  0
   47.2679   57.5182   30.5372 O   0  0  0  0  0  0  0  0  0  0  0  0
   48.2071   59.2088   31.7044 C   0  0  1  0  0  0  0  0  0  0  0  0
   48.8091   59.5500   32.9201 O   0  0  0  0  0  0  0  0  0  0  0  0
   49.2190   58.5892   30.6261 C   0  0  1  0  0  0  0  0  0  0  0  0
   49.8096   57.3395   31.0122 O   0  0  0  0  0  0  0  0  0  0  0  0
   48.0386   58.4594   29.6912 C   0  0  1  0  0  0  0  0  0  0  0  0
   47.2846   52.8227   37.1297 O   0  0  0  0  0  0  0  0  0  0  0  0
   50.3151   55.1352   26.6852 N   0  0  0  0  0  0  0  0  0  0  0  0
   50.6739   55.6420   27.8658 C   0  0  0  0  0  0  0  0  0  0  0  0
   49.8908   56.4867   28.5356 N   0  0  0  0  0  0  0  0  0  0  0  0
   48.7624   56.9614   27.9913 C   0  0  0  0  0  0  0  0  0  0  0  0
   48.3759   56.4928   26.6953 C   0  0  0  0  0  0  0  0  0  0  0  0
   49.2144   55.5351   26.0613 C   0  0  0  0  0  0  0  0  0  0  0  0
   48.9074   55.0241   24.8315 N   0  0  0  0  0  0  0  0  0  0  0  0
   47.2254   57.1166   26.3752 N   0  0  0  0  0  0  0  0  0  0  0  0
   46.8793   57.9245   27.3531 C   0  0  0  0  0  0  0  0  0  0  0  0
   47.7759   57.8681   28.3918 N   0  0  0  0  0  0  0  0  0  0  0  0
  2  1  1  6  0  0  0
  2  3  1  0  0  0  0
  2  5  1  0  0  0  0
  3  4  1  0  0  0  0
  3 17  1  0  0  0  0
  5  6  1  0  0  0  0
  7  6  1  1  0  0  0
  7  8  1  0  0  0  0
  7  9  1  0  0  0  0
 10  9  1  6  0  0  0
 10 11  1  0  0  0  0
 10 12  1  0  0  0  0
 11 16  1  0  0  0  0
 12 13  1  1  0  0  0
 12 14  1  0  0  0  0
 14 15  1  1  0  0  0
 14 16  1  0  0  0  0
 16 27  1  6  0  0  0
 18 19  2  0  0  0  0
 18 23  1  0  0  0  0
 19 20  1  0  0  0  0
 20 21  2  0  0  0  0
 21 22  1  0  0  0  0
 21 27  1  0  0  0  0
 22 23  2  0  0  0  0
 22 25  1  0  0  0  0
 23 24  1  0  0  0  0
 25 26  2  0  0  0  0
 26 27  1  0  0  0  0
M  END
>  <CHROM.1>
-41.59484542,-64.15280119,-176.57286019,-71.01243167,27.26016167,94.40365572
-93.56772674,47.82161889,56.26251115,31.03242897,-2.09431721,1.15891648,-0.77539303

>  <Name>
ligand

>  <RI>
0

>  <Rbt.Current_Directory>
/home/itssahil/PROJECTS/Mol_Feturizer/New_Systems/rnas/3IQN

>  <Rbt.Executable>
rbdock ($Id: //depot/dev/client3/rdock/2013.1/src/exe/rbdock.cxx#4 $)

>  <Rbt.Library>
libRbt.so (2013.1, Build901 2013/11/27)

>  <Rbt.Parameter_File>
/export/apps/rDock/src/rDock_2013.1_src/data/scripts/dock_solv.prm

>  <Rbt.Receptor>
prm/pocket_docking_4.prm

>  <SCORE>
-18.821

>  <SCORE.INTER>
-17.487

>  <SCORE.INTER.CONST>
1

>  <SCORE.INTER.POLAR>
0

>  <SCORE.INTER.ROT>
7

>  <SCORE.INTER.SOLV>
12.7357

>  <SCORE.INTER.VDW>
-24.1699

>  <SCORE.INTER.norm>
-0.647665

>  <SCORE.INTRA>
-1.33401

>  <SCORE.INTRA.DIHEDRAL>
-1.61467

>  <SCORE.INTRA.DIHEDRAL.0>
10.0365

>  <SCORE.INTRA.POLAR>
0

>  <SCORE.INTRA.POLAR.0>
0

>  <SCORE.INTRA.REPUL>
0

>  <SCORE.INTRA.REPUL.0>
0

>  <SCORE.INTRA.SOLV>
-0.0759602

>  <SCORE.INTRA.SOLV.lig_0>
-48.6728

>  <SCORE.INTRA.VDW>
-0.488696

>  <SCORE.INTRA.VDW.0>
-1.10662

>  <SCORE.INTRA.norm>
-0.0494078

>  <SCORE.RESTR>
0

>  <SCORE.RESTR.CAVITY>
0

>  <SCORE.RESTR.norm>
0

>  <SCORE.SYSTEM>
0

>  <SCORE.SYSTEM.CONST>
0

>  <SCORE.SYSTEM.DIHEDRAL>
0

>  <SCORE.SYSTEM.SOLV>
0

>  <SCORE.SYSTEM.norm>
0

>  <SCORE.heavy>
27

>  <SCORE.norm>
-0.697073

>  <RMSD>
6.775

$$$$
ligand
 OpenBabel11021811483D
libRbt.so/2013.1/901 2013/11/27
 27 29  0  0  0  0  0  0  0  0999 V2000
   49.3362   58.6554   32.4277 N   0  0  0  0  0  0  0  0  0  0  0  0
   48.5724   57.7020   33.2433 C   0  0  2  0  0  0  0  0  0  0  0  0
   49.3373   56.4144   33.3098 C   0  0  0  0  0  0  0  0  0  0  0  0
   49.4624   55.8346   34.3767 O   0  0  0  0  0  0  0  0  0  0  0  0
   47.1946   57.4460   32.6144 C   0  0  0  0  0  0  0  0  0  0  0  0
   46.4101   56.4946   33.5130 C   0  0  0  0  0  0  0  0  0  0  0  0
   44.7266   56.1492   32.9096 S   0  0  2  0  0  0  0  0  0  0  0  0
   44.0974   54.8572   34.0256 C   0  0  0  0  0  0  0  0  0  0  0  0
   44.7770   55.1713   31.3646 C   0  0  0  0  0  0  0  0  0  0  0  0
   44.7324   56.2285   30.2887 C   0  0  1  0  0  0  0  0  0  0  0  0
   46.0089   56.1997   29.7406 O   0  0  0  0  0  0  0  0  0  0  0  0
   43.8657   56.0736   29.0382 C   0  0  1  0  0  0  0  0  0  0  0  0
   42.5853   56.6127   29.2019 O   0  0  0  0  0  0  0  0  0  0  0  0
   44.7884   56.8839   28.0074 C   0  0  1  0  0  0  0  0  0  0  0  0
   45.0941   58.2271   28.4099 O   0  0  0  0  0  0  0  0  0  0  0  0
   45.8806   55.8808   28.2992 C   0  0  1  0  0  0  0  0  0  0  0  0
   49.8189   55.9429   32.2917 O   0  0  0  0  0  0  0  0  0  0  0  0
   49.1586   52.0733   28.1373 N   0  0  0  0  0  0  0  0  0  0  0  0
   47.8737   52.1120   28.4934 C   0  0  0  0  0  0  0  0  0  0  0  0
   47.1556   53.2315   28.4145 N   0  0  0  0  0  0  0  0  0  0  0  0
   47.7291   54.3985   28.0918 C   0  0  0  0  0  0  0  0  0  0  0  0
   49.1232   54.4112   27.7676 C   0  0  0  0  0  0  0  0  0  0  0  0
   49.8203   53.1721   27.7973 C   0  0  0  0  0  0  0  0  0  0  0  0
   51.1482   53.0953   27.4838 N   0  0  0  0  0  0  0  0  0  0  0  0
   49.4533   55.6872   27.4882 N   0  0  0  0  0  0  0  0  0  0  0  0
   48.3916   56.4520   27.6174 C   0  0  0  0  0  0  0  0  0  0  0  0
   47.2859   55.7196   27.9737 N   0  0  0  0  0  0  0  0  0  0  0  0
  2  1  1  6  0  0  0
  2  3  1  0  0  0  0
  2  5  1  0  0  0  0
  3  4  1  0  0  0  0
  3 17  1  0  0  0  0
  5  6  1  0  0  0  0
  7  6  1  1  0  0  0
  7  8  1  0  0  0  0
  7  9  1  0  0  0  0
 10  9  1  1  0  0  0
 10 11  1  0  0  0  0
 10 12  1  0  0  0  0
 11 16  1  0  0  0  0
 12 13  1  1  0  0  0
 12 14  1  0  0  0  0
 14 15  1  1  0  0  0
 14 16  1  0  0  0  0
 16 27  1  6  0  0  0
 18 19  2  0  0  0  0
 18 23  1  0  0  0  0
 19 20  1  0  0  0  0
 20 21  2  0  0  0  0
 21 22  1  0  0  0  0
 21 27  1  0  0  0  0
 22 23  2  0  0  0  0
 22 25  1  0  0  0  0
 23 24  1  0  0  0  0
 25 26  2  0  0  0  0
 26 27  1  0  0  0  0
M  END
>  <CHROM.1>
135.09926042,-177.88690824,178.03838034,173.29172625,-93.14323311,109.47316978
91.98931821,47.01553939,55.66739329,30.28781304,-2.10490641,0.25687754,-1.91520357

>  <Name>
ligand

>  <RI>
0

>  <Rbt.Current_Directory>
/home/itssahil/PROJECTS/Mol_Feturizer/New_Systems/rnas/3IQN

>  <Rbt.Executable>
rbdock ($Id: //depot/dev/client3/rdock/2013.1/src/exe/rbdock.cxx#4 $)

>  <Rbt.Library>
libRbt.so (2013.1, Build901 2013/11/27)

>  <Rbt.Parameter_File>
/export/apps/rDock/src/rDock_2013.1_src/data/scripts/dock_solv.prm

>  <Rbt.Receptor>
prm/pocket_docking_5.prm

>  <SCORE>
-13.7769

>  <SCORE.INTER>
-11.1617

>  <SCORE.INTER.CONST>
1

>  <SCORE.INTER.POLAR>
0

>  <SCORE.INTER.ROT>
7

>  <SCORE.INTER.SOLV>
13.2078

>  <SCORE.INTER.VDW>
-20.1104

>  <SCORE.INTER.norm>
-0.413397

>  <SCORE.INTRA>
-2.61518

>  <SCORE.INTRA.DIHEDRAL>
-0.353086

>  <SCORE.INTRA.DIHEDRAL.0>
10.0365

>  <SCORE.INTRA.POLAR>
0

>  <SCORE.INTRA.POLAR.0>
0

>  <SCORE.INTRA.REPUL>
0

>  <SCORE.INTRA.REPUL.0>
0

>  <SCORE.INTRA.SOLV>
-1.12293

>  <SCORE.INTRA.SOLV.lig_0>
-48.6728

>  <SCORE.INTRA.VDW>
-1.87717

>  <SCORE.INTRA.VDW.0>
-1.10662

>  <SCORE.INTRA.norm>
-0.0968583

>  <SCORE.RESTR>
0

>  <SCORE.RESTR.CAVITY>
0

>  <SCORE.RESTR.norm>
0

>  <SCORE.SYSTEM>
0

>  <SCORE.SYSTEM.CONST>
0

>  <SCORE.SYSTEM.DIHEDRAL>
0

>  <SCORE.SYSTEM.SOLV>
0

>  <SCORE.SYSTEM.norm>
0

>  <SCORE.heavy>
27

>  <SCORE.norm>
-0.510255

>  <RMSD>
6.780

$$$$
ligand
 OpenBabel11021811483D
libRbt.so/2013.1/901 2013/11/27
 27 29  0  0  0  0  0  0  0  0999 V2000
   46.0404   55.6770   32.4717 N   0  0  0  0  0  0  0  0  0  0  0  0
   45.3096   56.6277   31.6236 C   0  0  2  0  0  0  0  0  0  0  0  0
   44.5015   55.8517   30.6275 C   0  0  0  0  0  0  0  0  0  0  0  0
   44.7628   54.6788   30.4124 O   0  0  0  0  0  0  0  0  0  0  0  0
   46.2928   57.5446   30.8805 C   0  0  0  0  0  0  0  0  0  0  0  0
   47.1309   58.3042   31.9047 C   0  0  0  0  0  0  0  0  0  0  0  0
   48.5585   57.3556   32.5209 S   0  0  2  0  0  0  0  0  0  0  0  0
   49.5533   58.5718   33.4383 C   0  0  0  0  0  0  0  0  0  0  0  0
   49.7393   57.0048   31.1687 C   0  0  0  0  0  0  0  0  0  0  0  0
   49.2710   55.6701   30.6430 C   0  0  1  0  0  0  0  0  0  0  0  0
   49.9977   55.5003   29.4709 O   0  0  0  0  0  0  0  0  0  0  0  0
   49.5728   54.3616   31.3750 C   0  0  1  0  0  0  0  0  0  0  0  0
   48.5727   54.0146   32.2894 O   0  0  0  0  0  0  0  0  0  0  0  0
   49.6586   53.3910   30.1016 C   0  0  1  0  0  0  0  0  0  0  0  0
   48.4923   53.4004   29.2655 O   0  0  0  0  0  0  0  0  0  0  0  0
   50.7923   54.2564   29.6016 C   0  0  1  0  0  0  0  0  0  0  0  0
   43.5741   56.3932   30.0466 O   0  0  0  0  0  0  0  0  0  0  0  0
   51.9070   51.2821   25.7055 N   0  0  0  0  0  0  0  0  0  0  0  0
   51.1782   51.0598   26.8004 C   0  0  0  0  0  0  0  0  0  0  0  0
   50.9577   52.0138   27.7040 N   0  0  0  0  0  0  0  0  0  0  0  0
   51.5649   53.2046   27.6130 C   0  0  0  0  0  0  0  0  0  0  0  0
   52.4097   53.4596   26.4862 C   0  0  0  0  0  0  0  0  0  0  0  0
   52.5474   52.4288   25.5163 C   0  0  0  0  0  0  0  0  0  0  0  0
   53.3210   52.5986   24.4026 N   0  0  0  0  0  0  0  0  0  0  0  0
   52.8970   54.7074   26.6306 N   0  0  0  0  0  0  0  0  0  0  0  0
   52.4316   55.2326   27.7425 C   0  0  0  0  0  0  0  0  0  0  0  0
   51.5892   54.3650   28.3932 N   0  0  0  0  0  0  0  0  0  0  0  0
  2  1  1  1  0  0  0
  2  3  1  0  0  0  0
  2  5  1  0  0  0  0
  3  4  1  0  0  0  0
  3 17  1  0  0  0  0
  5  6  1  0  0  0  0
  7  6  1  6  0  0  0
  7  8  1  0  0  0  0
  7  9  1  0  0  0  0
 10  9  1  1  0  0  0
 10 11  1  0  0  0  0
 10 12  1  0  0  0  0
 11 16  1  0  0  0  0
 12 13  1  1  0  0  0
 12 14  1  0  0  0  0
 14 15  1  6  0  0  0
 14 16  1  0  0  0  0
 16 27  1  6  0  0  0
 18 19  2  0  0  0  0
 18 23  1  0  0  0  0
 19 20  1  0  0  0  0
 20 21  2  0  0  0  0
 21 22  1  0  0  0  0
 21 27  1  0  0  0  0
 22 23  2  0  0  0  0
 22 25  1  0  0  0  0
 23 24  1  0  0  0  0
 25 26  2  0  0  0  0
 26 27  1  0  0  0  0
M  END
>  <CHROM.1>
-17.29498531,-59.43223282,83.25310389,168.98385950,-91.18215872,169.68306296
-129.35913547,49.22379575,54.94327106,29.65864940,2.28970085,0.15073901,0.79554033

>  <Name>
ligand

>  <RI>
0

>  <Rbt.Current_Directory>
/home/itssahil/PROJECTS/Mol_Feturizer/New_Systems/rnas/3IQN

>  <Rbt.Executable>
rbdock ($Id: //depot/dev/client3/rdock/2013.1/src/exe/rbdock.cxx#4 $)

>  <Rbt.Library>
libRbt.so (2013.1, Build901 2013/11/27)

>  <Rbt.Parameter_File>
/export/apps/rDock/src/rDock_2013.1_src/data/scripts/dock_solv.prm

>  <Rbt.Receptor>
prm/pocket_docking_8.prm

>  <SCORE>
-16.0676

>  <SCORE.INTER>
-13.8216

>  <SCORE.INTER.CONST>
1

>  <SCORE.INTER.POLAR>
0

>  <SCORE.INTER.ROT>
7

>  <SCORE.INTER.SOLV>
5.89426

>  <SCORE.INTER.VDW>
-19.4458

>  <SCORE.INTER.norm>
-0.51191

>  <SCORE.INTRA>
-2.24599

>  <SCORE.INTRA.DIHEDRAL>
-3.03069

>  <SCORE.INTRA.DIHEDRAL.0>
10.0365

>  <SCORE.INTRA.POLAR>
0

>  <SCORE.INTRA.POLAR.0>
0

>  <SCORE.INTRA.REPUL>
0

>  <SCORE.INTRA.REPUL.0>
0

>  <SCORE.INTRA.SOLV>
3.33674

>  <SCORE.INTRA.SOLV.lig_0>
-48.6728

>  <SCORE.INTRA.VDW>
-2.39902

>  <SCORE.INTRA.VDW.0>
-1.10662

>  <SCORE.INTRA.norm>
-0.0831847

>  <SCORE.RESTR>
0

>  <SCORE.RESTR.CAVITY>
0

>  <SCORE.RESTR.norm>
0

>  <SCORE.SYSTEM>
0

>  <SCORE.SYSTEM.CONST>
0

>  <SCORE.SYSTEM.DIHEDRAL>
0

>  <SCORE.SYSTEM.SOLV>
0

>  <SCORE.SYSTEM.norm>
0

>  <SCORE.heavy>
27

>  <SCORE.norm>
-0.595095

>  <RMSD>
6.795

$$$$
ligand
 OpenBabel11021811483D
libRbt.so/2013.1/901 2013/11/27
 27 29  0  0  0  0  0  0  0  0999 V2000
   48.5218   53.3076   33.2928 N   0  0  0  0  0  0  0  0  0  0  0  0
   48.1889   54.0649   34.5064 C   0  0  2  0  0  0  0  0  0  0  0  0
   48.1494   53.1134   35.6642 C   0  0  0  0  0  0  0  0  0  0  0  0
   47.3750   52.1698   35.6511 O   0  0  0  0  0  0  0  0  0  0  0  0
   46.8182   54.7412   34.3540 C   0  0  0  0  0  0  0  0  0  0  0  0
   47.0036   56.0807   33.6472 C   0  0  0  0  0  0  0  0  0  0  0  0
   45.4404   56.8254   33.0820 S   0  0  2  0  0  0  0  0  0  0  0  0
   44.8629   55.7231   31.7547 C   0  0  0  0  0  0  0  0  0  0  0  0
   45.7578   58.3189   32.0747 C   0  0  0  0  0  0  0  0  0  0  0  0
   47.2127   58.1764   31.7004 C   0  0  1  0  0  0  0  0  0  0  0  0
   47.1786   57.5262   30.4729 O   0  0  0  0  0  0  0  0  0  0  0  0
   48.0859   59.3887   31.3732 C   0  0  1  0  0  0  0  0  0  0  0  0
   48.7361   59.9023   32.5003 O   0  0  0  0  0  0  0  0  0  0  0  0
   49.0680   58.6951   30.3124 C   0  0  1  0  0  0  0  0  0  0  0  0
   49.7493   57.5314   30.8033 O   0  0  0  0  0  0  0  0  0  0  0  0
   47.8453   58.3963   29.4758 C   0  0  1  0  0  0  0  0  0  0  0  0
   48.9045   53.2781   36.6094 O   0  0  0  0  0  0  0  0  0  0  0  0
   50.2736   55.1230   26.5335 N   0  0  0  0  0  0  0  0  0  0  0  0
   50.6713   55.7954   27.6147 C   0  0  0  0  0  0  0  0  0  0  0  0
   49.8434   56.5890   28.2931 N   0  0  0  0  0  0  0  0  0  0  0  0
   48.6073   56.8432   27.8434 C   0  0  0  0  0  0  0  0  0  0  0  0
   48.1649   56.1925   26.6478 C   0  0  0  0  0  0  0  0  0  0  0  0
   49.0678   55.2990   26.0085 C   0  0  0  0  0  0  0  0  0  0  0  0
   48.7167   54.6244   24.8730 N   0  0  0  0  0  0  0  0  0  0  0  0
   46.9077   56.6140   26.4091 N   0  0  0  0  0  0  0  0  0  0  0  0
   46.5465   57.4641   27.3449 C   0  0  0  0  0  0  0  0  0  0  0  0
   47.5426   57.6415   28.2735 N   0  0  0  0  0  0  0  0  0  0  0  0
  2  1  1  6  0  0  0
  2  3  1  0  0  0  0
  2  5  1  0  0  0  0
  3  4  1  0  0  0  0
  3 17  1  0  0  0  0
  5  6  1  0  0  0  0
  7  6  1  6  0  0  0
  7  8  1  0  0  0  0
  7  9  1  0  0  0  0
 10  9  1  6  0  0  0
 10 11  1  0  0  0  0
 10 12  1  0  0  0  0
 11 16  1  0  0  0  0
 12 13  1  1  0  0  0
 12 14  1  0  0  0  0
 14 15  1  1  0  0  0
 14 16  1  0  0  0  0
 16 27  1  6  0  0  0
 18 19  2  0  0  0  0
 18 23  1  0  0  0  0
 19 20  1  0  0  0  0
 20 21  2  0  0  0  0
 21 22  1  0  0  0  0
 21 27  1  0  0  0  0
 22 23  2  0  0  0  0
 22 25  1  0  0  0  0
 23 24  1  0  0  0  0
 25 26  2  0  0  0  0
 26 27  1  0  0  0  0
M  END
>  <CHROM.1>
-59.13211823,-85.46676104,167.62150663,-68.00381307,17.14551486,92.77473318
-99.64778936,47.83839389,56.29054250,30.87041018,-1.94804432,1.14877547,-0.96332844

>  <Name>
ligand

>  <RI>
0

>  <Rbt.Current_Directory>
/home/itssahil/PROJECTS/Mol_Feturizer/New_Systems/rnas/3IQN

>  <Rbt.Executable>
rbdock ($Id: //depot/dev/client3/rdock/2013.1/src/exe/rbdock.cxx#4 $)

>  <Rbt.Library>
libRbt.so (2013.1, Build901 2013/11/27)

>  <Rbt.Parameter_File>
/export/apps/rDock/src/rDock_2013.1_src/data/scripts/dock_solv.prm

>  <Rbt.Receptor>
prm/pocket_docking_3.prm

>  <SCORE>
-16.0354

>  <SCORE.INTER>
-16.4283

>  <SCORE.INTER.CONST>
1

>  <SCORE.INTER.POLAR>
0

>  <SCORE.INTER.ROT>
7

>  <SCORE.INTER.SOLV>
11.7623

>  <SCORE.INTER.VDW>
-23.1396

>  <SCORE.INTER.norm>
-0.608454

>  <SCORE.INTRA>
0.346522

>  <SCORE.INTRA.DIHEDRAL>
1.98872

>  <SCORE.INTRA.DIHEDRAL.0>
10.0365

>  <SCORE.INTRA.POLAR>
0

>  <SCORE.INTRA.POLAR.0>
0

>  <SCORE.INTRA.REPUL>
0

>  <SCORE.INTRA.REPUL.0>
0

>  <SCORE.INTRA.SOLV>
-0.173071

>  <SCORE.INTRA.SOLV.lig_0>
-48.6728

>  <SCORE.INTRA.VDW>
-0.561301

>  <SCORE.INTRA.VDW.0>
-1.10662

>  <SCORE.INTRA.norm>
0.0128341

>  <SCORE.RESTR>
0.0463597

>  <SCORE.RESTR.CAVITY>
0.0463597

>  <SCORE.RESTR.norm>
0.00171702

>  <SCORE.SYSTEM>
0

>  <SCORE.SYSTEM.CONST>
0

>  <SCORE.SYSTEM.DIHEDRAL>
0

>  <SCORE.SYSTEM.SOLV>
0

>  <SCORE.SYSTEM.norm>
0

>  <SCORE.heavy>
27

>  <SCORE.norm>
-0.593903

>  <RMSD>
6.813

$$$$
ligand
 OpenBabel11021811483D
libRbt.so/2013.1/901 2013/11/27
 27 29  0  0  0  0  0  0  0  0999 V2000
   49.5550   58.7970   32.2735 N   0  0  0  0  0  0  0  0  0  0  0  0
   48.7600   57.7472   31.6229 C   0  0  2  0  0  0  0  0  0  0  0  0
   48.3384   58.2397   30.2712 C   0  0  0  0  0  0  0  0  0  0  0  0
   47.6190   59.2215   30.1777 O   0  0  0  0  0  0  0  0  0  0  0  0
   47.5136   57.4254   32.4610 C   0  0  0  0  0  0  0  0  0  0  0  0
   47.9504   56.7474   33.7563 C   0  0  0  0  0  0  0  0  0  0  0  0
   48.3366   54.9788   33.5552 S   0  0  2  0  0  0  0  0  0  0  0  0
   49.3563   54.5662   35.0045 C   0  0  0  0  0  0  0  0  0  0  0  0
   49.6005   54.7325   32.2560 C   0  0  0  0  0  0  0  0  0  0  0  0
   48.7770   54.4011   31.0357 C   0  0  1  0  0  0  0  0  0  0  0  0
   49.7179   54.2891   30.0194 O   0  0  0  0  0  0  0  0  0  0  0  0
   48.0301   53.0734   30.9003 C   0  0  1  0  0  0  0  0  0  0  0  0
   46.7232   53.1394   31.3949 O   0  0  0  0  0  0  0  0  0  0  0  0
   48.1180   52.9123   29.3076 C   0  0  1  0  0  0  0  0  0  0  0  0
   47.5885   54.0212   28.5662 O   0  0  0  0  0  0  0  0  0  0  0  0
   49.6221   52.9218   29.4562 C   0  0  1  0  0  0  0  0  0  0  0  0
   48.7301   57.6646   29.2679 O   0  0  0  0  0  0  0  0  0  0  0  0
   50.8885   50.8510   25.0543 N   0  0  0  0  0  0  0  0  0  0  0  0
   49.7946   50.7172   25.8059 C   0  0  0  0  0  0  0  0  0  0  0  0
   49.6282   51.4061   26.9342 N   0  0  0  0  0  0  0  0  0  0  0  0
   50.6113   52.1709   27.4276 C   0  0  0  0  0  0  0  0  0  0  0  0
   51.8286   52.2879   26.6838 C   0  0  0  0  0  0  0  0  0  0  0  0
   51.9190   51.5876   25.4494 C   0  0  0  0  0  0  0  0  0  0  0  0
   53.0394   51.6609   24.6703 N   0  0  0  0  0  0  0  0  0  0  0  0
   52.6459   53.0967   27.3859 N   0  0  0  0  0  0  0  0  0  0  0  0
   52.0413   53.4780   28.4895 C   0  0  0  0  0  0  0  0  0  0  0  0
   50.7739   52.9559   28.5735 N   0  0  0  0  0  0  0  0  0  0  0  0
  2  1  1  1  0  0  0
  2  3  1  0  0  0  0
  2  5  1  0  0  0  0
  3  4  1  0  0  0  0
  3 17  1  0  0  0  0
  5  6  1  0  0  0  0
  7  6  1  1  0  0  0
  7  8  1  0  0  0  0
  7  9  1  0  0  0  0
 10  9  1  1  0  0  0
 10 11  1  0  0  0  0
 10 12  1  0  0  0  0
 11 16  1  0  0  0  0
 12 13  1  6  0  0  0
 12 14  1  0  0  0  0
 14 15  1  6  0  0  0
 14 16  1  0  0  0  0
 16 27  1  6  0  0  0
 18 19  2  0  0  0  0
 18 23  1  0  0  0  0
 19 20  1  0  0  0  0
 20 21  2  0  0  0  0
 21 22  1  0  0  0  0
 21 27  1  0  0  0  0
 22 23  2  0  0  0  0
 22 25  1  0  0  0  0
 23 24  1  0  0  0  0
 25 26  2  0  0  0  0
 26 27  1  0  0  0  0
M  END
>  <CHROM.1>
-62.45993571,-68.44911828,-79.51050549,160.58539503,-96.69370137,176.56886527
-148.56504199,49.41753253,54.36963623,29.81266444,-2.64510962,-1.16507172
3.00602191

>  <Name>
ligand

>  <RI>
0

>  <Rbt.Current_Directory>
/home/itssahil/PROJECTS/Mol_Feturizer/New_Systems/rnas/3IQN

>  <Rbt.Executable>
rbdock ($Id: //depot/dev/client3/rdock/2013.1/src/exe/rbdock.cxx#4 $)

>  <Rbt.Library>
libRbt.so (2013.1, Build901 2013/11/27)

>  <Rbt.Parameter_File>
/export/apps/rDock/src/rDock_2013.1_src/data/scripts/dock_solv.prm

>  <Rbt.Receptor>
prm/pocket_docking_8.prm

>  <SCORE>
-16.5508

>  <SCORE.INTER>
-13.0934

>  <SCORE.INTER.CONST>
1

>  <SCORE.INTER.POLAR>
0

>  <SCORE.INTER.ROT>
7

>  <SCORE.INTER.SOLV>
10.4333

>  <SCORE.INTER.VDW>
-20.4733

>  <SCORE.INTER.norm>
-0.484939

>  <SCORE.INTRA>
-3.45745

>  <SCORE.INTRA.DIHEDRAL>
-2.57875

>  <SCORE.INTRA.DIHEDRAL.0>
10.0365

>  <SCORE.INTRA.POLAR>
0

>  <SCORE.INTRA.POLAR.0>
0

>  <SCORE.INTRA.REPUL>
0

>  <SCORE.INTRA.REPUL.0>
0

>  <SCORE.INTRA.SOLV>
0.610342

>  <SCORE.INTRA.SOLV.lig_0>
-48.6728

>  <SCORE.INTRA.VDW>
-2.47325

>  <SCORE.INTRA.VDW.0>
-1.10662

>  <SCORE.INTRA.norm>
-0.128054

>  <SCORE.RESTR>
0

>  <SCORE.RESTR.CAVITY>
0

>  <SCORE.RESTR.norm>
0

>  <SCORE.SYSTEM>
0

>  <SCORE.SYSTEM.CONST>
0

>  <SCORE.SYSTEM.DIHEDRAL>
0

>  <SCORE.SYSTEM.SOLV>
0

>  <SCORE.SYSTEM.norm>
0

>  <SCORE.heavy>
27

>  <SCORE.norm>
-0.612993

>  <RMSD>
6.816

$$$$
ligand
 OpenBabel11021811483D
libRbt.so/2013.1/901 2013/11/27
 27 29  0  0  0  0  0  0  0  0999 V2000
   45.8274   52.8613   33.4371 N   0  0  0  0  0  0  0  0  0  0  0  0
   46.9110   52.9653   34.4232 C   0  0  2  0  0  0  0  0  0  0  0  0
   46.5639   52.1073   35.6025 C   0  0  0  0  0  0  0  0  0  0  0  0
   45.4021   52.0103   35.9644 O   0  0  0  0  0  0  0  0  0  0  0  0
   47.0765   54.4218   34.8821 C   0  0  0  0  0  0  0  0  0  0  0  0
   47.1698   55.3201   33.6522 C   0  0  0  0  0  0  0  0  0  0  0  0
   45.8595   56.5829   33.5750 S   0  0  2  0  0  0  0  0  0  0  0  0
   44.3246   55.6349   33.3395 C   0  0  0  0  0  0  0  0  0  0  0  0
   45.8891   57.4540   31.9668 C   0  0  0  0  0  0  0  0  0  0  0  0
   47.3470   57.8023   31.7929 C   0  0  1  0  0  0  0  0  0  0  0  0
   47.6690   57.2760   30.5479 O   0  0  0  0  0  0  0  0  0  0  0  0
   47.8200   59.2485   31.6384 C   0  0  1  0  0  0  0  0  0  0  0  0
   48.1329   59.8452   32.8643 O   0  0  0  0  0  0  0  0  0  0  0  0
   49.0913   58.9838   30.6979 C   0  0  1  0  0  0  0  0  0  0  0  0
   50.0448   58.0539   31.2323 O   0  0  0  0  0  0  0  0  0  0  0  0
   48.1370   58.3886   29.6883 C   0  0  1  0  0  0  0  0  0  0  0  0
   47.4446   51.4961   36.1869 O   0  0  0  0  0  0  0  0  0  0  0  0
   50.9216   54.6307   27.8464 N   0  0  0  0  0  0  0  0  0  0  0  0
   50.9418   55.2392   29.0333 C   0  0  0  0  0  0  0  0  0  0  0  0
   50.0695   56.1962   29.3476 N   0  0  0  0  0  0  0  0  0  0  0  0
   49.2127   56.6759   28.4364 C   0  0  0  0  0  0  0  0  0  0  0  0
   49.2054   56.0945   27.1285 C   0  0  0  0  0  0  0  0  0  0  0  0
   50.1088   55.0259   26.8749 C   0  0  0  0  0  0  0  0  0  0  0  0
   50.1525   54.4048   25.6584 N   0  0  0  0  0  0  0  0  0  0  0  0
   48.2717   56.7477   26.4096 N   0  0  0  0  0  0  0  0  0  0  0  0
   47.7145   57.6752   27.1566 C   0  0  0  0  0  0  0  0  0  0  0  0
   48.2368   57.6776   28.4267 N   0  0  0  0  0  0  0  0  0  0  0  0
  2  1  1  6  0  0  0
  2  3  1  0  0  0  0
  2  5  1  0  0  0  0
  3  4  1  0  0  0  0
  3 17  1  0  0  0  0
  5  6  1  0  0  0  0
  7  6  1  6  0  0  0
  7  8  1  0  0  0  0
  7  9  1  0  0  0  0
 10  9  1  6  0  0  0
 10 11  1  0  0  0  0
 10 12  1  0  0  0  0
 11 16  1  0  0  0  0
 12 13  1  1  0  0  0
 12 14  1  0  0  0  0
 14 15  1  1  0  0  0
 14 16  1  0  0  0  0
 16 27  1  6  0  0  0
 18 19  2  0  0  0  0
 18 23  1  0  0  0  0
 19 20  1  0  0  0  0
 20 21  2  0  0  0  0
 21 22  1  0  0  0  0
 21 27  1  0  0  0  0
 22 23  2  0  0  0  0
 22 25  1  0  0  0  0
 23 24  1  0  0  0  0
 25 26  2  0  0  0  0
 26 27  1  0  0  0  0
M  END
>  <CHROM.1>
-35.77873087,-50.28706870,120.32829010,-66.49925172,-47.85270792,126.07721779
-65.01836107,47.84054483,55.97445688,31.26688256,-2.52301835,1.08447198,-0.26950108

>  <Name>
ligand

>  <RI>
0

>  <Rbt.Current_Directory>
/home/itssahil/PROJECTS/Mol_Feturizer/New_Systems/rnas/3IQN

>  <Rbt.Executable>
rbdock ($Id: //depot/dev/client3/rdock/2013.1/src/exe/rbdock.cxx#4 $)

>  <Rbt.Library>
libRbt.so (2013.1, Build901 2013/11/27)

>  <Rbt.Parameter_File>
/export/apps/rDock/src/rDock_2013.1_src/data/scripts/dock_solv.prm

>  <Rbt.Receptor>
prm/pocket_docking_4.prm

>  <SCORE>
-13.2614

>  <SCORE.INTER>
-15.6048

>  <SCORE.INTER.CONST>
1

>  <SCORE.INTER.POLAR>
0

>  <SCORE.INTER.ROT>
7

>  <SCORE.INTER.SOLV>
12.561

>  <SCORE.INTER.VDW>
-22.8569

>  <SCORE.INTER.norm>
-0.577956

>  <SCORE.INTRA>
2.34338

>  <SCORE.INTRA.DIHEDRAL>
4.75111

>  <SCORE.INTRA.DIHEDRAL.0>
10.0365

>  <SCORE.INTRA.POLAR>
0

>  <SCORE.INTRA.POLAR.0>
0

>  <SCORE.INTRA.REPUL>
0

>  <SCORE.INTRA.REPUL.0>
0

>  <SCORE.INTRA.SOLV>
1.74437

>  <SCORE.INTRA.SOLV.lig_0>
-48.6728

>  <SCORE.INTRA.VDW>
-0.90436

>  <SCORE.INTRA.VDW.0>
-1.10662

>  <SCORE.INTRA.norm>
0.0867917

>  <SCORE.RESTR>
0

>  <SCORE.RESTR.CAVITY>
0

>  <SCORE.RESTR.norm>
0

>  <SCORE.SYSTEM>
0

>  <SCORE.SYSTEM.CONST>
0

>  <SCORE.SYSTEM.DIHEDRAL>
0

>  <SCORE.SYSTEM.SOLV>
0

>  <SCORE.SYSTEM.norm>
0

>  <SCORE.heavy>
27

>  <SCORE.norm>
-0.491164

>  <RMSD>
6.834

$$$$
ligand
 OpenBabel11021811483D
libRbt.so/2013.1/901 2013/11/27
 27 29  0  0  0  0  0  0  0  0999 V2000
   47.4516   53.5910   33.1578 N   0  0  0  0  0  0  0  0  0  0  0  0
   47.8866   53.2398   34.5160 C   0  0  2  0  0  0  0  0  0  0  0  0
   46.8537   52.3423   35.1283 C   0  0  0  0  0  0  0  0  0  0  0  0
   47.1931   51.4650   35.9063 O   0  0  0  0  0  0  0  0  0  0  0  0
   48.0355   54.5061   35.3725 C   0  0  0  0  0  0  0  0  0  0  0  0
   49.2291   55.3093   34.8642 C   0  0  0  0  0  0  0  0  0  0  0  0
   48.8860   56.2252   33.3277 S   0  0  2  0  0  0  0  0  0  0  0  0
   49.7578   57.8086   33.5353 C   0  0  0  0  0  0  0  0  0  0  0  0
   47.1705   56.8601   33.3177 C   0  0  0  0  0  0  0  0  0  0  0  0
   47.1172   57.6826   32.0537 C   0  0  1  0  0  0  0  0  0  0  0  0
   47.2050   56.7384   31.0381 O   0  0  0  0  0  0  0  0  0  0  0  0
   45.8607   58.4506   31.6412 C   0  0  1  0  0  0  0  0  0  0  0  0
   45.8438   59.7587   32.1365 O   0  0  0  0  0  0  0  0  0  0  0  0
   46.0363   58.3571   30.0502 C   0  0  1  0  0  0  0  0  0  0  0  0
   47.2851   58.8644   29.5576 O   0  0  0  0  0  0  0  0  0  0  0  0
   45.9885   56.8539   30.1999 C   0  0  1  0  0  0  0  0  0  0  0  0
   45.6741   52.5034   34.8575 O   0  0  0  0  0  0  0  0  0  0  0  0
   47.5761   56.0369   25.5009 N   0  0  0  0  0  0  0  0  0  0  0  0
   47.3956   57.1689   26.1831 C   0  0  0  0  0  0  0  0  0  0  0  0
   47.0105   57.1674   27.4586 N   0  0  0  0  0  0  0  0  0  0  0  0
   46.6663   56.0286   28.0746 C   0  0  0  0  0  0  0  0  0  0  0  0
   46.7820   54.7970   27.3545 C   0  0  0  0  0  0  0  0  0  0  0  0
   47.2696   54.8548   26.0199 C   0  0  0  0  0  0  0  0  0  0  0  0
   47.4265   53.7229   25.2703 N   0  0  0  0  0  0  0  0  0  0  0  0
   46.3760   53.8144   28.1821 N   0  0  0  0  0  0  0  0  0  0  0  0
   46.0193   54.3341   29.3360 C   0  0  0  0  0  0  0  0  0  0  0  0
   46.1873   55.6971   29.3460 N   0  0  0  0  0  0  0  0  0  0  0  0
  2  1  1  6  0  0  0
  2  3  1  0  0  0  0
  2  5  1  0  0  0  0
  3  4  1  0  0  0  0
  3 17  1  0  0  0  0
  5  6  1  0  0  0  0
  7  6  1  1  0  0  0
  7  8  1  0  0  0  0
  7  9  1  0  0  0  0
 10  9  1  1  0  0  0
 10 11  1  0  0  0  0
 10 12  1  0  0  0  0
 11 16  1  0  0  0  0
 12 13  1  1  0  0  0
 12 14  1  0  0  0  0
 14 15  1  1  0  0  0
 14 16  1  0  0  0  0
 16 27  1  6  0  0  0
 18 19  2  0  0  0  0
 18 23  1  0  0  0  0
 19 20  1  0  0  0  0
 20 21  2  0  0  0  0
 21 22  1  0  0  0  0
 21 27  1  0  0  0  0
 22 23  2  0  0  0  0
 22 25  1  0  0  0  0
 23 24  1  0  0  0  0
 25 26  2  0  0  0  0
 26 27  1  0  0  0  0
M  END
>  <CHROM.1>
146.50444144,-69.22020201,76.45744459,141.50758539,174.94702017,68.56966151
-102.03622522,47.21022946,55.75255672,31.09090717,0.65797075,1.45421411,2.73429898

>  <Name>
ligand

>  <RI>
0

>  <Rbt.Current_Directory>
/home/itssahil/PROJECTS/Mol_Feturizer/New_Systems/rnas/3IQN

>  <Rbt.Executable>
rbdock ($Id: //depot/dev/client3/rdock/2013.1/src/exe/rbdock.cxx#4 $)

>  <Rbt.Library>
libRbt.so (2013.1, Build901 2013/11/27)

>  <Rbt.Parameter_File>
/export/apps/rDock/src/rDock_2013.1_src/data/scripts/dock_solv.prm

>  <Rbt.Receptor>
prm/pocket_docking_4.prm

>  <SCORE>
-14.4779

>  <SCORE.INTER>
-13.3547

>  <SCORE.INTER.CONST>
1

>  <SCORE.INTER.POLAR>
0

>  <SCORE.INTER.ROT>
7

>  <SCORE.INTER.SOLV>
9.5677

>  <SCORE.INTER.VDW>
-20.359

>  <SCORE.INTER.norm>
-0.494618

>  <SCORE.INTRA>
-1.12319

>  <SCORE.INTRA.DIHEDRAL>
-3.04631

>  <SCORE.INTRA.DIHEDRAL.0>
10.0365

>  <SCORE.INTRA.POLAR>
0

>  <SCORE.INTRA.POLAR.0>
0

>  <SCORE.INTRA.REPUL>
0.0101367

>  <SCORE.INTRA.REPUL.0>
0

>  <SCORE.INTRA.SOLV>
2.42525

>  <SCORE.INTRA.SOLV.lig_0>
-48.6728

>  <SCORE.INTRA.VDW>
-0.863344

>  <SCORE.INTRA.VDW.0>
-1.10662

>  <SCORE.INTRA.norm>
-0.0415997

>  <SCORE.RESTR>
0

>  <SCORE.RESTR.CAVITY>
0

>  <SCORE.RESTR.norm>
0

>  <SCORE.SYSTEM>
0

>  <SCORE.SYSTEM.CONST>
0

>  <SCORE.SYSTEM.DIHEDRAL>
0

>  <SCORE.SYSTEM.SOLV>
0

>  <SCORE.SYSTEM.norm>
0

>  <SCORE.heavy>
27

>  <SCORE.norm>
-0.536218

>  <RMSD>
6.838

$$$$
ligand
 OpenBabel11021811483D
libRbt.so/2013.1/901 2013/11/27
 27 29  0  0  0  0  0  0  0  0999 V2000
   47.7830   56.5488   31.7132 N   0  0  0  0  0  0  0  0  0  0  0  0
   47.7283   56.6266   33.1789 C   0  0  2  0  0  0  0  0  0  0  0  0
   48.5133   55.4817   33.7449 C   0  0  0  0  0  0  0  0  0  0  0  0
   48.5371   54.4108   33.1593 O   0  0  0  0  0  0  0  0  0  0  0  0
   46.2735   56.5378   33.6638 C   0  0  0  0  0  0  0  0  0  0  0  0
   45.6469   55.2590   33.1158 C   0  0  0  0  0  0  0  0  0  0  0  0
   44.0986   54.7926   33.9542 S   0  0  2  0  0  0  0  0  0  0  0  0
   44.5997   53.5405   35.1755 C   0  0  0  0  0  0  0  0  0  0  0  0
   43.0720   53.7266   32.8792 C   0  0  0  0  0  0  0  0  0  0  0  0
   42.7720   54.6181   31.6992 C   0  0  1  0  0  0  0  0  0  0  0  0
   43.8894   54.4800   30.8850 O   0  0  0  0  0  0  0  0  0  0  0  0
   41.6437   54.3049   30.7155 C   0  0  1  0  0  0  0  0  0  0  0  0
   40.4295   54.8924   31.0860 O   0  0  0  0  0  0  0  0  0  0  0  0
   42.2979   54.9356   29.3945 C   0  0  1  0  0  0  0  0  0  0  0  0
   42.6743   56.3152   29.5162 O   0  0  0  0  0  0  0  0  0  0  0  0
   43.4378   53.9594   29.5731 C   0  0  1  0  0  0  0  0  0  0  0  0
   49.1390   55.6308   34.7827 O   0  0  0  0  0  0  0  0  0  0  0  0
   46.8688   56.7051   27.1323 N   0  0  0  0  0  0  0  0  0  0  0  0
   45.6732   57.0299   27.6267 C   0  0  0  0  0  0  0  0  0  0  0  0
   44.9274   56.1524   28.2969 N   0  0  0  0  0  0  0  0  0  0  0  0
   45.2933   54.8673   28.3942 C   0  0  0  0  0  0  0  0  0  0  0  0
   46.5396   54.4633   27.8178 C   0  0  0  0  0  0  0  0  0  0  0  0
   47.3272   55.4607   27.1797 C   0  0  0  0  0  0  0  0  0  0  0  0
   48.5375   55.1613   26.6200 N   0  0  0  0  0  0  0  0  0  0  0  0
   46.6709   53.1417   28.0440 N   0  0  0  0  0  0  0  0  0  0  0  0
   45.6186   52.7036   28.6993 C   0  0  0  0  0  0  0  0  0  0  0  0
   44.7329   53.7194   28.9632 N   0  0  0  0  0  0  0  0  0  0  0  0
  2  1  1  6  0  0  0
  2  3  1  0  0  0  0
  2  5  1  0  0  0  0
  3  4  1  0  0  0  0
  3 17  1  0  0  0  0
  5  6  1  0  0  0  0
  7  6  1  6  0  0  0
  7  8  1  0  0  0  0
  7  9  1  0  0  0  0
 10  9  1  1  0  0  0
 10 11  1  0  0  0  0
 10 12  1  0  0  0  0
 11 16  1  0  0  0  0
 12 13  1  1  0  0  0
 12 14  1  0  0  0  0
 14 15  1  1  0  0  0
 14 16  1  0  0  0  0
 16 27  1  6  0  0  0
 18 19  2  0  0  0  0
 18 23  1  0  0  0  0
 19 20  1  0  0  0  0
 20 21  2  0  0  0  0
 21 22  1  0  0  0  0
 21 27  1  0  0  0  0
 22 23  2  0  0  0  0
 22 25  1  0  0  0  0
 23 24  1  0  0  0  0
 25 26  2  0  0  0  0
 26 27  1  0  0  0  0
M  END
>  <CHROM.1>
-33.68272200,55.69766119,164.47921090,-97.93569507,-62.31259105,83.72432755
-82.88428798,45.27670932,55.00838551,30.87737876,-1.50041755,-0.16689516
-1.54837312

>  <Name>
ligand

>  <RI>
0

>  <Rbt.Current_Directory>
/home/itssahil/PROJECTS/Mol_Feturizer/New_Systems/rnas/3IQN

>  <Rbt.Executable>
rbdock ($Id: //depot/dev/client3/rdock/2013.1/src/exe/rbdock.cxx#4 $)

>  <Rbt.Library>
libRbt.so (2013.1, Build901 2013/11/27)

>  <Rbt.Parameter_File>
/export/apps/rDock/src/rDock_2013.1_src/data/scripts/dock_solv.prm

>  <Rbt.Receptor>
prm/pocket_docking_7.prm

>  <SCORE>
-11.4397

>  <SCORE.INTER>
-9.57643

>  <SCORE.INTER.CONST>
1

>  <SCORE.INTER.POLAR>
0

>  <SCORE.INTER.ROT>
7

>  <SCORE.INTER.SOLV>
7.13511

>  <SCORE.INTER.VDW>
-17.0293

>  <SCORE.INTER.norm>
-0.354683

>  <SCORE.INTRA>
-1.86327

>  <SCORE.INTRA.DIHEDRAL>
-1.89421

>  <SCORE.INTRA.DIHEDRAL.0>
10.0365

>  <SCORE.INTRA.POLAR>
0

>  <SCORE.INTRA.POLAR.0>
0

>  <SCORE.INTRA.REPUL>
0

>  <SCORE.INTRA.REPUL.0>
0

>  <SCORE.INTRA.SOLV>
-0.0720479

>  <SCORE.INTRA.SOLV.lig_0>
-48.6728

>  <SCORE.INTRA.VDW>
-0.880135

>  <SCORE.INTRA.VDW.0>
-1.10662

>  <SCORE.INTRA.norm>
-0.0690099

>  <SCORE.RESTR>
0

>  <SCORE.RESTR.CAVITY>
0

>  <SCORE.RESTR.norm>
0

>  <SCORE.SYSTEM>
0

>  <SCORE.SYSTEM.CONST>
0

>  <SCORE.SYSTEM.DIHEDRAL>
0

>  <SCORE.SYSTEM.SOLV>
0

>  <SCORE.SYSTEM.norm>
0

>  <SCORE.heavy>
27

>  <SCORE.norm>
-0.423693

>  <RMSD>
6.893

$$$$
ligand
 OpenBabel11021811483D
libRbt.so/2013.1/901 2013/11/27
 27 29  0  0  0  0  0  0  0  0999 V2000
   48.1673   57.1735   33.9551 N   0  0  0  0  0  0  0  0  0  0  0  0
   47.5926   56.5609   32.7502 C   0  0  2  0  0  0  0  0  0  0  0  0
   48.2891   57.1288   31.5503 C   0  0  0  0  0  0  0  0  0  0  0  0
   48.6095   56.3957   30.6282 O   0  0  0  0  0  0  0  0  0  0  0  0
   46.0900   56.8670   32.6612 C   0  0  0  0  0  0  0  0  0  0  0  0
   45.3666   56.1222   33.7793 C   0  0  0  0  0  0  0  0  0  0  0  0
   45.5670   54.3139   33.6946 S   0  0  2  0  0  0  0  0  0  0  0  0
   47.0055   53.9637   34.7521 C   0  0  0  0  0  0  0  0  0  0  0  0
   46.2840   53.8132   32.0879 C   0  0  0  0  0  0  0  0  0  0  0  0
   45.2044   54.1839   31.1009 C   0  0  1  0  0  0  0  0  0  0  0  0
   45.8615   54.1933   29.8767 O   0  0  0  0  0  0  0  0  0  0  0  0
   44.0277   53.2537   30.8023 C   0  0  1  0  0  0  0  0  0  0  0  0
   42.9298   53.4918   31.6358 O   0  0  0  0  0  0  0  0  0  0  0  0
   43.7851   53.6611   29.2707 C   0  0  1  0  0  0  0  0  0  0  0  0
   43.5621   55.0622   29.0548 O   0  0  0  0  0  0  0  0  0  0  0  0
   45.1990   53.2041   28.9944 C   0  0  1  0  0  0  0  0  0  0  0  0
   48.5191   58.3266   31.4940 O   0  0  0  0  0  0  0  0  0  0  0  0
   49.7273   51.2787   27.9669 N   0  0  0  0  0  0  0  0  0  0  0  0
   48.9721   51.2107   29.0644 C   0  0  0  0  0  0  0  0  0  0  0  0
   47.7576   51.7562   29.1169 N   0  0  0  0  0  0  0  0  0  0  0  0
   47.2933   52.5063   28.1086 C   0  0  0  0  0  0  0  0  0  0  0  0
   48.1029   52.6596   26.9383 C   0  0  0  0  0  0  0  0  0  0  0  0
   49.3584   51.9923   26.9109 C   0  0  0  0  0  0  0  0  0  0  0  0
   50.1833   52.0729   25.8242 N   0  0  0  0  0  0  0  0  0  0  0  0
   47.4228   53.4519   26.0869 N   0  0  0  0  0  0  0  0  0  0  0  0
   46.2779   53.7988   26.6324 C   0  0  0  0  0  0  0  0  0  0  0  0
   46.1242   53.2377   27.8764 N   0  0  0  0  0  0  0  0  0  0  0  0
  2  1  1  1  0  0  0
  2  3  1  0  0  0  0
  2  5  1  0  0  0  0
  3  4  1  0  0  0  0
  3 17  1  0  0  0  0
  5  6  1  0  0  0  0
  7  6  1  6  0  0  0
  7  8  1  0  0  0  0
  7  9  1  0  0  0  0
 10  9  1  1  0  0  0
 10 11  1  0  0  0  0
 10 12  1  0  0  0  0
 11 16  1  0  0  0  0
 12 13  1  1  0  0  0
 12 14  1  0  0  0  0
 14 15  1  1  0  0  0
 14 16  1  0  0  0  0
 16 27  1  6  0  0  0
 18 19  2  0  0  0  0
 18 23  1  0  0  0  0
 19 20  1  0  0  0  0
 20 21  2  0  0  0  0
 21 22  1  0  0  0  0
 21 27  1  0  0  0  0
 22 23  2  0  0  0  0
 22 25  1  0  0  0  0
 23 24  1  0  0  0  0
 25 26  2  0  0  0  0
 26 27  1  0  0  0  0
M  END
>  <CHROM.1>
137.83754635,-68.54363270,-60.15024375,92.90750146,-65.81266625,162.74753486
78.20311323,46.69125326,54.20673765,30.33916222,-1.84835835,-0.28356229,-2.16707614

>  <Name>
ligand

>  <RI>
0

>  <Rbt.Current_Directory>
/home/itssahil/PROJECTS/Mol_Feturizer/New_Systems/rnas/3IQN

>  <Rbt.Executable>
rbdock ($Id: //depot/dev/client3/rdock/2013.1/src/exe/rbdock.cxx#4 $)

>  <Rbt.Library>
libRbt.so (2013.1, Build901 2013/11/27)

>  <Rbt.Parameter_File>
/export/apps/rDock/src/rDock_2013.1_src/data/scripts/dock_solv.prm

>  <Rbt.Receptor>
prm/pocket_docking_6.prm

>  <SCORE>
-9.01162

>  <SCORE.INTER>
-6.73596

>  <SCORE.INTER.CONST>
1

>  <SCORE.INTER.POLAR>
0

>  <SCORE.INTER.ROT>
7

>  <SCORE.INTER.SOLV>
9.26629

>  <SCORE.INTER.VDW>
-15.8461

>  <SCORE.INTER.norm>
-0.24948

>  <SCORE.INTRA>
-2.27566

>  <SCORE.INTRA.DIHEDRAL>
-2.5271

>  <SCORE.INTRA.DIHEDRAL.0>
10.0365

>  <SCORE.INTRA.POLAR>
0

>  <SCORE.INTRA.POLAR.0>
0

>  <SCORE.INTRA.REPUL>
0

>  <SCORE.INTRA.REPUL.0>
0

>  <SCORE.INTRA.SOLV>
1.60428

>  <SCORE.INTRA.SOLV.lig_0>
-48.6728

>  <SCORE.INTRA.VDW>
-1.81425

>  <SCORE.INTRA.VDW.0>
-1.10662

>  <SCORE.INTRA.norm>
-0.0842839

>  <SCORE.RESTR>
0

>  <SCORE.RESTR.CAVITY>
0

>  <SCORE.RESTR.norm>
0

>  <SCORE.SYSTEM>
0

>  <SCORE.SYSTEM.CONST>
0

>  <SCORE.SYSTEM.DIHEDRAL>
0

>  <SCORE.SYSTEM.SOLV>
0

>  <SCORE.SYSTEM.norm>
0

>  <SCORE.heavy>
27

>  <SCORE.norm>
-0.333764

>  <RMSD>
6.916

$$$$
ligand
 OpenBabel11021811483D
libRbt.so/2013.1/901 2013/11/27
 27 29  0  0  0  0  0  0  0  0999 V2000
   47.3443   58.2026   31.8276 N   0  0  0  0  0  0  0  0  0  0  0  0
   47.6135   57.6347   33.1551 C   0  0  2  0  0  0  0  0  0  0  0  0
   49.0905   57.4144   33.2868 C   0  0  0  0  0  0  0  0  0  0  0  0
   49.7090   57.9547   34.1900 O   0  0  0  0  0  0  0  0  0  0  0  0
   46.8804   56.2952   33.3209 C   0  0  0  0  0  0  0  0  0  0  0  0
   45.4181   56.5704   33.6589 C   0  0  0  0  0  0  0  0  0  0  0  0
   44.4483   55.0601   33.9687 S   0  0  2  0  0  0  0  0  0  0  0  0
   45.5066   54.0519   35.0522 C   0  0  0  0  0  0  0  0  0  0  0  0
   44.4513   53.9718   32.4986 C   0  0  0  0  0  0  0  0  0  0  0  0
   43.7938   54.8236   31.4407 C   0  0  1  0  0  0  0  0  0  0  0  0
   44.7790   54.9708   30.4719 O   0  0  0  0  0  0  0  0  0  0  0  0
   42.6227   54.3102   30.6016 C   0  0  1  0  0  0  0  0  0  0  0  0
   41.3815   54.5981   31.1788 O   0  0  0  0  0  0  0  0  0  0  0  0
   42.9207   55.1252   29.2534 C   0  0  1  0  0  0  0  0  0  0  0  0
   43.0087   56.5474   29.4239 O   0  0  0  0  0  0  0  0  0  0  0  0
   44.2558   54.4189   29.2001 C   0  0  1  0  0  0  0  0  0  0  0  0
   49.6662   56.6816   32.4978 O   0  0  0  0  0  0  0  0  0  0  0  0
   48.5111   51.7760   28.7802 N   0  0  0  0  0  0  0  0  0  0  0  0
   47.4622   51.6296   29.5913 C   0  0  0  0  0  0  0  0  0  0  0  0
   46.3922   52.4190   29.5064 N   0  0  0  0  0  0  0  0  0  0  0  0
   46.3774   53.4759   28.6833 C   0  0  0  0  0  0  0  0  0  0  0  0
   47.5130   53.7072   27.8432 C   0  0  0  0  0  0  0  0  0  0  0  0
   48.5944   52.7874   27.9253 C   0  0  0  0  0  0  0  0  0  0  0  0
   49.7075   52.9266   27.1448 N   0  0  0  0  0  0  0  0  0  0  0  0
   47.2552   54.8177   27.1253 N   0  0  0  0  0  0  0  0  0  0  0  0
   46.0714   55.2861   27.4542 C   0  0  0  0  0  0  0  0  0  0  0  0
   45.4651   54.4976   28.4011 N   0  0  0  0  0  0  0  0  0  0  0  0
  2  1  1  6  0  0  0
  2  3  1  0  0  0  0
  2  5  1  0  0  0  0
  3  4  1  0  0  0  0
  3 17  1  0  0  0  0
  5  6  1  0  0  0  0
  7  6  1  6  0  0  0
  7  8  1  0  0  0  0
  7  9  1  0  0  0  0
 10  9  1  1  0  0  0
 10 11  1  0  0  0  0
 10 12  1  0  0  0  0
 11 16  1  0  0  0  0
 12 13  1  1  0  0  0
 12 14  1  0  0  0  0
 14 15  1  1  0  0  0
 14 16  1  0  0  0  0
 16 27  1  6  0  0  0
 18 19  2  0  0  0  0
 18 23  1  0  0  0  0
 19 20  1  0  0  0  0
 20 21  2  0  0  0  0
 21 22  1  0  0  0  0
 21 27  1  0  0  0  0
 22 23  2  0  0  0  0
 22 25  1  0  0  0  0
 23 24  1  0  0  0  0
 25 26  2  0  0  0  0
 26 27  1  0  0  0  0
M  END
>  <CHROM.1>
121.73410368,-79.75973947,-176.99356898,45.21265265,-61.37409073,118.01513289
77.68819047,46.04725368,54.94629834,30.88164848,-1.63736515,-0.11307089,-2.07805515

>  <Name>
ligand

>  <RI>
0

>  <Rbt.Current_Directory>
/home/itssahil/PROJECTS/Mol_Feturizer/New_Systems/rnas/3IQN

>  <Rbt.Executable>
rbdock ($Id: //depot/dev/client3/rdock/2013.1/src/exe/rbdock.cxx#4 $)

>  <Rbt.Library>
libRbt.so (2013.1, Build901 2013/11/27)

>  <Rbt.Parameter_File>
/export/apps/rDock/src/rDock_2013.1_src/data/scripts/dock_solv.prm

>  <Rbt.Receptor>
prm/pocket_docking_7.prm

>  <SCORE>
-13.5293

>  <SCORE.INTER>
-11.7664

>  <SCORE.INTER.CONST>
1

>  <SCORE.INTER.POLAR>
0

>  <SCORE.INTER.ROT>
7

>  <SCORE.INTER.SOLV>
6.96895

>  <SCORE.INTER.VDW>
-18.4339

>  <SCORE.INTER.norm>
-0.435793

>  <SCORE.INTRA>
-1.76283

>  <SCORE.INTRA.DIHEDRAL>
-0.364307

>  <SCORE.INTRA.DIHEDRAL.0>
10.0365

>  <SCORE.INTRA.POLAR>
0

>  <SCORE.INTRA.POLAR.0>
0

>  <SCORE.INTRA.REPUL>
0

>  <SCORE.INTRA.REPUL.0>
0

>  <SCORE.INTRA.SOLV>
-0.57132

>  <SCORE.INTRA.SOLV.lig_0>
-48.6728

>  <SCORE.INTRA.VDW>
-1.29502

>  <SCORE.INTRA.VDW.0>
-1.10662

>  <SCORE.INTRA.norm>
-0.06529

>  <SCORE.RESTR>
0

>  <SCORE.RESTR.CAVITY>
0

>  <SCORE.RESTR.norm>
0

>  <SCORE.SYSTEM>
0

>  <SCORE.SYSTEM.CONST>
0

>  <SCORE.SYSTEM.DIHEDRAL>
0

>  <SCORE.SYSTEM.SOLV>
0

>  <SCORE.SYSTEM.norm>
0

>  <SCORE.heavy>
27

>  <SCORE.norm>
-0.501083

>  <RMSD>
6.928

$$$$
ligand
 OpenBabel11021811483D
libRbt.so/2013.1/901 2013/11/27
 27 29  0  0  0  0  0  0  0  0999 V2000
   47.4559   52.0408   36.2802 N   0  0  0  0  0  0  0  0  0  0  0  0
   47.7161   53.1157   35.3137 C   0  0  2  0  0  0  0  0  0  0  0  0
   48.8693   53.9337   35.8120 C   0  0  0  0  0  0  0  0  0  0  0  0
   49.7193   54.3285   35.0298 O   0  0  0  0  0  0  0  0  0  0  0  0
   46.4781   54.0133   35.1682 C   0  0  0  0  0  0  0  0  0  0  0  0
   46.7043   54.9841   34.0129 C   0  0  0  0  0  0  0  0  0  0  0  0
   45.4396   56.2903   33.9046 S   0  0  2  0  0  0  0  0  0  0  0  0
   43.9130   55.4115   33.4489 C   0  0  0  0  0  0  0  0  0  0  0  0
   45.6508   57.2756   32.3780 C   0  0  0  0  0  0  0  0  0  0  0  0
   47.1501   57.3614   32.2306 C   0  0  1  0  0  0  0  0  0  0  0  0
   47.4617   56.3088   31.3787 O   0  0  0  0  0  0  0  0  0  0  0  0
   47.8268   58.5336   31.5186 C   0  0  1  0  0  0  0  0  0  0  0  0
   48.1537   59.5762   32.3921 O   0  0  0  0  0  0  0  0  0  0  0  0
   49.0973   57.7528   30.9296 C   0  0  1  0  0  0  0  0  0  0  0  0
   49.8826   57.0643   31.9138 O   0  0  0  0  0  0  0  0  0  0  0  0
   48.1248   56.8723   30.1792 C   0  0  1  0  0  0  0  0  0  0  0  0
   48.9448   54.2148   36.9978 O   0  0  0  0  0  0  0  0  0  0  0  0
   51.7127   54.3268   27.7468 N   0  0  0  0  0  0  0  0  0  0  0  0
   51.7605   55.4629   28.4443 C   0  0  0  0  0  0  0  0  0  0  0  0
   50.6883   55.9518   29.0662 N   0  0  0  0  0  0  0  0  0  0  0  0
   49.4834   55.3866   28.9125 C   0  0  0  0  0  0  0  0  0  0  0  0
   49.3777   54.2023   28.1156 C   0  0  0  0  0  0  0  0  0  0  0  0
   50.5700   53.6856   27.5379 C   0  0  0  0  0  0  0  0  0  0  0  0
   50.5581   52.5494   26.7785 N   0  0  0  0  0  0  0  0  0  0  0  0
   48.0800   53.8399   28.1144 N   0  0  0  0  0  0  0  0  0  0  0  0
   47.3863   54.6962   28.8317 C   0  0  0  0  0  0  0  0  0  0  0  0
   48.1920   55.6703   29.3682 N   0  0  0  0  0  0  0  0  0  0  0  0
  2  1  1  1  0  0  0
  2  3  1  0  0  0  0
  2  5  1  0  0  0  0
  3  4  1  0  0  0  0
  3 17  1  0  0  0  0
  5  6  1  0  0  0  0
  7  6  1  6  0  0  0
  7  8  1  0  0  0  0
  7  9  1  0  0  0  0
 10  9  1  6  0  0  0
 10 11  1  0  0  0  0
 10 12  1  0  0  0  0
 11 16  1  0  0  0  0
 12 13  1  1  0  0  0
 12 14  1  0  0  0  0
 14 15  1  1  0  0  0
 14 16  1  0  0  0  0
 16 27  1  1  0  0  0
 18 19  2  0  0  0  0
 18 23  1  0  0  0  0
 19 20  1  0  0  0  0
 20 21  2  0  0  0  0
 21 22  1  0  0  0  0
 21 27  1  0  0  0  0
 22 23  2  0  0  0  0
 22 25  1  0  0  0  0
 23 24  1  0  0  0  0
 25 26  2  0  0  0  0
 26 27  1  0  0  0  0
M  END
>  <CHROM.1>
139.34795604,-171.56517671,-170.26988736,-67.34139150,-37.30173841,94.56146645
-126.30747878,48.21677987,55.43897506,31.76690083,-2.31359429,0.90819742
-0.95794043

>  <Name>
ligand

>  <RI>
0

>  <Rbt.Current_Directory>
/home/itssahil/PROJECTS/Mol_Feturizer/New_Systems/rnas/3IQN

>  <Rbt.Executable>
rbdock ($Id: //depot/dev/client3/rdock/2013.1/src/exe/rbdock.cxx#4 $)

>  <Rbt.Library>
libRbt.so (2013.1, Build901 2013/11/27)

>  <Rbt.Parameter_File>
/export/apps/rDock/src/rDock_2013.1_src/data/scripts/dock_solv.prm

>  <Rbt.Receptor>
prm/pocket_docking_4.prm

>  <SCORE>
-14.2107

>  <SCORE.INTER>
-12.0983

>  <SCORE.INTER.CONST>
1

>  <SCORE.INTER.POLAR>
0

>  <SCORE.INTER.ROT>
7

>  <SCORE.INTER.SOLV>
12.2146

>  <SCORE.INTER.VDW>
-20.4037

>  <SCORE.INTER.norm>
-0.448085

>  <SCORE.INTRA>
-2.11918

>  <SCORE.INTRA.DIHEDRAL>
-1.18037

>  <SCORE.INTRA.DIHEDRAL.0>
10.0365

>  <SCORE.INTRA.POLAR>
0

>  <SCORE.INTRA.POLAR.0>
0

>  <SCORE.INTRA.REPUL>
0

>  <SCORE.INTRA.REPUL.0>
0

>  <SCORE.INTRA.SOLV>
-0.970509

>  <SCORE.INTRA.SOLV.lig_0>
-48.6728

>  <SCORE.INTRA.VDW>
-1.04374

>  <SCORE.INTRA.VDW.0>
-1.10662

>  <SCORE.INTRA.norm>
-0.0784882

>  <SCORE.RESTR>
0.00675791

>  <SCORE.RESTR.CAVITY>
0.00675791

>  <SCORE.RESTR.norm>
0.000250293

>  <SCORE.SYSTEM>
0

>  <SCORE.SYSTEM.CONST>
0

>  <SCORE.SYSTEM.DIHEDRAL>
0

>  <SCORE.SYSTEM.SOLV>
0

>  <SCORE.SYSTEM.norm>
0

>  <SCORE.heavy>
27

>  <SCORE.norm>
-0.526323

>  <RMSD>
6.942

$$$$
ligand
 OpenBabel11021811483D
libRbt.so/2013.1/901 2013/11/27
 27 29  0  0  0  0  0  0  0  0999 V2000
   44.6168   55.2610   31.4484 N   0  0  0  0  0  0  0  0  0  0  0  0
   46.0080   55.4175   31.8925 C   0  0  2  0  0  0  0  0  0  0  0  0
   46.5301   54.0730   32.3014 C   0  0  0  0  0  0  0  0  0  0  0  0
   45.7584   53.1387   32.4480 O   0  0  0  0  0  0  0  0  0  0  0  0
   46.0814   56.3793   33.0879 C   0  0  0  0  0  0  0  0  0  0  0  0
   45.6443   57.7684   32.6324 C   0  0  0  0  0  0  0  0  0  0  0  0
   46.9766   58.7249   31.8402 S   0  0  2  0  0  0  0  0  0  0  0  0
   46.2131   60.3273   31.4406 C   0  0  0  0  0  0  0  0  0  0  0  0
   47.2757   58.1348   30.1348 C   0  0  0  0  0  0  0  0  0  0  0  0
   48.1657   56.9335   30.3394 C   0  0  1  0  0  0  0  0  0  0  0  0
   48.2892   56.3899   29.0666 O   0  0  0  0  0  0  0  0  0  0  0  0
   49.6325   57.0742   30.7489 C   0  0  1  0  0  0  0  0  0  0  0  0
   49.8061   57.0639   32.1369 O   0  0  0  0  0  0  0  0  0  0  0  0
   50.2117   55.7751   30.0089 C   0  0  1  0  0  0  0  0  0  0  0  0
   49.5637   54.5460   30.3680 O   0  0  0  0  0  0  0  0  0  0  0  0
   49.7277   56.3801   28.7112 C   0  0  1  0  0  0  0  0  0  0  0  0
   47.7289   53.9149   32.4710 O   0  0  0  0  0  0  0  0  0  0  0  0
   52.3001   53.3821   25.6025 N   0  0  0  0  0  0  0  0  0  0  0  0
   52.5177   53.7244   26.8733 C   0  0  0  0  0  0  0  0  0  0  0  0
   51.6728   54.5050   27.5458 N   0  0  0  0  0  0  0  0  0  0  0  0
   50.6305   55.0827   26.9337 C   0  0  0  0  0  0  0  0  0  0  0  0
   50.4006   54.7938   25.5508 C   0  0  0  0  0  0  0  0  0  0  0  0
   51.2938   53.8947   24.9059 C   0  0  0  0  0  0  0  0  0  0  0  0
   51.1337   53.5527   23.5925 N   0  0  0  0  0  0  0  0  0  0  0  0
   49.3111   55.4921   25.1759 N   0  0  0  0  0  0  0  0  0  0  0  0
   48.8604   56.1825   26.2001 C   0  0  0  0  0  0  0  0  0  0  0  0
   49.6187   55.9656   27.3244 N   0  0  0  0  0  0  0  0  0  0  0  0
  2  1  1  1  0  0  0
  2  3  1  0  0  0  0
  2  5  1  0  0  0  0
  3  4  1  0  0  0  0
  3 17  1  0  0  0  0
  5  6  1  0  0  0  0
  7  6  1  6  0  0  0
  7  8  1  0  0  0  0
  7  9  1  0  0  0  0
 10  9  1  6  0  0  0
 10 11  1  0  0  0  0
 10 12  1  0  0  0  0
 11 16  1  0  0  0  0
 12 13  1  1  0  0  0
 12 14  1  0  0  0  0
 14 15  1  1  0  0  0
 14 16  1  0  0  0  0
 16 27  1  6  0  0  0
 18 19  2  0  0  0  0
 18 23  1  0  0  0  0
 19 20  1  0  0  0  0
 20 21  2  0  0  0  0
 21 22  1  0  0  0  0
 21 27  1  0  0  0  0
 22 23  2  0  0  0  0
 22 25  1  0  0  0  0
 23 24  1  0  0  0  0
 25 26  2  0  0  0  0
 26 27  1  0  0  0  0
M  END
>  <CHROM.1>
-12.58668299,-64.84529192,-83.12404767,-178.55683352,-82.02233027,173.99572919
-141.57994563,48.59804214,55.85912001,29.51659194,2.97721370,0.96907064,-0.17517624

>  <Name>
ligand

>  <RI>
0

>  <Rbt.Current_Directory>
/home/itssahil/PROJECTS/Mol_Feturizer/New_Systems/rnas/3IQN

>  <Rbt.Executable>
rbdock ($Id: //depot/dev/client3/rdock/2013.1/src/exe/rbdock.cxx#4 $)

>  <Rbt.Library>
libRbt.so (2013.1, Build901 2013/11/27)

>  <Rbt.Parameter_File>
/export/apps/rDock/src/rDock_2013.1_src/data/scripts/dock_solv.prm

>  <Rbt.Receptor>
prm/pocket_docking_7.prm

>  <SCORE>
-17.4414

>  <SCORE.INTER>
-13.1815

>  <SCORE.INTER.CONST>
1

>  <SCORE.INTER.POLAR>
0

>  <SCORE.INTER.ROT>
7

>  <SCORE.INTER.SOLV>
5.8939

>  <SCORE.INTER.VDW>
-19.019

>  <SCORE.INTER.norm>
-0.488204

>  <SCORE.INTRA>
-4.25986

>  <SCORE.INTRA.DIHEDRAL>
-4.01739

>  <SCORE.INTRA.DIHEDRAL.0>
10.0365

>  <SCORE.INTRA.POLAR>
0

>  <SCORE.INTRA.POLAR.0>
0

>  <SCORE.INTRA.REPUL>
0

>  <SCORE.INTRA.REPUL.0>
0

>  <SCORE.INTRA.SOLV>
1.39982

>  <SCORE.INTRA.SOLV.lig_0>
-48.6728

>  <SCORE.INTRA.VDW>
-2.95107

>  <SCORE.INTRA.VDW.0>
-1.10662

>  <SCORE.INTRA.norm>
-0.157773

>  <SCORE.RESTR>
0

>  <SCORE.RESTR.CAVITY>
0

>  <SCORE.RESTR.norm>
0

>  <SCORE.SYSTEM>
0

>  <SCORE.SYSTEM.CONST>
0

>  <SCORE.SYSTEM.DIHEDRAL>
0

>  <SCORE.SYSTEM.SOLV>
0

>  <SCORE.SYSTEM.norm>
0

>  <SCORE.heavy>
27

>  <SCORE.norm>
-0.645976

>  <RMSD>
6.945

$$$$
ligand
 OpenBabel11021811483D
libRbt.so/2013.1/901 2013/11/27
 27 29  0  0  0  0  0  0  0  0999 V2000
   46.8798   57.4849   32.0435 N   0  0  0  0  0  0  0  0  0  0  0  0
   47.5011   58.7128   32.5567 C   0  0  2  0  0  0  0  0  0  0  0  0
   47.2299   59.8234   31.5869 C   0  0  0  0  0  0  0  0  0  0  0  0
   46.8278   60.9021   31.9929 O   0  0  0  0  0  0  0  0  0  0  0  0
   49.0181   58.5219   32.7035 C   0  0  0  0  0  0  0  0  0  0  0  0
   49.2867   57.5757   33.8701 C   0  0  0  0  0  0  0  0  0  0  0  0
   48.7971   55.8537   33.5352 S   0  0  2  0  0  0  0  0  0  0  0  0
   49.3218   54.9336   35.0145 C   0  0  0  0  0  0  0  0  0  0  0  0
   49.9258   55.0806   32.3210 C   0  0  0  0  0  0  0  0  0  0  0  0
   49.0863   55.0112   31.0691 C   0  0  1  0  0  0  0  0  0  0  0  0
   50.0007   54.6935   30.0722 O   0  0  0  0  0  0  0  0  0  0  0  0
   48.0293   53.9251   30.8634 C   0  0  1  0  0  0  0  0  0  0  0  0
   46.7671   54.3091   31.3284 O   0  0  0  0  0  0  0  0  0  0  0  0
   48.1264   53.7977   29.2681 C   0  0  1  0  0  0  0  0  0  0  0  0
   47.9236   55.0285   28.5585 O   0  0  0  0  0  0  0  0  0  0  0  0
   49.5768   53.4155   29.4533 C   0  0  1  0  0  0  0  0  0  0  0  0
   47.4277   59.6483   30.3948 O   0  0  0  0  0  0  0  0  0  0  0  0
   50.5422   50.7399   25.3087 N   0  0  0  0  0  0  0  0  0  0  0  0
   49.4339   50.8548   26.0421 C   0  0  0  0  0  0  0  0  0  0  0  0
   49.3677   51.6712   27.0929 N   0  0  0  0  0  0  0  0  0  0  0  0
   50.4544   52.3191   27.5336 C   0  0  0  0  0  0  0  0  0  0  0  0
   51.6818   52.1692   26.8128 C   0  0  0  0  0  0  0  0  0  0  0  0
   51.6723   51.3427   25.6555 C   0  0  0  0  0  0  0  0  0  0  0  0
   52.7975   51.1614   24.9015 N   0  0  0  0  0  0  0  0  0  0  0  0
   52.6098   52.9072   27.4526 N   0  0  0  0  0  0  0  0  0  0  0  0
   52.0625   53.4873   28.4980 C   0  0  0  0  0  0  0  0  0  0  0  0
   50.7279   53.1804   28.6009 N   0  0  0  0  0  0  0  0  0  0  0  0
  2  1  1  6  0  0  0
  2  3  1  0  0  0  0
  2  5  1  0  0  0  0
  3  4  1  0  0  0  0
  3 17  1  0  0  0  0
  5  6  1  0  0  0  0
  7  6  1  1  0  0  0
  7  8  1  0  0  0  0
  7  9  1  0  0  0  0
 10  9  1  1  0  0  0
 10 11  1  0  0  0  0
 10 12  1  0  0  0  0
 11 16  1  0  0  0  0
 12 13  1  6  0  0  0
 12 14  1  0  0  0  0
 14 15  1  6  0  0  0
 14 16  1  0  0  0  0
 16 27  1  6  0  0  0
 18 19  2  0  0  0  0
 18 23  1  0  0  0  0
 19 20  1  0  0  0  0
 20 21  2  0  0  0  0
 21 22  1  0  0  0  0
 21 27  1  0  0  0  0
 22 23  2  0  0  0  0
 22 25  1  0  0  0  0
 23 24  1  0  0  0  0
 25 26  2  0  0  0  0
 26 27  1  0  0  0  0
M  END
>  <CHROM.1>
132.71801444,-70.96344783,70.15008632,176.24944726,-106.91989596,167.89864009
-158.30508865,49.28529045,54.90862754,30.05569248,2.37794302,-1.08609125
1.51569935

>  <Name>
ligand

>  <RI>
0

>  <Rbt.Current_Directory>
/home/itssahil/PROJECTS/Mol_Feturizer/New_Systems/rnas/3IQN

>  <Rbt.Executable>
rbdock ($Id: //depot/dev/client3/rdock/2013.1/src/exe/rbdock.cxx#4 $)

>  <Rbt.Library>
libRbt.so (2013.1, Build901 2013/11/27)

>  <Rbt.Parameter_File>
/export/apps/rDock/src/rDock_2013.1_src/data/scripts/dock_solv.prm

>  <Rbt.Receptor>
prm/pocket_docking_8.prm

>  <SCORE>
-19.7906

>  <SCORE.INTER>
-18.1687

>  <SCORE.INTER.CONST>
1

>  <SCORE.INTER.POLAR>
0

>  <SCORE.INTER.ROT>
7

>  <SCORE.INTER.SOLV>
8.79058

>  <SCORE.INTER.VDW>
-23.3093

>  <SCORE.INTER.norm>
-0.672914

>  <SCORE.INTRA>
-1.62189

>  <SCORE.INTRA.DIHEDRAL>
-2.14245

>  <SCORE.INTRA.DIHEDRAL.0>
10.0365

>  <SCORE.INTRA.POLAR>
0

>  <SCORE.INTRA.POLAR.0>
0

>  <SCORE.INTRA.REPUL>
0

>  <SCORE.INTRA.REPUL.0>
0

>  <SCORE.INTRA.SOLV>
3.30678

>  <SCORE.INTRA.SOLV.lig_0>
-48.6728

>  <SCORE.INTRA.VDW>
-2.20406

>  <SCORE.INTRA.VDW.0>
-1.10662

>  <SCORE.INTRA.norm>
-0.0600701

>  <SCORE.RESTR>
0

>  <SCORE.RESTR.CAVITY>
0

>  <SCORE.RESTR.norm>
0

>  <SCORE.SYSTEM>
0

>  <SCORE.SYSTEM.CONST>
0

>  <SCORE.SYSTEM.DIHEDRAL>
0

>  <SCORE.SYSTEM.SOLV>
0

>  <SCORE.SYSTEM.norm>
0

>  <SCORE.heavy>
27

>  <SCORE.norm>
-0.732984

>  <RMSD>
6.969

$$$$
ligand
 OpenBabel11021811483D
libRbt.so/2013.1/901 2013/11/27
 27 29  0  0  0  0  0  0  0  0999 V2000
   45.6169   53.7027   34.7874 N   0  0  0  0  0  0  0  0  0  0  0  0
   45.5239   54.4756   33.5420 C   0  0  2  0  0  0  0  0  0  0  0  0
   44.6570   55.6733   33.7899 C   0  0  0  0  0  0  0  0  0  0  0  0
   43.4944   55.5237   34.1310 O   0  0  0  0  0  0  0  0  0  0  0  0
   44.9049   53.6189   32.4274 C   0  0  0  0  0  0  0  0  0  0  0  0
   45.1440   54.3051   31.0857 C   0  0  0  0  0  0  0  0  0  0  0  0
   43.9871   55.6720   30.7535 S   0  0  2  0  0  0  0  0  0  0  0  0
   42.4805   54.8567   30.1406 C   0  0  0  0  0  0  0  0  0  0  0  0
   44.4536   56.5626   29.2254 C   0  0  0  0  0  0  0  0  0  0  0  0
   45.8225   57.1078   29.5513 C   0  0  1  0  0  0  0  0  0  0  0  0
   46.6733   56.3900   28.7197 O   0  0  0  0  0  0  0  0  0  0  0  0
   46.2204   58.5463   29.2177 C   0  0  1  0  0  0  0  0  0  0  0  0
   45.9470   59.4353   30.2626 O   0  0  0  0  0  0  0  0  0  0  0  0
   47.7841   58.3062   28.9571 C   0  0  1  0  0  0  0  0  0  0  0  0
   48.4820   57.6873   30.0478 O   0  0  0  0  0  0  0  0  0  0  0  0
   47.3862   57.3561   27.8511 C   0  0  1  0  0  0  0  0  0  0  0  0
   45.1232   56.7948   33.6645 O   0  0  0  0  0  0  0  0  0  0  0  0
   51.5358   54.5245   28.0268 N   0  0  0  0  0  0  0  0  0  0  0  0
   51.0273   55.3934   28.9019 C   0  0  0  0  0  0  0  0  0  0  0  0
   49.8682   56.0135   28.6844 N   0  0  0  0  0  0  0  0  0  0  0  0
   49.2245   55.8844   27.5166 C   0  0  0  0  0  0  0  0  0  0  0  0
   49.7734   55.0119   26.5235 C   0  0  0  0  0  0  0  0  0  0  0  0
   50.9741   54.3199   26.8422 C   0  0  0  0  0  0  0  0  0  0  0  0
   51.5533   53.4551   25.9565 N   0  0  0  0  0  0  0  0  0  0  0  0
   48.9531   55.0611   25.4558 N   0  0  0  0  0  0  0  0  0  0  0  0
   47.9600   55.8860   25.7050 C   0  0  0  0  0  0  0  0  0  0  0  0
   48.0553   56.4195   26.9668 N   0  0  0  0  0  0  0  0  0  0  0  0
  2  1  1  1  0  0  0
  2  3  1  0  0  0  0
  2  5  1  0  0  0  0
  3  4  1  0  0  0  0
  3 17  1  0  0  0  0
  5  6  1  0  0  0  0
  7  6  1  6  0  0  0
  7  8  1  0  0  0  0
  7  9  1  0  0  0  0
 10  9  1  6  0  0  0
 10 11  1  0  0  0  0
 10 12  1  0  0  0  0
 11 16  1  0  0  0  0
 12 13  1  1  0  0  0
 12 14  1  0  0  0  0
 14 15  1  1  0  0  0
 14 16  1  0  0  0  0
 16 27  1  1  0  0  0
 18 19  2  0  0  0  0
 18 23  1  0  0  0  0
 19 20  1  0  0  0  0
 20 21  2  0  0  0  0
 21 22  1  0  0  0  0
 21 27  1  0  0  0  0
 22 23  2  0  0  0  0
 22 25  1  0  0  0  0
 23 24  1  0  0  0  0
 25 26  2  0  0  0  0
 26 27  1  0  0  0  0
M  END
>  <CHROM.1>
-60.94469686,-165.74243967,-79.41445345,-81.24786678,-62.15256563,111.74624635
-81.13947255,46.89791437,55.87223693,29.72301871,-2.57680481,0.59557257,-0.86306366

>  <Name>
ligand

>  <RI>
0

>  <Rbt.Current_Directory>
/home/itssahil/PROJECTS/Mol_Feturizer/New_Systems/rnas/3IQN

>  <Rbt.Executable>
rbdock ($Id: //depot/dev/client3/rdock/2013.1/src/exe/rbdock.cxx#4 $)

>  <Rbt.Library>
libRbt.so (2013.1, Build901 2013/11/27)

>  <Rbt.Parameter_File>
/export/apps/rDock/src/rDock_2013.1_src/data/scripts/dock_solv.prm

>  <Rbt.Receptor>
prm/pocket_docking_5.prm

>  <SCORE>
-13.9052

>  <SCORE.INTER>
-11.6502

>  <SCORE.INTER.CONST>
1

>  <SCORE.INTER.POLAR>
0

>  <SCORE.INTER.ROT>
7

>  <SCORE.INTER.SOLV>
9.123

>  <SCORE.INTER.VDW>
-19.0745

>  <SCORE.INTER.norm>
-0.431489

>  <SCORE.INTRA>
-2.25497

>  <SCORE.INTRA.DIHEDRAL>
0.585772

>  <SCORE.INTRA.DIHEDRAL.0>
10.0365

>  <SCORE.INTRA.POLAR>
0

>  <SCORE.INTRA.POLAR.0>
0

>  <SCORE.INTRA.REPUL>
0

>  <SCORE.INTRA.REPUL.0>
0

>  <SCORE.INTRA.SOLV>
-0.763945

>  <SCORE.INTRA.SOLV.lig_0>
-48.6728

>  <SCORE.INTRA.VDW>
-2.16588

>  <SCORE.INTRA.VDW.0>
-1.10662

>  <SCORE.INTRA.norm>
-0.0835173

>  <SCORE.RESTR>
0

>  <SCORE.RESTR.CAVITY>
0

>  <SCORE.RESTR.norm>
0

>  <SCORE.SYSTEM>
0

>  <SCORE.SYSTEM.CONST>
0

>  <SCORE.SYSTEM.DIHEDRAL>
0

>  <SCORE.SYSTEM.SOLV>
0

>  <SCORE.SYSTEM.norm>
0

>  <SCORE.heavy>
27

>  <SCORE.norm>
-0.515006

>  <RMSD>
7.005

$$$$
ligand
 OpenBabel11021811483D
libRbt.so/2013.1/901 2013/11/27
 27 29  0  0  0  0  0  0  0  0999 V2000
   47.7387   57.3250   32.4315 N   0  0  0  0  0  0  0  0  0  0  0  0
   46.5001   56.8365   31.8114 C   0  0  2  0  0  0  0  0  0  0  0  0
   46.2067   57.6806   30.6077 C   0  0  0  0  0  0  0  0  0  0  0  0
   46.5687   58.8460   30.5779 O   0  0  0  0  0  0  0  0  0  0  0  0
   45.3314   56.9371   32.8031 C   0  0  0  0  0  0  0  0  0  0  0  0
   45.5957   55.9973   33.9757 C   0  0  0  0  0  0  0  0  0  0  0  0
   45.2370   54.2512   33.6012 S   0  0  2  0  0  0  0  0  0  0  0  0
   45.6625   53.3596   35.1291 C   0  0  0  0  0  0  0  0  0  0  0  0
   46.5212   53.5430   32.5080 C   0  0  0  0  0  0  0  0  0  0  0  0
   46.0261   53.8939   31.1263 C   0  0  1  0  0  0  0  0  0  0  0  0
   47.0471   53.4640   30.2876 O   0  0  0  0  0  0  0  0  0  0  0  0
   44.8137   53.2017   30.5018 C   0  0  1  0  0  0  0  0  0  0  0  0
   43.6147   53.8686   30.7745 O   0  0  0  0  0  0  0  0  0  0  0  0
   45.2651   53.2722   28.9649 C   0  0  1  0  0  0  0  0  0  0  0  0
   45.5601   54.5940   28.4904 O   0  0  0  0  0  0  0  0  0  0  0  0
   46.4807   52.4626   29.3537 C   0  0  1  0  0  0  0  0  0  0  0  0
   45.6198   57.1929   29.6545 O   0  0  0  0  0  0  0  0  0  0  0  0
   48.1028   51.8281   24.6384 N   0  0  0  0  0  0  0  0  0  0  0  0
   46.9176   52.2113   25.1158 C   0  0  0  0  0  0  0  0  0  0  0  0
   46.7034   52.3698   26.4213 N   0  0  0  0  0  0  0  0  0  0  0  0
   47.6362   52.0289   27.3205 C   0  0  0  0  0  0  0  0  0  0  0  0
   48.8999   51.5490   26.8498 C   0  0  0  0  0  0  0  0  0  0  0  0
   49.0956   51.4718   25.4434 C   0  0  0  0  0  0  0  0  0  0  0  0
   50.2790   51.0412   24.9124 N   0  0  0  0  0  0  0  0  0  0  0  0
   49.6488   51.2743   27.9356 N   0  0  0  0  0  0  0  0  0  0  0  0
   48.9566   51.5373   29.0221 C   0  0  0  0  0  0  0  0  0  0  0  0
   47.7085   52.0222   28.7171 N   0  0  0  0  0  0  0  0  0  0  0  0
  2  1  1  1  0  0  0
  2  3  1  0  0  0  0
  2  5  1  0  0  0  0
  3  4  1  0  0  0  0
  3 17  1  0  0  0  0
  5  6  1  0  0  0  0
  7  6  1  1  0  0  0
  7  8  1  0  0  0  0
  7  9  1  0  0  0  0
 10  9  1  1  0  0  0
 10 11  1  0  0  0  0
 10 12  1  0  0  0  0
 11 16  1  0  0  0  0
 12 13  1  6  0  0  0
 12 14  1  0  0  0  0
 14 15  1  1  0  0  0
 14 16  1  0  0  0  0
 16 27  1  6  0  0  0
 18 19  2  0  0  0  0
 18 23  1  0  0  0  0
 19 20  1  0  0  0  0
 20 21  2  0  0  0  0
 21 22  1  0  0  0  0
 21 27  1  0  0  0  0
 22 23  2  0  0  0  0
 22 25  1  0  0  0  0
 23 24  1  0  0  0  0
 25 26  2  0  0  0  0
 26 27  1  0  0  0  0
M  END
>  <CHROM.1>
-29.50218734,-64.76989817,-78.38107730,178.88205393,-86.80479121,175.07231515
-130.00459645,46.67808284,53.94876617,29.85938869,-3.00167941,-1.22651964
2.72678535

>  <Name>
ligand

>  <RI>
0

>  <Rbt.Current_Directory>
/home/itssahil/PROJECTS/Mol_Feturizer/New_Systems/rnas/3IQN

>  <Rbt.Executable>
rbdock ($Id: //depot/dev/client3/rdock/2013.1/src/exe/rbdock.cxx#4 $)

>  <Rbt.Library>
libRbt.so (2013.1, Build901 2013/11/27)

>  <Rbt.Parameter_File>
/export/apps/rDock/src/rDock_2013.1_src/data/scripts/dock_solv.prm

>  <Rbt.Receptor>
prm/pocket_docking_6.prm

>  <SCORE>
-15.1201

>  <SCORE.INTER>
-10.7157

>  <SCORE.INTER.CONST>
1

>  <SCORE.INTER.POLAR>
0

>  <SCORE.INTER.ROT>
7

>  <SCORE.INTER.SOLV>
10.6424

>  <SCORE.INTER.VDW>
-18.9579

>  <SCORE.INTER.norm>
-0.396876

>  <SCORE.INTRA>
-4.40445

>  <SCORE.INTRA.DIHEDRAL>
-4.24462

>  <SCORE.INTRA.DIHEDRAL.0>
10.0365

>  <SCORE.INTRA.POLAR>
0

>  <SCORE.INTRA.POLAR.0>
0

>  <SCORE.INTRA.REPUL>
0

>  <SCORE.INTRA.REPUL.0>
0

>  <SCORE.INTRA.SOLV>
1.51975

>  <SCORE.INTRA.SOLV.lig_0>
-48.6728

>  <SCORE.INTRA.VDW>
-3.04202

>  <SCORE.INTRA.VDW.0>
-1.10662

>  <SCORE.INTRA.norm>
-0.163128

>  <SCORE.RESTR>
0

>  <SCORE.RESTR.CAVITY>
0

>  <SCORE.RESTR.norm>
0

>  <SCORE.SYSTEM>
0

>  <SCORE.SYSTEM.CONST>
0

>  <SCORE.SYSTEM.DIHEDRAL>
0

>  <SCORE.SYSTEM.SOLV>
0

>  <SCORE.SYSTEM.norm>
0

>  <SCORE.heavy>
27

>  <SCORE.norm>
-0.560004

>  <RMSD>
7.022

$$$$
ligand
 OpenBabel11021811483D
libRbt.so/2013.1/901 2013/11/27
 27 29  0  0  0  0  0  0  0  0999 V2000
   47.3755   56.0461   32.7956 N   0  0  0  0  0  0  0  0  0  0  0  0
   48.0019   55.9057   34.1167 C   0  0  2  0  0  0  0  0  0  0  0  0
   49.3772   56.4991   34.0556 C   0  0  0  0  0  0  0  0  0  0  0  0
   49.5761   57.6221   34.4911 O   0  0  0  0  0  0  0  0  0  0  0  0
   48.1019   54.4229   34.5047 C   0  0  0  0  0  0  0  0  0  0  0  0
   46.7487   53.9581   35.0347 C   0  0  0  0  0  0  0  0  0  0  0  0
   45.3790   54.2302   33.8654 S   0  0  2  0  0  0  0  0  0  0  0  0
   44.0706   53.0952   34.4223 C   0  0  0  0  0  0  0  0  0  0  0  0
   45.7400   53.4547   32.2485 C   0  0  0  0  0  0  0  0  0  0  0  0
   45.0307   54.3579   31.2697 C   0  0  1  0  0  0  0  0  0  0  0  0
   45.6255   54.0594   30.0499 O   0  0  0  0  0  0  0  0  0  0  0  0
   43.5496   54.1802   30.9323 C   0  0  1  0  0  0  0  0  0  0  0  0
   42.7147   54.9294   31.7681 O   0  0  0  0  0  0  0  0  0  0  0  0
   43.5876   54.6963   29.4148 C   0  0  1  0  0  0  0  0  0  0  0  0
   44.1266   56.0158   29.2474 O   0  0  0  0  0  0  0  0  0  0  0  0
   44.5670   53.5810   29.1299 C   0  0  1  0  0  0  0  0  0  0  0  0
   50.2969   55.8490   33.5840 O   0  0  0  0  0  0  0  0  0  0  0  0
   47.5945   55.8317   25.8076 N   0  0  0  0  0  0  0  0  0  0  0  0
   46.8338   56.3318   26.7826 C   0  0  0  0  0  0  0  0  0  0  0  0
   46.1333   55.5470   27.6005 N   0  0  0  0  0  0  0  0  0  0  0  0
   46.0650   54.2245   27.3980 C   0  0  0  0  0  0  0  0  0  0  0  0
   46.8145   53.6560   26.3192 C   0  0  0  0  0  0  0  0  0  0  0  0
   47.6024   54.5350   25.5262 C   0  0  0  0  0  0  0  0  0  0  0  0
   48.3610   54.0701   24.4889 N   0  0  0  0  0  0  0  0  0  0  0  0
   46.5753   52.3301   26.3259 N   0  0  0  0  0  0  0  0  0  0  0  0
   45.7463   52.0403   27.3045 C   0  0  0  0  0  0  0  0  0  0  0  0
   45.4012   53.1615   28.0185 N   0  0  0  0  0  0  0  0  0  0  0  0
  2  1  1  6  0  0  0
  2  3  1  0  0  0  0
  2  5  1  0  0  0  0
  3  4  1  0  0  0  0
  3 17  1  0  0  0  0
  5  6  1  0  0  0  0
  7  6  1  1  0  0  0
  7  8  1  0  0  0  0
  7  9  1  0  0  0  0
 10  9  1  1  0  0  0
 10 11  1  0  0  0  0
 10 12  1  0  0  0  0
 11 16  1  0  0  0  0
 12 13  1  1  0  0  0
 12 14  1  0  0  0  0
 14 15  1  1  0  0  0
 14 16  1  0  0  0  0
 16 27  1  6  0  0  0
 18 19  2  0  0  0  0
 18 23  1  0  0  0  0
 19 20  1  0  0  0  0
 20 21  2  0  0  0  0
 21 22  1  0  0  0  0
 21 27  1  0  0  0  0
 22 23  2  0  0  0  0
 22 25  1  0  0  0  0
 23 24  1  0  0  0  0
 25 26  2  0  0  0  0
 26 27  1  0  0  0  0
M  END
>  <CHROM.1>
100.11009338,-80.31980697,56.05979164,159.96503276,-148.81155719,161.58397636
-65.88067707,46.28148359,54.62457890,30.52317140,-1.46838543,-0.39590664
-1.65788398

>  <Name>
ligand

>  <RI>
0

>  <Rbt.Current_Directory>
/home/itssahil/PROJECTS/Mol_Feturizer/New_Systems/rnas/3IQN

>  <Rbt.Executable>
rbdock ($Id: //depot/dev/client3/rdock/2013.1/src/exe/rbdock.cxx#4 $)

>  <Rbt.Library>
libRbt.so (2013.1, Build901 2013/11/27)

>  <Rbt.Parameter_File>
/export/apps/rDock/src/rDock_2013.1_src/data/scripts/dock_solv.prm

>  <Rbt.Receptor>
prm/pocket_docking_7.prm

>  <SCORE>
-9.74442

>  <SCORE.INTER>
-9.88352

>  <SCORE.INTER.CONST>
1

>  <SCORE.INTER.POLAR>
0

>  <SCORE.INTER.ROT>
7

>  <SCORE.INTER.SOLV>
6.792

>  <SCORE.INTER.VDW>
-17.1197

>  <SCORE.INTER.norm>
-0.366056

>  <SCORE.INTRA>
0.139102

>  <SCORE.INTRA.DIHEDRAL>
-0.788273

>  <SCORE.INTRA.DIHEDRAL.0>
10.0365

>  <SCORE.INTRA.POLAR>
0

>  <SCORE.INTRA.POLAR.0>
0

>  <SCORE.INTRA.REPUL>
0

>  <SCORE.INTRA.REPUL.0>
0

>  <SCORE.INTRA.SOLV>
3.42315

>  <SCORE.INTRA.SOLV.lig_0>
-48.6728

>  <SCORE.INTRA.VDW>
-1.17834

>  <SCORE.INTRA.VDW.0>
-1.10662

>  <SCORE.INTRA.norm>
0.00515193

>  <SCORE.RESTR>
0

>  <SCORE.RESTR.CAVITY>
0

>  <SCORE.RESTR.norm>
0

>  <SCORE.SYSTEM>
0

>  <SCORE.SYSTEM.CONST>
0

>  <SCORE.SYSTEM.DIHEDRAL>
0

>  <SCORE.SYSTEM.SOLV>
0

>  <SCORE.SYSTEM.norm>
0

>  <SCORE.heavy>
27

>  <SCORE.norm>
-0.360904

>  <RMSD>
7.035

$$$$
ligand
 OpenBabel11021811483D
libRbt.so/2013.1/901 2013/11/27
 27 29  0  0  0  0  0  0  0  0999 V2000
   49.6937   56.3414   32.2353 N   0  0  0  0  0  0  0  0  0  0  0  0
   49.1803   57.0577   33.4103 C   0  0  2  0  0  0  0  0  0  0  0  0
   48.6224   56.0528   34.3729 C   0  0  0  0  0  0  0  0  0  0  0  0
   47.5071   55.5906   34.1926 O   0  0  0  0  0  0  0  0  0  0  0  0
   48.0725   58.0377   32.9957 C   0  0  0  0  0  0  0  0  0  0  0  0
   48.6298   59.0008   31.9516 C   0  0  0  0  0  0  0  0  0  0  0  0
   47.3740   59.6066   30.7797 S   0  0  2  0  0  0  0  0  0  0  0  0
   46.3013   60.6859   31.7771 C   0  0  0  0  0  0  0  0  0  0  0  0
   46.1572   58.2963   30.3949 C   0  0  0  0  0  0  0  0  0  0  0  0
   46.9677   57.2973   29.6062 C   0  0  1  0  0  0  0  0  0  0  0  0
   46.2322   56.1223   29.7016 O   0  0  0  0  0  0  0  0  0  0  0  0
   47.1468   57.4166   28.0920 C   0  0  1  0  0  0  0  0  0  0  0  0
   48.2788   58.1602   27.7420 O   0  0  0  0  0  0  0  0  0  0  0  0
   47.2568   55.8559   27.7418 C   0  0  1  0  0  0  0  0  0  0  0  0
   48.2883   55.1566   28.4535 O   0  0  0  0  0  0  0  0  0  0  0  0
   45.8736   55.6945   28.3290 C   0  0  1  0  0  0  0  0  0  0  0  0
   49.2938   55.6893   35.3256 O   0  0  0  0  0  0  0  0  0  0  0  0
   41.0516   55.2008   29.6607 N   0  0  0  0  0  0  0  0  0  0  0  0
   41.7887   56.2851   29.4151 C   0  0  0  0  0  0  0  0  0  0  0  0
   43.0576   56.1975   29.0180 N   0  0  0  0  0  0  0  0  0  0  0  0
   43.6859   55.0153   28.9695 C   0  0  0  0  0  0  0  0  0  0  0  0
   42.9474   53.8322   29.2912 C   0  0  0  0  0  0  0  0  0  0  0  0
   41.5760   53.9821   29.6361 C   0  0  0  0  0  0  0  0  0  0  0  0
   40.7964   52.9014   29.9392 N   0  0  0  0  0  0  0  0  0  0  0  0
   43.7951   52.7916   29.1735 N   0  0  0  0  0  0  0  0  0  0  0  0
   44.9811   53.2321   28.8156 C   0  0  0  0  0  0  0  0  0  0  0  0
   44.9828   54.5961   28.6561 N   0  0  0  0  0  0  0  0  0  0  0  0
  2  1  1  6  0  0  0
  2  3  1  0  0  0  0
  2  5  1  0  0  0  0
  3  4  1  0  0  0  0
  3 17  1  0  0  0  0
  5  6  1  0  0  0  0
  7  6  1  1  0  0  0
  7  8  1  0  0  0  0
  7  9  1  0  0  0  0
 10  9  1  6  0  0  0
 10 11  1  0  0  0  0
 10 12  1  0  0  0  0
 11 16  1  0  0  0  0
 12 13  1  1  0  0  0
 12 14  1  0  0  0  0
 14 15  1  1  0  0  0
 14 16  1  0  0  0  0
 16 27  1  1  0  0  0
 18 19  2  0  0  0  0
 18 23  1  0  0  0  0
 19 20  1  0  0  0  0
 20 21  2  0  0  0  0
 21 22  1  0  0  0  0
 21 27  1  0  0  0  0
 22 23  2  0  0  0  0
 22 25  1  0  0  0  0
 23 24  1  0  0  0  0
 25 26  2  0  0  0  0
 26 27  1  0  0  0  0
M  END
>  <CHROM.1>
-80.08482845,-57.26801461,150.33977448,69.14790186,-68.40973153,160.10484892
81.65418513,46.07242066,56.36060894,30.42044916,0.13951529,0.68408752,2.12230237

>  <Name>
ligand

>  <RI>
0

>  <Rbt.Current_Directory>
/home/itssahil/PROJECTS/Mol_Feturizer/New_Systems/rnas/3IQN

>  <Rbt.Executable>
rbdock ($Id: //depot/dev/client3/rdock/2013.1/src/exe/rbdock.cxx#4 $)

>  <Rbt.Library>
libRbt.so (2013.1, Build901 2013/11/27)

>  <Rbt.Parameter_File>
/export/apps/rDock/src/rDock_2013.1_src/data/scripts/dock_solv.prm

>  <Rbt.Receptor>
prm/pocket_docking_8.prm

>  <SCORE>
-18.3997

>  <SCORE.INTER>
-16.4123

>  <SCORE.INTER.CONST>
1

>  <SCORE.INTER.POLAR>
0

>  <SCORE.INTER.ROT>
7

>  <SCORE.INTER.SOLV>
10.4095

>  <SCORE.INTER.VDW>
-22.6781

>  <SCORE.INTER.norm>
-0.607865

>  <SCORE.INTRA>
-1.98735

>  <SCORE.INTRA.DIHEDRAL>
-2.34949

>  <SCORE.INTRA.DIHEDRAL.0>
10.0365

>  <SCORE.INTRA.POLAR>
0

>  <SCORE.INTRA.POLAR.0>
0

>  <SCORE.INTRA.REPUL>
0.0187365

>  <SCORE.INTRA.REPUL.0>
0

>  <SCORE.INTRA.SOLV>
0.734312

>  <SCORE.INTRA.SOLV.lig_0>
-48.6728

>  <SCORE.INTRA.VDW>
-1.27345

>  <SCORE.INTRA.VDW.0>
-1.10662

>  <SCORE.INTRA.norm>
-0.0736057

>  <SCORE.RESTR>
0

>  <SCORE.RESTR.CAVITY>
0

>  <SCORE.RESTR.norm>
0

>  <SCORE.SYSTEM>
0

>  <SCORE.SYSTEM.CONST>
0

>  <SCORE.SYSTEM.DIHEDRAL>
0

>  <SCORE.SYSTEM.SOLV>
0

>  <SCORE.SYSTEM.norm>
0

>  <SCORE.heavy>
27

>  <SCORE.norm>
-0.68147

>  <RMSD>
7.046

$$$$
ligand
 OpenBabel11021811483D
libRbt.so/2013.1/901 2013/11/27
 27 29  0  0  0  0  0  0  0  0999 V2000
   46.6463   59.2321   31.2474 N   0  0  0  0  0  0  0  0  0  0  0  0
   47.3130   58.6890   32.4381 C   0  0  2  0  0  0  0  0  0  0  0  0
   48.7111   59.2277   32.4868 C   0  0  0  0  0  0  0  0  0  0  0  0
   49.3502   59.1703   33.5253 O   0  0  0  0  0  0  0  0  0  0  0  0
   47.3585   57.1551   32.3709 C   0  0  0  0  0  0  0  0  0  0  0  0
   47.8745   56.6170   33.7023 C   0  0  0  0  0  0  0  0  0  0  0  0
   48.1048   54.8103   33.7143 S   0  0  2  0  0  0  0  0  0  0  0  0
   49.0723   54.4832   35.2201 C   0  0  0  0  0  0  0  0  0  0  0  0
   49.3526   54.3051   32.4759 C   0  0  0  0  0  0  0  0  0  0  0  0
   48.5436   54.1738   31.2088 C   0  0  1  0  0  0  0  0  0  0  0  0
   49.5035   54.1076   30.2063 O   0  0  0  0  0  0  0  0  0  0  0  0
   47.7092   52.9280   30.9076 C   0  0  1  0  0  0  0  0  0  0  0  0
   46.3964   53.0339   31.3790 O   0  0  0  0  0  0  0  0  0  0  0  0
   47.8318   52.9403   29.3090 C   0  0  1  0  0  0  0  0  0  0  0  0
   47.4037   54.1611   28.6878 O   0  0  0  0  0  0  0  0  0  0  0  0
   49.3278   52.8227   29.4892 C   0  0  1  0  0  0  0  0  0  0  0  0
   49.2104   59.7081   31.4815 O   0  0  0  0  0  0  0  0  0  0  0  0
   50.7551   50.7514   25.1371 N   0  0  0  0  0  0  0  0  0  0  0  0
   49.6419   50.6040   25.8570 C   0  0  0  0  0  0  0  0  0  0  0  0
   49.4317   51.2954   26.9764 N   0  0  0  0  0  0  0  0  0  0  0  0
   50.3878   52.0780   27.4944 C   0  0  0  0  0  0  0  0  0  0  0  0
   51.6244   52.2106   26.7859 C   0  0  0  0  0  0  0  0  0  0  0  0
   51.7619   51.5061   25.5583 C   0  0  0  0  0  0  0  0  0  0  0  0
   52.9035   51.5933   24.8121 N   0  0  0  0  0  0  0  0  0  0  0  0
   52.4080   53.0356   27.5075 N   0  0  0  0  0  0  0  0  0  0  0  0
   51.7654   53.4125   28.5909 C   0  0  0  0  0  0  0  0  0  0  0  0
   50.5044   52.8708   28.6405 N   0  0  0  0  0  0  0  0  0  0  0  0
  2  1  1  6  0  0  0
  2  3  1  0  0  0  0
  2  5  1  0  0  0  0
  3  4  1  0  0  0  0
  3 17  1  0  0  0  0
  5  6  1  0  0  0  0
  7  6  1  6  0  0  0
  7  8  1  0  0  0  0
  7  9  1  0  0  0  0
 10  9  1  1  0  0  0
 10 11  1  0  0  0  0
 10 12  1  0  0  0  0
 11 16  1  0  0  0  0
 12 13  1  6  0  0  0
 12 14  1  0  0  0  0
 14 15  1  1  0  0  0
 14 16  1  0  0  0  0
 16 27  1  6  0  0  0
 18 19  2  0  0  0  0
 18 23  1  0  0  0  0
 19 20  1  0  0  0  0
 20 21  2  0  0  0  0
 21 22  1  0  0  0  0
 21 27  1  0  0  0  0
 22 23  2  0  0  0  0
 22 25  1  0  0  0  0
 23 24  1  0  0  0  0
 25 26  2  0  0  0  0
 26 27  1  0  0  0  0
M  END
>  <CHROM.1>
163.13653929,-172.08508480,-175.39645940,167.05990417,-85.72921001,166.26171591
-157.00733865,49.18613102,54.43262145,30.17196921,-2.19082736,-1.00443625
-2.83189269

>  <Name>
ligand

>  <RI>
0

>  <Rbt.Current_Directory>
/home/itssahil/PROJECTS/Mol_Feturizer/New_Systems/rnas/3IQN

>  <Rbt.Executable>
rbdock ($Id: //depot/dev/client3/rdock/2013.1/src/exe/rbdock.cxx#4 $)

>  <Rbt.Library>
libRbt.so (2013.1, Build901 2013/11/27)

>  <Rbt.Parameter_File>
/export/apps/rDock/src/rDock_2013.1_src/data/scripts/dock_solv.prm

>  <Rbt.Receptor>
prm/pocket_docking_7.prm

>  <SCORE>
-20.7807

>  <SCORE.INTER>
-16.4174

>  <SCORE.INTER.CONST>
1

>  <SCORE.INTER.POLAR>
0

>  <SCORE.INTER.ROT>
7

>  <SCORE.INTER.SOLV>
9.59527

>  <SCORE.INTER.VDW>
-22.41

>  <SCORE.INTER.norm>
-0.608052

>  <SCORE.INTRA>
-4.36335

>  <SCORE.INTRA.DIHEDRAL>
-4.90694

>  <SCORE.INTRA.DIHEDRAL.0>
10.0365

>  <SCORE.INTRA.POLAR>
0

>  <SCORE.INTRA.POLAR.0>
0

>  <SCORE.INTRA.REPUL>
0

>  <SCORE.INTRA.REPUL.0>
0

>  <SCORE.INTRA.SOLV>
-1.01129

>  <SCORE.INTRA.SOLV.lig_0>
-48.6728

>  <SCORE.INTRA.VDW>
-1.40423

>  <SCORE.INTRA.VDW.0>
-1.10662

>  <SCORE.INTRA.norm>
-0.161605

>  <SCORE.RESTR>
0

>  <SCORE.RESTR.CAVITY>
0

>  <SCORE.RESTR.norm>
0

>  <SCORE.SYSTEM>
0

>  <SCORE.SYSTEM.CONST>
0

>  <SCORE.SYSTEM.DIHEDRAL>
0

>  <SCORE.SYSTEM.SOLV>
0

>  <SCORE.SYSTEM.norm>
0

>  <SCORE.heavy>
27

>  <SCORE.norm>
-0.769657

>  <RMSD>
7.062

$$$$
ligand
 OpenBabel11021811483D
libRbt.so/2013.1/901 2013/11/27
 27 29  0  0  0  0  0  0  0  0999 V2000
   46.9155   57.9097   30.8092 N   0  0  0  0  0  0  0  0  0  0  0  0
   47.1639   58.5003   32.1309 C   0  0  2  0  0  0  0  0  0  0  0  0
   47.9820   59.7434   31.9494 C   0  0  0  0  0  0  0  0  0  0  0  0
   47.5111   60.8307   32.2427 O   0  0  0  0  0  0  0  0  0  0  0  0
   47.9292   57.5106   33.0220 C   0  0  0  0  0  0  0  0  0  0  0  0
   47.0552   56.2829   33.2613 C   0  0  0  0  0  0  0  0  0  0  0  0
   48.0077   54.7464   33.4836 S   0  0  2  0  0  0  0  0  0  0  0  0
   49.0976   55.0854   34.9005 C   0  0  0  0  0  0  0  0  0  0  0  0
   49.2897   54.5824   32.1892 C   0  0  0  0  0  0  0  0  0  0  0  0
   48.4993   54.1557   30.9766 C   0  0  1  0  0  0  0  0  0  0  0  0
   49.4528   54.0748   29.9691 O   0  0  0  0  0  0  0  0  0  0  0  0
   47.8453   52.7764   30.8819 C   0  0  1  0  0  0  0  0  0  0  0  0
   46.5336   52.7693   31.3677 O   0  0  0  0  0  0  0  0  0  0  0  0
   47.9553   52.5694   29.2958 C   0  0  1  0  0  0  0  0  0  0  0  0
   47.3568   53.6146   28.5155 O   0  0  0  0  0  0  0  0  0  0  0  0
   49.4541   52.6864   29.4512 C   0  0  1  0  0  0  0  0  0  0  0  0
   49.1231   59.6605   31.5231 O   0  0  0  0  0  0  0  0  0  0  0  0
   50.7785   50.7624   25.0001 N   0  0  0  0  0  0  0  0  0  0  0  0
   49.6860   50.5840   25.7444 C   0  0  0  0  0  0  0  0  0  0  0  0
   49.5012   51.2387   26.8901 N   0  0  0  0  0  0  0  0  0  0  0  0
   50.4654   52.0122   27.4067 C   0  0  0  0  0  0  0  0  0  0  0  0
   51.6816   52.1763   26.6701 C   0  0  0  0  0  0  0  0  0  0  0  0
   51.7910   51.5113   25.4178 C   0  0  0  0  0  0  0  0  0  0  0  0
   52.9116   51.6305   24.6446 N   0  0  0  0  0  0  0  0  0  0  0  0
   52.4785   52.9845   27.3960 N   0  0  0  0  0  0  0  0  0  0  0  0
   51.8626   53.3226   28.5074 C   0  0  0  0  0  0  0  0  0  0  0  0
   50.6072   52.7699   28.5735 N   0  0  0  0  0  0  0  0  0  0  0  0
  2  1  1  6  0  0  0
  2  3  1  0  0  0  0
  2  5  1  0  0  0  0
  3  4  1  0  0  0  0
  3 17  1  0  0  0  0
  5  6  1  0  0  0  0
  7  6  1  6  0  0  0
  7  8  1  0  0  0  0
  7  9  1  0  0  0  0
 10  9  1  1  0  0  0
 10 11  1  0  0  0  0
 10 12  1  0  0  0  0
 11 16  1  0  0  0  0
 12 13  1  6  0  0  0
 12 14  1  0  0  0  0
 14 15  1  6  0  0  0
 14 16  1  0  0  0  0
 16 27  1  6  0  0  0
 18 19  2  0  0  0  0
 18 23  1  0  0  0  0
 19 20  1  0  0  0  0
 20 21  2  0  0  0  0
 21 22  1  0  0  0  0
 21 27  1  0  0  0  0
 22 23  2  0  0  0  0
 22 25  1  0  0  0  0
 23 24  1  0  0  0  0
 25 26  2  0  0  0  0
 26 27  1  0  0  0  0
M  END
>  <CHROM.1>
115.28028086,-63.79097595,149.25840953,57.96562344,-76.39171167,177.84992975
-144.26189766,49.10346975,54.42030349,29.97998000,-2.29491589,-1.02437955
-2.98231568

>  <Name>
ligand

>  <RI>
0

>  <Rbt.Current_Directory>
/home/itssahil/PROJECTS/Mol_Feturizer/New_Systems/rnas/3IQN

>  <Rbt.Executable>
rbdock ($Id: //depot/dev/client3/rdock/2013.1/src/exe/rbdock.cxx#4 $)

>  <Rbt.Library>
libRbt.so (2013.1, Build901 2013/11/27)

>  <Rbt.Parameter_File>
/export/apps/rDock/src/rDock_2013.1_src/data/scripts/dock_solv.prm

>  <Rbt.Receptor>
prm/pocket_docking_7.prm

>  <SCORE>
-18.9595

>  <SCORE.INTER>
-16.1525

>  <SCORE.INTER.CONST>
1

>  <SCORE.INTER.POLAR>
0

>  <SCORE.INTER.ROT>
7

>  <SCORE.INTER.SOLV>
7.15891

>  <SCORE.INTER.VDW>
-21.4213

>  <SCORE.INTER.norm>
-0.598242

>  <SCORE.INTRA>
-2.80696

>  <SCORE.INTRA.DIHEDRAL>
-3.68469

>  <SCORE.INTRA.DIHEDRAL.0>
10.0365

>  <SCORE.INTRA.POLAR>
0

>  <SCORE.INTRA.POLAR.0>
0

>  <SCORE.INTRA.REPUL>
0

>  <SCORE.INTRA.REPUL.0>
0

>  <SCORE.INTRA.SOLV>
0.600086

>  <SCORE.INTRA.SOLV.lig_0>
-48.6728

>  <SCORE.INTRA.VDW>
-1.26466

>  <SCORE.INTRA.VDW.0>
-1.10662

>  <SCORE.INTRA.norm>
-0.103962

>  <SCORE.RESTR>
0

>  <SCORE.RESTR.CAVITY>
0

>  <SCORE.RESTR.norm>
0

>  <SCORE.SYSTEM>
0

>  <SCORE.SYSTEM.CONST>
0

>  <SCORE.SYSTEM.DIHEDRAL>
0

>  <SCORE.SYSTEM.SOLV>
0

>  <SCORE.SYSTEM.norm>
0

>  <SCORE.heavy>
27

>  <SCORE.norm>
-0.702204

>  <RMSD>
7.069

$$$$
ligand
 OpenBabel11021811483D
libRbt.so/2013.1/901 2013/11/27
 27 29  0  0  0  0  0  0  0  0999 V2000
   48.8383   59.1453   30.6107 N   0  0  0  0  0  0  0  0  0  0  0  0
   47.7558   58.9527   31.5847 C   0  0  2  0  0  0  0  0  0  0  0  0
   46.6907   59.9737   31.3189 C   0  0  0  0  0  0  0  0  0  0  0  0
   45.5190   59.6990   31.5235 O   0  0  0  0  0  0  0  0  0  0  0  0
   48.2875   59.1295   33.0149 C   0  0  0  0  0  0  0  0  0  0  0  0
   49.4010   58.1148   33.2573 C   0  0  0  0  0  0  0  0  0  0  0  0
   49.0237   56.4549   32.6094 S   0  0  2  0  0  0  0  0  0  0  0  0
   49.8918   55.3175   33.7334 C   0  0  0  0  0  0  0  0  0  0  0  0
   49.9823   56.1166   31.0887 C   0  0  0  0  0  0  0  0  0  0  0  0
   49.3466   54.8556   30.5567 C   0  0  1  0  0  0  0  0  0  0  0  0
   49.6342   54.8855   29.1976 O   0  0  0  0  0  0  0  0  0  0  0  0
   49.8597   53.4671   30.9412 C   0  0  1  0  0  0  0  0  0  0  0  0
   49.2211   52.9533   32.0747 O   0  0  0  0  0  0  0  0  0  0  0  0
   49.4990   52.6956   29.5827 C   0  0  1  0  0  0  0  0  0  0  0  0
   48.1196   52.7821   29.1964 O   0  0  0  0  0  0  0  0  0  0  0  0
   50.4098   53.6668   28.8674 C   0  0  1  0  0  0  0  0  0  0  0  0
   47.0022   61.0823   30.9132 O   0  0  0  0  0  0  0  0  0  0  0  0
   52.4240   51.2031   24.9761 N   0  0  0  0  0  0  0  0  0  0  0  0
   52.1816   50.8175   26.2299 C   0  0  0  0  0  0  0  0  0  0  0  0
   51.5828   51.6199   27.1090 N   0  0  0  0  0  0  0  0  0  0  0  0
   51.3111   52.8962   26.8055 C   0  0  0  0  0  0  0  0  0  0  0  0
   51.6179   53.3688   25.4897 C   0  0  0  0  0  0  0  0  0  0  0  0
   52.1882   52.4447   24.5716 C   0  0  0  0  0  0  0  0  0  0  0  0
   52.4940   52.8111   23.2910 N   0  0  0  0  0  0  0  0  0  0  0  0
   51.2587   54.6664   25.4410 N   0  0  0  0  0  0  0  0  0  0  0  0
   50.7672   55.0282   26.6056 C   0  0  0  0  0  0  0  0  0  0  0  0
   50.7549   53.9798   27.4927 N   0  0  0  0  0  0  0  0  0  0  0  0
  2  1  1  6  0  0  0
  2  3  1  0  0  0  0
  2  5  1  0  0  0  0
  3  4  1  0  0  0  0
  3 17  1  0  0  0  0
  5  6  1  0  0  0  0
  7  6  1  1  0  0  0
  7  8  1  0  0  0  0
  7  9  1  0  0  0  0
 10  9  1  1  0  0  0
 10 11  1  0  0  0  0
 10 12  1  0  0  0  0
 11 16  1  0  0  0  0
 12 13  1  1  0  0  0
 12 14  1  0  0  0  0
 14 15  1  6  0  0  0
 14 16  1  0  0  0  0
 16 27  1  6  0  0  0
 18 19  2  0  0  0  0
 18 23  1  0  0  0  0
 19 20  1  0  0  0  0
 20 21  2  0  0  0  0
 21 22  1  0  0  0  0
 21 27  1  0  0  0  0
 22 23  2  0  0  0  0
 22 25  1  0  0  0  0
 23 24  1  0  0  0  0
 25 26  2  0  0  0  0
 26 27  1  0  0  0  0
M  END
>  <CHROM.1>
147.07050381,-58.93756456,-42.78186412,-149.12034967,-169.00255061,155.92237594
-169.48570344,49.70725776,55.24488360,29.45249004,2.93751222,-1.15651622
2.14215666

>  <Name>
ligand

>  <RI>
0

>  <Rbt.Current_Directory>
/home/itssahil/PROJECTS/Mol_Feturizer/New_Systems/rnas/3IQN

>  <Rbt.Executable>
rbdock ($Id: //depot/dev/client3/rdock/2013.1/src/exe/rbdock.cxx#4 $)

>  <Rbt.Library>
libRbt.so (2013.1, Build901 2013/11/27)

>  <Rbt.Parameter_File>
/export/apps/rDock/src/rDock_2013.1_src/data/scripts/dock_solv.prm

>  <Rbt.Receptor>
prm/pocket_docking_8.prm

>  <SCORE>
-14.1275

>  <SCORE.INTER>
-14.4146

>  <SCORE.INTER.CONST>
1

>  <SCORE.INTER.POLAR>
0

>  <SCORE.INTER.ROT>
7

>  <SCORE.INTER.SOLV>
10.8328

>  <SCORE.INTER.VDW>
-21.4874

>  <SCORE.INTER.norm>
-0.533876

>  <SCORE.INTRA>
0.287141

>  <SCORE.INTRA.DIHEDRAL>
-0.368717

>  <SCORE.INTRA.DIHEDRAL.0>
10.0365

>  <SCORE.INTRA.POLAR>
0

>  <SCORE.INTRA.POLAR.0>
0

>  <SCORE.INTRA.REPUL>
0

>  <SCORE.INTRA.REPUL.0>
0

>  <SCORE.INTRA.SOLV>
1.98019

>  <SCORE.INTRA.SOLV.lig_0>
-48.6728

>  <SCORE.INTRA.VDW>
-0.518597

>  <SCORE.INTRA.VDW.0>
-1.10662

>  <SCORE.INTRA.norm>
0.0106348

>  <SCORE.RESTR>
0

>  <SCORE.RESTR.CAVITY>
0

>  <SCORE.RESTR.norm>
0

>  <SCORE.SYSTEM>
0

>  <SCORE.SYSTEM.CONST>
0

>  <SCORE.SYSTEM.DIHEDRAL>
0

>  <SCORE.SYSTEM.SOLV>
0

>  <SCORE.SYSTEM.norm>
0

>  <SCORE.heavy>
27

>  <SCORE.norm>
-0.523241

>  <RMSD>
7.106

$$$$
ligand
 OpenBabel11021811483D
libRbt.so/2013.1/901 2013/11/27
 27 29  0  0  0  0  0  0  0  0999 V2000
   50.0883   55.8119   33.2069 N   0  0  0  0  0  0  0  0  0  0  0  0
   49.1008   55.8792   34.2921 C   0  0  2  0  0  0  0  0  0  0  0  0
   49.2573   54.6617   35.1528 C   0  0  0  0  0  0  0  0  0  0  0  0
   49.4412   53.5707   34.6371 O   0  0  0  0  0  0  0  0  0  0  0  0
   47.6773   55.9183   33.7163 C   0  0  0  0  0  0  0  0  0  0  0  0
   47.3791   57.3338   33.2308 C   0  0  0  0  0  0  0  0  0  0  0  0
   48.2879   57.7890   31.7194 S   0  0  2  0  0  0  0  0  0  0  0  0
   49.7433   58.7015   32.3189 C   0  0  0  0  0  0  0  0  0  0  0  0
   47.4504   59.1598   30.8446 C   0  0  0  0  0  0  0  0  0  0  0  0
   46.3122   58.4685   30.1351 C   0  0  1  0  0  0  0  0  0  0  0  0
   46.8689   58.0640   28.9279 O   0  0  0  0  0  0  0  0  0  0  0  0
   45.7191   57.1549   30.6467 C   0  0  1  0  0  0  0  0  0  0  0  0
   44.6519   57.3548   31.5287 O   0  0  0  0  0  0  0  0  0  0  0  0
   45.2913   56.5219   29.2371 C   0  0  1  0  0  0  0  0  0  0  0  0
   44.4231   57.3508   28.4505 O   0  0  0  0  0  0  0  0  0  0  0  0
   46.7480   56.5897   28.8398 C   0  0  1  0  0  0  0  0  0  0  0  0
   49.2155   54.7699   36.3682 O   0  0  0  0  0  0  0  0  0  0  0  0
   47.0574   53.0163   25.3180 N   0  0  0  0  0  0  0  0  0  0  0  0
   46.3124   53.1004   26.4213 C   0  0  0  0  0  0  0  0  0  0  0  0
   46.3412   54.1747   27.2089 N   0  0  0  0  0  0  0  0  0  0  0  0
   47.2157   55.1663   26.9925 C   0  0  0  0  0  0  0  0  0  0  0  0
   48.0807   55.0821   25.8552 C   0  0  0  0  0  0  0  0  0  0  0  0
   47.9521   53.9462   25.0093 C   0  0  0  0  0  0  0  0  0  0  0  0
   48.7276   53.7986   23.8938 N   0  0  0  0  0  0  0  0  0  0  0  0
   48.8561   56.1839   25.8647 N   0  0  0  0  0  0  0  0  0  0  0  0
   48.5470   56.9272   26.9043 C   0  0  0  0  0  0  0  0  0  0  0  0
   47.5300   56.3668   27.6374 N   0  0  0  0  0  0  0  0  0  0  0  0
  2  1  1  6  0  0  0
  2  3  1  0  0  0  0
  2  5  1  0  0  0  0
  3  4  1  0  0  0  0
  3 17  1  0  0  0  0
  5  6  1  0  0  0  0
  7  6  1  1  0  0  0
  7  8  1  0  0  0  0
  7  9  1  0  0  0  0
 10  9  1  1  0  0  0
 10 11  1  0  0  0  0
 10 12  1  0  0  0  0
 11 16  1  0  0  0  0
 12 13  1  1  0  0  0
 12 14  1  0  0  0  0
 14 15  1  6  0  0  0
 14 16  1  0  0  0  0
 16 27  1  6  0  0  0
 18 19  2  0  0  0  0
 18 23  1  0  0  0  0
 19 20  1  0  0  0  0
 20 21  2  0  0  0  0
 21 22  1  0  0  0  0
 21 27  1  0  0  0  0
 22 23  2  0  0  0  0
 22 25  1  0  0  0  0
 23 24  1  0  0  0  0
 25 26  2  0  0  0  0
 26 27  1  0  0  0  0
M  END
>  <CHROM.1>
-41.82906747,-78.70742392,71.58968626,-96.72726210,-78.50253807,-87.54913057
-157.28953116,47.59012163,56.15140755,29.99608540,-1.28074296,0.98144920
-1.96526856

>  <Name>
ligand

>  <RI>
0

>  <Rbt.Current_Directory>
/home/itssahil/PROJECTS/Mol_Feturizer/New_Systems/rnas/3IQN

>  <Rbt.Executable>
rbdock ($Id: //depot/dev/client3/rdock/2013.1/src/exe/rbdock.cxx#4 $)

>  <Rbt.Library>
libRbt.so (2013.1, Build901 2013/11/27)

>  <Rbt.Parameter_File>
/export/apps/rDock/src/rDock_2013.1_src/data/scripts/dock_solv.prm

>  <Rbt.Receptor>
prm/pocket_docking_7.prm

>  <SCORE>
-12.4138

>  <SCORE.INTER>
-12.9683

>  <SCORE.INTER.CONST>
1

>  <SCORE.INTER.POLAR>
0

>  <SCORE.INTER.ROT>
7

>  <SCORE.INTER.SOLV>
11.9095

>  <SCORE.INTER.VDW>
-20.8821

>  <SCORE.INTER.norm>
-0.480309

>  <SCORE.INTRA>
0.554559

>  <SCORE.INTRA.DIHEDRAL>
-0.452589

>  <SCORE.INTRA.DIHEDRAL.0>
10.0365

>  <SCORE.INTRA.POLAR>
0

>  <SCORE.INTRA.POLAR.0>
0

>  <SCORE.INTRA.REPUL>
0

>  <SCORE.INTRA.REPUL.0>
0

>  <SCORE.INTRA.SOLV>
2.36578

>  <SCORE.INTRA.SOLV.lig_0>
-48.6728

>  <SCORE.INTRA.VDW>
-0.402036

>  <SCORE.INTRA.VDW.0>
-1.10662

>  <SCORE.INTRA.norm>
0.0205392

>  <SCORE.RESTR>
0

>  <SCORE.RESTR.CAVITY>
0

>  <SCORE.RESTR.norm>
0

>  <SCORE.SYSTEM>
0

>  <SCORE.SYSTEM.CONST>
0

>  <SCORE.SYSTEM.DIHEDRAL>
0

>  <SCORE.SYSTEM.SOLV>
0

>  <SCORE.SYSTEM.norm>
0

>  <SCORE.heavy>
27

>  <SCORE.norm>
-0.45977

>  <RMSD>
7.171

$$$$
ligand
 OpenBabel11021811483D
libRbt.so/2013.1/901 2013/11/27
 27 29  0  0  0  0  0  0  0  0999 V2000
   46.7188   59.4696   31.9666 N   0  0  0  0  0  0  0  0  0  0  0  0
   47.6423   58.3675   31.6670 C   0  0  2  0  0  0  0  0  0  0  0  0
   48.8761   58.5419   32.5006 C   0  0  0  0  0  0  0  0  0  0  0  0
   49.1594   57.7125   33.3504 O   0  0  0  0  0  0  0  0  0  0  0  0
   48.0247   58.3814   30.1794 C   0  0  0  0  0  0  0  0  0  0  0  0
   48.7165   57.0659   29.8343 C   0  0  0  0  0  0  0  0  0  0  0  0
   49.1740   56.9258   28.0769 S   0  0  2  0  0  0  0  0  0  0  0  0
   47.5865   56.7624   27.2032 C   0  0  0  0  0  0  0  0  0  0  0  0
   49.8557   55.2681   27.7121 C   0  0  0  0  0  0  0  0  0  0  0  0
   49.2500   54.4039   28.7907 C   0  0  1  0  0  0  0  0  0  0  0  0
   48.0464   53.9799   28.2409 O   0  0  0  0  0  0  0  0  0  0  0  0
   49.8757   53.0715   29.2059 C   0  0  1  0  0  0  0  0  0  0  0  0
   50.7937   53.2120   30.2519 O   0  0  0  0  0  0  0  0  0  0  0  0
   48.5335   52.2956   29.6149 C   0  0  1  0  0  0  0  0  0  0  0  0
   47.7374   52.9630   30.6049 O   0  0  0  0  0  0  0  0  0  0  0  0
   48.0618   52.4989   28.1935 C   0  0  1  0  0  0  0  0  0  0  0  0
   49.6014   59.5063   32.3145 O   0  0  0  0  0  0  0  0  0  0  0  0
   46.7030   52.6245   23.3554 N   0  0  0  0  0  0  0  0  0  0  0  0
   47.8700   52.8837   23.9474 C   0  0  0  0  0  0  0  0  0  0  0  0
   48.0395   52.7389   25.2610 N   0  0  0  0  0  0  0  0  0  0  0  0
   47.0066   52.4464   26.0624 C   0  0  0  0  0  0  0  0  0  0  0  0
   45.7212   52.2265   25.4724 C   0  0  0  0  0  0  0  0  0  0  0  0
   45.6182   52.3221   24.0573 C   0  0  0  0  0  0  0  0  0  0  0  0
   44.4313   52.1090   23.4144 N   0  0  0  0  0  0  0  0  0  0  0  0
   44.8647   51.9579   26.4771 N   0  0  0  0  0  0  0  0  0  0  0  0
   45.5081   51.9991   27.6230 C   0  0  0  0  0  0  0  0  0  0  0  0
   46.8399   52.2806   27.4410 N   0  0  0  0  0  0  0  0  0  0  0  0
  2  1  1  6  0  0  0
  2  3  1  0  0  0  0
  2  5  1  0  0  0  0
  3  4  1  0  0  0  0
  3 17  1  0  0  0  0
  5  6  1  0  0  0  0
  7  6  1  1  0  0  0
  7  8  1  0  0  0  0
  7  9  1  0  0  0  0
 10  9  1  6  0  0  0
 10 11  1  0  0  0  0
 10 12  1  0  0  0  0
 11 16  1  0  0  0  0
 12 13  1  1  0  0  0
 12 14  1  0  0  0  0
 14 15  1  1  0  0  0
 14 16  1  0  0  0  0
 16 27  1  1  0  0  0
 18 19  2  0  0  0  0
 18 23  1  0  0  0  0
 19 20  1  0  0  0  0
 20 21  2  0  0  0  0
 21 22  1  0  0  0  0
 21 27  1  0  0  0  0
 22 23  2  0  0  0  0
 22 25  1  0  0  0  0
 23 24  1  0  0  0  0
 25 26  2  0  0  0  0
 26 27  1  0  0  0  0
M  END
>  <CHROM.1>
115.63601744,-167.33507350,178.00597292,-69.59304558,24.66366667,88.68325829
80.63019869,47.90383568,54.77198404,28.34539547,1.01249208,-1.03533925,0.34058913

>  <Name>
ligand

>  <RI>
0

>  <Rbt.Current_Directory>
/home/itssahil/PROJECTS/Mol_Feturizer/New_Systems/rnas/3IQN

>  <Rbt.Executable>
rbdock ($Id: //depot/dev/client3/rdock/2013.1/src/exe/rbdock.cxx#4 $)

>  <Rbt.Library>
libRbt.so (2013.1, Build901 2013/11/27)

>  <Rbt.Parameter_File>
/export/apps/rDock/src/rDock_2013.1_src/data/scripts/dock_solv.prm

>  <Rbt.Receptor>
prm/pocket_docking_6.prm

>  <SCORE>
-14.0661

>  <SCORE.INTER>
-12.1699

>  <SCORE.INTER.CONST>
1

>  <SCORE.INTER.POLAR>
0

>  <SCORE.INTER.ROT>
7

>  <SCORE.INTER.SOLV>
19.5637

>  <SCORE.INTER.VDW>
-22.9011

>  <SCORE.INTER.norm>
-0.450736

>  <SCORE.INTRA>
-1.89761

>  <SCORE.INTRA.DIHEDRAL>
-1.73312

>  <SCORE.INTRA.DIHEDRAL.0>
10.0365

>  <SCORE.INTRA.POLAR>
0

>  <SCORE.INTRA.POLAR.0>
0

>  <SCORE.INTRA.REPUL>
0

>  <SCORE.INTRA.REPUL.0>
0

>  <SCORE.INTRA.SOLV>
-0.983681

>  <SCORE.INTRA.SOLV.lig_0>
-48.6728

>  <SCORE.INTRA.VDW>
-0.53921

>  <SCORE.INTRA.VDW.0>
-1.10662

>  <SCORE.INTRA.norm>
-0.0702819

>  <SCORE.RESTR>
0.00136227

>  <SCORE.RESTR.CAVITY>
0.00136227

>  <SCORE.RESTR.norm>
5.04545e-05

>  <SCORE.SYSTEM>
0

>  <SCORE.SYSTEM.CONST>
0

>  <SCORE.SYSTEM.DIHEDRAL>
0

>  <SCORE.SYSTEM.SOLV>
0

>  <SCORE.SYSTEM.norm>
0

>  <SCORE.heavy>
27

>  <SCORE.norm>
-0.520967

>  <RMSD>
7.206

$$$$
ligand
 OpenBabel11021811483D
libRbt.so/2013.1/901 2013/11/27
 27 29  0  0  0  0  0  0  0  0999 V2000
   45.8418   59.6181   32.0781 N   0  0  0  0  0  0  0  0  0  0  0  0
   46.9914   58.7071   32.1542 C   0  0  2  0  0  0  0  0  0  0  0  0
   47.9906   59.1154   31.1139 C   0  0  0  0  0  0  0  0  0  0  0  0
   47.7242   58.9864   29.9296 O   0  0  0  0  0  0  0  0  0  0  0  0
   46.5442   57.2610   31.8934 C   0  0  0  0  0  0  0  0  0  0  0  0
   45.7971   56.7456   33.1200 C   0  0  0  0  0  0  0  0  0  0  0  0
   45.1261   55.0657   32.9081 S   0  0  2  0  0  0  0  0  0  0  0  0
   45.2124   54.3264   34.5683 C   0  0  0  0  0  0  0  0  0  0  0  0
   46.3364   53.9829   32.0663 C   0  0  0  0  0  0  0  0  0  0  0  0
   45.9918   54.1538   30.6071 C   0  0  1  0  0  0  0  0  0  0  0  0
   47.0992   53.6426   29.9414 O   0  0  0  0  0  0  0  0  0  0  0  0
   44.8569   53.3695   29.9470 C   0  0  1  0  0  0  0  0  0  0  0  0
   43.6327   54.0438   30.0061 O   0  0  0  0  0  0  0  0  0  0  0  0
   45.4712   53.2598   28.4701 C   0  0  1  0  0  0  0  0  0  0  0  0
   45.8101   54.5188   27.8705 O   0  0  0  0  0  0  0  0  0  0  0  0
   46.6411   52.5250   29.0830 C   0  0  1  0  0  0  0  0  0  0  0  0
   49.0619   59.5904   31.4565 O   0  0  0  0  0  0  0  0  0  0  0  0
   48.8436   51.5658   24.6675 N   0  0  0  0  0  0  0  0  0  0  0  0
   47.6141   51.9912   24.9621 C   0  0  0  0  0  0  0  0  0  0  0  0
   47.2369   52.2374   26.2160 N   0  0  0  0  0  0  0  0  0  0  0  0
   48.0401   51.9472   27.2483 C   0  0  0  0  0  0  0  0  0  0  0  0
   49.3448   51.4250   26.9767 C   0  0  0  0  0  0  0  0  0  0  0  0
   49.7181   51.2535   25.6153 C   0  0  0  0  0  0  0  0  0  0  0  0
   50.9518   50.7773   25.2705 N   0  0  0  0  0  0  0  0  0  0  0  0
   49.9429   51.2149   28.1656 N   0  0  0  0  0  0  0  0  0  0  0  0
   49.1218   51.5556   29.1344 C   0  0  0  0  0  0  0  0  0  0  0  0
   47.9323   52.0316   28.6400 N   0  0  0  0  0  0  0  0  0  0  0  0
  2  1  1  6  0  0  0
  2  3  1  0  0  0  0
  2  5  1  0  0  0  0
  3  4  1  0  0  0  0
  3 17  1  0  0  0  0
  5  6  1  0  0  0  0
  7  6  1  1  0  0  0
  7  8  1  0  0  0  0
  7  9  1  0  0  0  0
 10  9  1  1  0  0  0
 10 11  1  0  0  0  0
 10 12  1  0  0  0  0
 11 16  1  0  0  0  0
 12 13  1  6  0  0  0
 12 14  1  0  0  0  0
 14 15  1  1  0  0  0
 14 16  1  0  0  0  0
 16 27  1  6  0  0  0
 18 19  2  0  0  0  0
 18 23  1  0  0  0  0
 19 20  1  0  0  0  0
 20 21  2  0  0  0  0
 21 22  1  0  0  0  0
 21 27  1  0  0  0  0
 22 23  2  0  0  0  0
 22 25  1  0  0  0  0
 23 24  1  0  0  0  0
 25 26  2  0  0  0  0
 26 27  1  0  0  0  0
M  END
>  <CHROM.1>
-67.56558894,-73.99715591,176.72178549,147.34404680,-90.72095739,164.50821660
-126.18062329,47.07330466,54.38270448,29.64844799,-1.99227856,-0.79593977
-2.66296142

>  <Name>
ligand

>  <RI>
0

>  <Rbt.Current_Directory>
/home/itssahil/PROJECTS/Mol_Feturizer/New_Systems/rnas/3IQN

>  <Rbt.Executable>
rbdock ($Id: //depot/dev/client3/rdock/2013.1/src/exe/rbdock.cxx#4 $)

>  <Rbt.Library>
libRbt.so (2013.1, Build901 2013/11/27)

>  <Rbt.Parameter_File>
/export/apps/rDock/src/rDock_2013.1_src/data/scripts/dock_solv.prm

>  <Rbt.Receptor>
prm/pocket_docking_7.prm

>  <SCORE>
-13.7808

>  <SCORE.INTER>
-10.8909

>  <SCORE.INTER.CONST>
1

>  <SCORE.INTER.POLAR>
0

>  <SCORE.INTER.ROT>
7

>  <SCORE.INTER.SOLV>
16.131

>  <SCORE.INTER.VDW>
-20.9043

>  <SCORE.INTER.norm>
-0.403367

>  <SCORE.INTRA>
-2.88988

>  <SCORE.INTRA.DIHEDRAL>
-2.07259

>  <SCORE.INTRA.DIHEDRAL.0>
10.0365

>  <SCORE.INTRA.POLAR>
0

>  <SCORE.INTRA.POLAR.0>
0

>  <SCORE.INTRA.REPUL>
0

>  <SCORE.INTRA.REPUL.0>
0

>  <SCORE.INTRA.SOLV>
-0.359896

>  <SCORE.INTRA.SOLV.lig_0>
-48.6728

>  <SCORE.INTRA.VDW>
-1.67364

>  <SCORE.INTRA.VDW.0>
-1.10662

>  <SCORE.INTRA.norm>
-0.107033

>  <SCORE.RESTR>
0

>  <SCORE.RESTR.CAVITY>
0

>  <SCORE.RESTR.norm>
0

>  <SCORE.SYSTEM>
0

>  <SCORE.SYSTEM.CONST>
0

>  <SCORE.SYSTEM.DIHEDRAL>
0

>  <SCORE.SYSTEM.SOLV>
0

>  <SCORE.SYSTEM.norm>
0

>  <SCORE.heavy>
27

>  <SCORE.norm>
-0.510399

>  <RMSD>
7.222

$$$$
ligand
 OpenBabel11021811483D
libRbt.so/2013.1/901 2013/11/27
 27 29  0  0  0  0  0  0  0  0999 V2000
   46.3052   58.9507   31.3267 N   0  0  0  0  0  0  0  0  0  0  0  0
   46.4821   58.1255   32.5288 C   0  0  2  0  0  0  0  0  0  0  0  0
   47.9451   57.8499   32.7046 C   0  0  0  0  0  0  0  0  0  0  0  0
   48.4325   57.8375   33.8237 O   0  0  0  0  0  0  0  0  0  0  0  0
   45.7262   56.7967   32.3795 C   0  0  0  0  0  0  0  0  0  0  0  0
   45.7743   56.0485   33.7086 C   0  0  0  0  0  0  0  0  0  0  0  0
   45.2197   54.3179   33.5875 S   0  0  2  0  0  0  0  0  0  0  0  0
   45.6893   53.5751   35.1806 C   0  0  0  0  0  0  0  0  0  0  0  0
   46.3308   53.3530   32.5010 C   0  0  0  0  0  0  0  0  0  0  0  0
   45.9564   53.8291   31.1189 C   0  0  1  0  0  0  0  0  0  0  0  0
   47.0089   53.3968   30.3213 O   0  0  0  0  0  0  0  0  0  0  0  0
   44.7547   53.2579   30.3648 C   0  0  1  0  0  0  0  0  0  0  0  0
   43.5788   53.9766   30.6048 O   0  0  0  0  0  0  0  0  0  0  0  0
   45.3180   53.4075   28.8712 C   0  0  1  0  0  0  0  0  0  0  0  0
   45.7204   54.7386   28.5165 O   0  0  0  0  0  0  0  0  0  0  0  0
   46.4551   52.4997   29.2801 C   0  0  1  0  0  0  0  0  0  0  0  0
   48.6405   57.6233   31.7269 O   0  0  0  0  0  0  0  0  0  0  0  0
   48.2426   51.7690   24.6390 N   0  0  0  0  0  0  0  0  0  0  0  0
   47.0469   52.1783   25.0657 C   0  0  0  0  0  0  0  0  0  0  0  0
   46.7864   52.3597   26.3598 N   0  0  0  0  0  0  0  0  0  0  0  0
   47.6789   52.0173   27.2984 C   0  0  0  0  0  0  0  0  0  0  0  0
   48.9512   51.5101   26.8828 C   0  0  0  0  0  0  0  0  0  0  0  0
   49.1984   51.4089   25.4860 C   0  0  0  0  0  0  0  0  0  0  0  0
   50.3935   50.9514   25.0064 N   0  0  0  0  0  0  0  0  0  0  0  0
   49.6541   51.2396   27.9999 N   0  0  0  0  0  0  0  0  0  0  0  0
   48.9260   51.5298   29.0556 C   0  0  0  0  0  0  0  0  0  0  0  0
   47.6985   52.0301   28.6967 N   0  0  0  0  0  0  0  0  0  0  0  0
  2  1  1  6  0  0  0
  2  3  1  0  0  0  0
  2  5  1  0  0  0  0
  3  4  1  0  0  0  0
  3 17  1  0  0  0  0
  5  6  1  0  0  0  0
  7  6  1  1  0  0  0
  7  8  1  0  0  0  0
  7  9  1  0  0  0  0
 10  9  1  1  0  0  0
 10 11  1  0  0  0  0
 10 12  1  0  0  0  0
 11 16  1  0  0  0  0
 12 13  1  6  0  0  0
 12 14  1  0  0  0  0
 14 15  1  1  0  0  0
 14 16  1  0  0  0  0
 16 27  1  6  0  0  0
 18 19  2  0  0  0  0
 18 23  1  0  0  0  0
 19 20  1  0  0  0  0
 20 21  2  0  0  0  0
 21 22  1  0  0  0  0
 21 27  1  0  0  0  0
 22 23  2  0  0  0  0
 22 25  1  0  0  0  0
 23 24  1  0  0  0  0
 25 26  2  0  0  0  0
 26 27  1  0  0  0  0
M  END
>  <CHROM.1>
141.80977319,-172.50202198,-168.14508508,168.79940377,-74.44680522,164.40910105
-135.82510176,46.91426283,54.03699879,30.09094388,-1.92438257,-0.79170010
-2.42600296

>  <Name>
ligand

>  <RI>
0

>  <Rbt.Current_Directory>
/home/itssahil/PROJECTS/Mol_Feturizer/New_Systems/rnas/3IQN

>  <Rbt.Executable>
rbdock ($Id: //depot/dev/client3/rdock/2013.1/src/exe/rbdock.cxx#4 $)

>  <Rbt.Library>
libRbt.so (2013.1, Build901 2013/11/27)

>  <Rbt.Parameter_File>
/export/apps/rDock/src/rDock_2013.1_src/data/scripts/dock_solv.prm

>  <Rbt.Receptor>
prm/pocket_docking_6.prm

>  <SCORE>
-17.1859

>  <SCORE.INTER>
-12.2019

>  <SCORE.INTER.CONST>
1

>  <SCORE.INTER.POLAR>
0

>  <SCORE.INTER.ROT>
7

>  <SCORE.INTER.SOLV>
12.642

>  <SCORE.INTER.VDW>
-20.6153

>  <SCORE.INTER.norm>
-0.451923

>  <SCORE.INTRA>
-4.98397

>  <SCORE.INTRA.DIHEDRAL>
-5.29079

>  <SCORE.INTRA.DIHEDRAL.0>
10.0365

>  <SCORE.INTRA.POLAR>
0

>  <SCORE.INTRA.POLAR.0>
0

>  <SCORE.INTRA.REPUL>
0

>  <SCORE.INTRA.REPUL.0>
0

>  <SCORE.INTRA.SOLV>
-0.803679

>  <SCORE.INTRA.SOLV.lig_0>
-48.6728

>  <SCORE.INTRA.VDW>
-1.93674

>  <SCORE.INTRA.VDW.0>
-1.10662

>  <SCORE.INTRA.norm>
-0.184592

>  <SCORE.RESTR>
0

>  <SCORE.RESTR.CAVITY>
0

>  <SCORE.RESTR.norm>
0

>  <SCORE.SYSTEM>
0

>  <SCORE.SYSTEM.CONST>
0

>  <SCORE.SYSTEM.DIHEDRAL>
0

>  <SCORE.SYSTEM.SOLV>
0

>  <SCORE.SYSTEM.norm>
0

>  <SCORE.heavy>
27

>  <SCORE.norm>
-0.636514

>  <RMSD>
7.238

$$$$
ligand
 OpenBabel11021811483D
libRbt.so/2013.1/901 2013/11/27
 27 29  0  0  0  0  0  0  0  0999 V2000
   47.5972   59.6151   31.7573 N   0  0  0  0  0  0  0  0  0  0  0  0
   47.9393   58.8014   32.9312 C   0  0  2  0  0  0  0  0  0  0  0  0
   49.4318   58.6829   33.0084 C   0  0  0  0  0  0  0  0  0  0  0  0
   50.1095   58.8602   32.0087 O   0  0  0  0  0  0  0  0  0  0  0  0
   47.3213   57.4006   32.8078 C   0  0  0  0  0  0  0  0  0  0  0  0
   45.8048   57.5166   32.9310 C   0  0  0  0  0  0  0  0  0  0  0  0
   44.9266   55.9619   32.5720 S   0  0  2  0  0  0  0  0  0  0  0  0
   45.6928   54.7382   33.6793 C   0  0  0  0  0  0  0  0  0  0  0  0
   45.4729   55.2600   30.9736 C   0  0  0  0  0  0  0  0  0  0  0  0
   45.0140   56.2913   29.9722 C   0  0  1  0  0  0  0  0  0  0  0  0
   46.0708   56.3766   29.0740 O   0  0  0  0  0  0  0  0  0  0  0  0
   43.8383   56.0348   29.0282 C   0  0  1  0  0  0  0  0  0  0  0  0
   42.6163   56.4511   29.5668 O   0  0  0  0  0  0  0  0  0  0  0  0
   44.3365   56.9139   27.7833 C   0  0  1  0  0  0  0  0  0  0  0  0
   44.6160   58.2862   28.0967 O   0  0  0  0  0  0  0  0  0  0  0  0
   45.5575   56.0247   27.7292 C   0  0  1  0  0  0  0  0  0  0  0  0
   49.9643   58.4245   34.0763 O   0  0  0  0  0  0  0  0  0  0  0  0
   47.7313   53.0013   24.3525 N   0  0  0  0  0  0  0  0  0  0  0  0
   46.5636   52.9097   24.9908 C   0  0  0  0  0  0  0  0  0  0  0  0
   46.1409   53.8603   25.8233 N   0  0  0  0  0  0  0  0  0  0  0  0
   46.9303   54.8918   26.1514 C   0  0  0  0  0  0  0  0  0  0  0  0
   48.2199   54.9909   25.5384 C   0  0  0  0  0  0  0  0  0  0  0  0
   48.5857   53.9855   24.6015 C   0  0  0  0  0  0  0  0  0  0  0  0
   49.7914   54.0167   23.9590 N   0  0  0  0  0  0  0  0  0  0  0  0
   48.8097   56.0968   26.0327 N   0  0  0  0  0  0  0  0  0  0  0  0
   48.0013   56.6762   26.8927 C   0  0  0  0  0  0  0  0  0  0  0  0
   46.8147   55.9940   27.0044 N   0  0  0  0  0  0  0  0  0  0  0  0
  2  1  1  6  0  0  0
  2  3  1  0  0  0  0
  2  5  1  0  0  0  0
  3  4  1  0  0  0  0
  3 17  1  0  0  0  0
  5  6  1  0  0  0  0
  7  6  1  1  0  0  0
  7  8  1  0  0  0  0
  7  9  1  0  0  0  0
 10  9  1  1  0  0  0
 10 11  1  0  0  0  0
 10 12  1  0  0  0  0
 11 16  1  0  0  0  0
 12 13  1  1  0  0  0
 12 14  1  0  0  0  0
 14 15  1  1  0  0  0
 14 16  1  0  0  0  0
 16 27  1  6  0  0  0
 18 19  2  0  0  0  0
 18 23  1  0  0  0  0
 19 20  1  0  0  0  0
 20 21  2  0  0  0  0
 21 22  1  0  0  0  0
 21 27  1  0  0  0  0
 22 23  2  0  0  0  0
 22 25  1  0  0  0  0
 23 24  1  0  0  0  0
 25 26  2  0  0  0  0
 26 27  1  0  0  0  0
M  END
>  <CHROM.1>
-21.66974647,-68.74888131,171.96475763,54.10561727,-64.86092347,139.04052960
135.70807969,46.70096311,56.26491645,29.28957704,-1.60423101,-0.23759842
-1.98059741

>  <Name>
ligand

>  <RI>
0

>  <Rbt.Current_Directory>
/home/itssahil/PROJECTS/Mol_Feturizer/New_Systems/rnas/3IQN

>  <Rbt.Executable>
rbdock ($Id: //depot/dev/client3/rdock/2013.1/src/exe/rbdock.cxx#4 $)

>  <Rbt.Library>
libRbt.so (2013.1, Build901 2013/11/27)

>  <Rbt.Parameter_File>
/export/apps/rDock/src/rDock_2013.1_src/data/scripts/dock_solv.prm

>  <Rbt.Receptor>
prm/pocket_docking_5.prm

>  <SCORE>
-16.957

>  <SCORE.INTER>
-14.308

>  <SCORE.INTER.CONST>
1

>  <SCORE.INTER.POLAR>
0

>  <SCORE.INTER.ROT>
7

>  <SCORE.INTER.SOLV>
14.3418

>  <SCORE.INTER.VDW>
-22.5859

>  <SCORE.INTER.norm>
-0.529926

>  <SCORE.INTRA>
-2.65659

>  <SCORE.INTRA.DIHEDRAL>
-2.50104

>  <SCORE.INTRA.DIHEDRAL.0>
10.0365

>  <SCORE.INTRA.POLAR>
0

>  <SCORE.INTRA.POLAR.0>
0

>  <SCORE.INTRA.REPUL>
0

>  <SCORE.INTRA.REPUL.0>
0

>  <SCORE.INTRA.SOLV>
-0.465494

>  <SCORE.INTRA.SOLV.lig_0>
-48.6728

>  <SCORE.INTRA.VDW>
-1.17333

>  <SCORE.INTRA.VDW.0>
-1.10662

>  <SCORE.INTRA.norm>
-0.0983923

>  <SCORE.RESTR>
0.00755811

>  <SCORE.RESTR.CAVITY>
0.00755811

>  <SCORE.RESTR.norm>
0.00027993

>  <SCORE.SYSTEM>
0

>  <SCORE.SYSTEM.CONST>
0

>  <SCORE.SYSTEM.DIHEDRAL>
0

>  <SCORE.SYSTEM.SOLV>
0

>  <SCORE.SYSTEM.norm>
0

>  <SCORE.heavy>
27

>  <SCORE.norm>
-0.628038

>  <RMSD>
7.256

$$$$
ligand
 OpenBabel11021811483D
libRbt.so/2013.1/901 2013/11/27
 27 29  0  0  0  0  0  0  0  0999 V2000
   47.3294   52.0455   36.8370 N   0  0  0  0  0  0  0  0  0  0  0  0
   47.1584   52.5580   35.4712 C   0  0  2  0  0  0  0  0  0  0  0  0
   48.4804   53.0749   34.9889 C   0  0  0  0  0  0  0  0  0  0  0  0
   49.1599   53.7821   35.7159 O   0  0  0  0  0  0  0  0  0  0  0  0
   46.1275   53.6965   35.4538 C   0  0  0  0  0  0  0  0  0  0  0  0
   45.9635   54.1932   34.0204 C   0  0  0  0  0  0  0  0  0  0  0  0
   44.7514   55.5425   33.8542 S   0  0  2  0  0  0  0  0  0  0  0  0
   43.1426   54.7524   34.1674 C   0  0  0  0  0  0  0  0  0  0  0  0
   44.5007   55.9792   32.0957 C   0  0  0  0  0  0  0  0  0  0  0  0
   45.8692   56.4419   31.6595 C   0  0  1  0  0  0  0  0  0  0  0  0
   46.3082   55.4312   30.8131 O   0  0  0  0  0  0  0  0  0  0  0  0
   46.0624   57.6764   30.7777 C   0  0  1  0  0  0  0  0  0  0  0  0
   46.2334   58.8476   31.5231 O   0  0  0  0  0  0  0  0  0  0  0  0
   47.3781   57.2043   29.9923 C   0  0  1  0  0  0  0  0  0  0  0  0
   48.4804   56.8451   30.8382 O   0  0  0  0  0  0  0  0  0  0  0  0
   46.5729   56.0306   29.4840 C   0  0  1  0  0  0  0  0  0  0  0  0
   48.8791   52.7727   33.8751 O   0  0  0  0  0  0  0  0  0  0  0  0
   48.8412   54.8489   25.1564 N   0  0  0  0  0  0  0  0  0  0  0  0
   48.6289   56.0275   25.7440 C   0  0  0  0  0  0  0  0  0  0  0  0
   48.0435   56.1231   26.9371 N   0  0  0  0  0  0  0  0  0  0  0  0
   47.5287   55.0442   27.5420 C   0  0  0  0  0  0  0  0  0  0  0  0
   47.6765   53.7680   26.9111 C   0  0  0  0  0  0  0  0  0  0  0  0
   48.3762   53.7190   25.6741 C   0  0  0  0  0  0  0  0  0  0  0  0
   48.5761   52.5381   25.0161 N   0  0  0  0  0  0  0  0  0  0  0  0
   47.0771   52.8608   27.7067 N   0  0  0  0  0  0  0  0  0  0  0  0
   46.5741   53.4671   28.7595 C   0  0  0  0  0  0  0  0  0  0  0  0
   46.8293   54.8161   28.7314 N   0  0  0  0  0  0  0  0  0  0  0  0
  2  1  1  1  0  0  0
  2  3  1  0  0  0  0
  2  5  1  0  0  0  0
  3  4  1  0  0  0  0
  3 17  1  0  0  0  0
  5  6  1  0  0  0  0
  7  6  1  6  0  0  0
  7  8  1  0  0  0  0
  7  9  1  0  0  0  0
 10  9  1  6  0  0  0
 10 11  1  0  0  0  0
 10 12  1  0  0  0  0
 11 16  1  0  0  0  0
 12 13  1  1  0  0  0
 12 14  1  0  0  0  0
 14 15  1  1  0  0  0
 14 16  1  0  0  0  0
 16 27  1  6  0  0  0
 18 19  2  0  0  0  0
 18 23  1  0  0  0  0
 19 20  1  0  0  0  0
 20 21  2  0  0  0  0
 21 22  1  0  0  0  0
 21 27  1  0  0  0  0
 22 23  2  0  0  0  0
 22 25  1  0  0  0  0
 23 24  1  0  0  0  0
 25 26  2  0  0  0  0
 26 27  1  0  0  0  0
M  END
>  <CHROM.1>
-45.65913492,-179.36165128,179.50578104,-69.70004877,-61.75446326,109.41507773
-160.50120428,46.93998076,54.87438506,30.99785810,-1.88694173,0.96968621
-1.22396974

>  <Name>
ligand

>  <RI>
0

>  <Rbt.Current_Directory>
/home/itssahil/PROJECTS/Mol_Feturizer/New_Systems/rnas/3IQN

>  <Rbt.Executable>
rbdock ($Id: //depot/dev/client3/rdock/2013.1/src/exe/rbdock.cxx#4 $)

>  <Rbt.Library>
libRbt.so (2013.1, Build901 2013/11/27)

>  <Rbt.Parameter_File>
/export/apps/rDock/src/rDock_2013.1_src/data/scripts/dock_solv.prm

>  <Rbt.Receptor>
prm/pocket_docking_5.prm

>  <SCORE>
-10.1512

>  <SCORE.INTER>
-7.39097

>  <SCORE.INTER.CONST>
1

>  <SCORE.INTER.POLAR>
0

>  <SCORE.INTER.ROT>
7

>  <SCORE.INTER.SOLV>
10.8699

>  <SCORE.INTER.VDW>
-16.8173

>  <SCORE.INTER.norm>
-0.27374

>  <SCORE.INTRA>
-2.76022

>  <SCORE.INTRA.DIHEDRAL>
-2.31092

>  <SCORE.INTRA.DIHEDRAL.0>
10.0365

>  <SCORE.INTRA.POLAR>
0

>  <SCORE.INTRA.POLAR.0>
0

>  <SCORE.INTRA.REPUL>
0

>  <SCORE.INTRA.REPUL.0>
0

>  <SCORE.INTRA.SOLV>
-1.19274

>  <SCORE.INTRA.SOLV.lig_0>
-48.6728

>  <SCORE.INTRA.VDW>
-1.00839

>  <SCORE.INTRA.VDW.0>
-1.10662

>  <SCORE.INTRA.norm>
-0.10223

>  <SCORE.RESTR>
0

>  <SCORE.RESTR.CAVITY>
0

>  <SCORE.RESTR.norm>
0

>  <SCORE.SYSTEM>
0

>  <SCORE.SYSTEM.CONST>
0

>  <SCORE.SYSTEM.DIHEDRAL>
0

>  <SCORE.SYSTEM.SOLV>
0

>  <SCORE.SYSTEM.norm>
0

>  <SCORE.heavy>
27

>  <SCORE.norm>
-0.37597

>  <RMSD>
7.258

$$$$
ligand
 OpenBabel11021811483D
libRbt.so/2013.1/901 2013/11/27
 27 29  0  0  0  0  0  0  0  0999 V2000
   46.6072   59.0257   31.2916 N   0  0  0  0  0  0  0  0  0  0  0  0
   46.6741   58.1961   32.5018 C   0  0  2  0  0  0  0  0  0  0  0  0
   48.1049   57.8167   32.7390 C   0  0  0  0  0  0  0  0  0  0  0  0
   48.6037   57.9800   33.8411 O   0  0  0  0  0  0  0  0  0  0  0  0
   45.8311   56.9245   32.3240 C   0  0  0  0  0  0  0  0  0  0  0  0
   45.8237   56.1484   33.6377 C   0  0  0  0  0  0  0  0  0  0  0  0
   45.1787   54.4528   33.4753 S   0  0  2  0  0  0  0  0  0  0  0  0
   45.5412   53.6707   35.0775 C   0  0  0  0  0  0  0  0  0  0  0  0
   46.2772   53.4367   32.4233 C   0  0  0  0  0  0  0  0  0  0  0  0
   45.8824   53.8419   31.0244 C   0  0  1  0  0  0  0  0  0  0  0  0
   46.9473   53.4142   30.2408 O   0  0  0  0  0  0  0  0  0  0  0  0
   44.6995   53.1983   30.2995 C   0  0  1  0  0  0  0  0  0  0  0  0
   43.4997   53.8847   30.5147 O   0  0  0  0  0  0  0  0  0  0  0  0
   45.2531   53.3057   28.7987 C   0  0  1  0  0  0  0  0  0  0  0  0
   45.6073   54.6343   28.3878 O   0  0  0  0  0  0  0  0  0  0  0  0
   46.4225   52.4559   29.2398 C   0  0  1  0  0  0  0  0  0  0  0  0
   48.7611   57.3307   31.8313 O   0  0  0  0  0  0  0  0  0  0  0  0
   48.2818   51.7725   24.6198 N   0  0  0  0  0  0  0  0  0  0  0  0
   47.0749   52.1630   25.0323 C   0  0  0  0  0  0  0  0  0  0  0  0
   46.7947   52.3346   26.3235 N   0  0  0  0  0  0  0  0  0  0  0  0
   47.6792   52.0001   27.2725 C   0  0  0  0  0  0  0  0  0  0  0  0
   48.9639   51.5127   26.8716 C   0  0  0  0  0  0  0  0  0  0  0  0
   49.2312   51.4216   25.4779 C   0  0  0  0  0  0  0  0  0  0  0  0
   50.4389   50.9831   25.0122 N   0  0  0  0  0  0  0  0  0  0  0  0
   49.6555   51.2466   27.9968 N   0  0  0  0  0  0  0  0  0  0  0  0
   48.9095   51.5216   29.0440 C   0  0  0  0  0  0  0  0  0  0  0  0
   47.6800   52.0065   28.6709 N   0  0  0  0  0  0  0  0  0  0  0  0
  2  1  1  6  0  0  0
  2  3  1  0  0  0  0
  2  5  1  0  0  0  0
  3  4  1  0  0  0  0
  3 17  1  0  0  0  0
  5  6  1  0  0  0  0
  7  6  1  1  0  0  0
  7  8  1  0  0  0  0
  7  9  1  0  0  0  0
 10  9  1  1  0  0  0
 10 11  1  0  0  0  0
 10 12  1  0  0  0  0
 11 16  1  0  0  0  0
 12 13  1  6  0  0  0
 12 14  1  0  0  0  0
 14 15  1  1  0  0  0
 14 16  1  0  0  0  0
 16 27  1  6  0  0  0
 18 19  2  0  0  0  0
 18 23  1  0  0  0  0
 19 20  1  0  0  0  0
 20 21  2  0  0  0  0
 21 22  1  0  0  0  0
 21 27  1  0  0  0  0
 22 23  2  0  0  0  0
 22 25  1  0  0  0  0
 23 24  1  0  0  0  0
 25 26  2  0  0  0  0
 26 27  1  0  0  0  0
M  END
>  <CHROM.1>
130.04423863,-175.10745580,-167.23910397,170.57986041,-80.17332558,162.37178206
-132.76825470,46.92945037,54.04606009,30.04735497,-1.87099738,-0.67067934
-2.36795889

>  <Name>
ligand

>  <RI>
0

>  <Rbt.Current_Directory>
/home/itssahil/PROJECTS/Mol_Feturizer/New_Systems/rnas/3IQN

>  <Rbt.Executable>
rbdock ($Id: //depot/dev/client3/rdock/2013.1/src/exe/rbdock.cxx#4 $)

>  <Rbt.Library>
libRbt.so (2013.1, Build901 2013/11/27)

>  <Rbt.Parameter_File>
/export/apps/rDock/src/rDock_2013.1_src/data/scripts/dock_solv.prm

>  <Rbt.Receptor>
prm/pocket_docking_8.prm

>  <SCORE>
-17.2075

>  <SCORE.INTER>
-12.4199

>  <SCORE.INTER.CONST>
1

>  <SCORE.INTER.POLAR>
0

>  <SCORE.INTER.ROT>
7

>  <SCORE.INTER.SOLV>
11.9989

>  <SCORE.INTER.VDW>
-20.5462

>  <SCORE.INTER.norm>
-0.459996

>  <SCORE.INTRA>
-4.78759

>  <SCORE.INTRA.DIHEDRAL>
-4.74328

>  <SCORE.INTRA.DIHEDRAL.0>
10.0365

>  <SCORE.INTRA.POLAR>
0

>  <SCORE.INTRA.POLAR.0>
0

>  <SCORE.INTRA.REPUL>
0

>  <SCORE.INTRA.REPUL.0>
0

>  <SCORE.INTRA.SOLV>
-0.899734

>  <SCORE.INTRA.SOLV.lig_0>
-48.6728

>  <SCORE.INTRA.VDW>
-1.96609

>  <SCORE.INTRA.VDW.0>
-1.10662

>  <SCORE.INTRA.norm>
-0.177318

>  <SCORE.RESTR>
0

>  <SCORE.RESTR.CAVITY>
0

>  <SCORE.RESTR.norm>
0

>  <SCORE.SYSTEM>
0

>  <SCORE.SYSTEM.CONST>
0

>  <SCORE.SYSTEM.DIHEDRAL>
0

>  <SCORE.SYSTEM.SOLV>
0

>  <SCORE.SYSTEM.norm>
0

>  <SCORE.heavy>
27

>  <SCORE.norm>
-0.637314

>  <RMSD>
7.264

$$$$
ligand
 OpenBabel11021811483D
libRbt.so/2013.1/901 2013/11/27
 27 29  0  0  0  0  0  0  0  0999 V2000
   47.9730   56.9068   32.3427 N   0  0  0  0  0  0  0  0  0  0  0  0
   47.1855   56.9904   31.1057 C   0  0  2  0  0  0  0  0  0  0  0  0
   45.7444   57.1815   31.4721 C   0  0  0  0  0  0  0  0  0  0  0  0
   45.4459   57.5558   32.5950 O   0  0  0  0  0  0  0  0  0  0  0  0
   47.3379   55.6989   30.2882 C   0  0  0  0  0  0  0  0  0  0  0  0
   48.8003   55.5398   29.8831 C   0  0  0  0  0  0  0  0  0  0  0  0
   49.2170   56.3829   28.3232 S   0  0  2  0  0  0  0  0  0  0  0  0
   48.6394   58.0920   28.5592 C   0  0  0  0  0  0  0  0  0  0  0  0
   48.0662   55.8899   26.9896 C   0  0  0  0  0  0  0  0  0  0  0  0
   48.2104   54.3884   26.9507 C   0  0  1  0  0  0  0  0  0  0  0  0
   47.2815   53.9404   27.8819 O   0  0  0  0  0  0  0  0  0  0  0  0
   47.8189   53.5701   25.7193 C   0  0  1  0  0  0  0  0  0  0  0  0
   48.8842   53.3952   24.8297 O   0  0  0  0  0  0  0  0  0  0  0  0
   47.3618   52.2252   26.4629 C   0  0  1  0  0  0  0  0  0  0  0  0
   48.3582   51.6504   27.3210 O   0  0  0  0  0  0  0  0  0  0  0  0
   46.3223   53.0545   27.1812 C   0  0  1  0  0  0  0  0  0  0  0  0
   44.8755   56.9765   30.6392 O   0  0  0  0  0  0  0  0  0  0  0  0
   41.8479   50.8221   27.6958 N   0  0  0  0  0  0  0  0  0  0  0  0
   42.6354   50.9766   26.6303 C   0  0  0  0  0  0  0  0  0  0  0  0
   43.8281   51.5642   26.7168 N   0  0  0  0  0  0  0  0  0  0  0  0
   44.2338   52.1385   27.8571 C   0  0  0  0  0  0  0  0  0  0  0  0
   43.3865   52.0532   29.0076 C   0  0  0  0  0  0  0  0  0  0  0  0
   42.1585   51.3488   28.8734 C   0  0  0  0  0  0  0  0  0  0  0  0
   41.3012   51.2063   29.9282 N   0  0  0  0  0  0  0  0  0  0  0  0
   44.0105   52.7043   30.0085 N   0  0  0  0  0  0  0  0  0  0  0  0
   45.1554   53.1820   29.5726 C   0  0  0  0  0  0  0  0  0  0  0  0
   45.3659   52.8568   28.2551 N   0  0  0  0  0  0  0  0  0  0  0  0
  2  1  1  1  0  0  0
  2  3  1  0  0  0  0
  2  5  1  0  0  0  0
  3  4  1  0  0  0  0
  3 17  1  0  0  0  0
  5  6  1  0  0  0  0
  7  6  1  1  0  0  0
  7  8  1  0  0  0  0
  7  9  1  0  0  0  0
 10  9  1  6  0  0  0
 10 11  1  0  0  0  0
 10 12  1  0  0  0  0
 11 16  1  0  0  0  0
 12 13  1  6  0  0  0
 12 14  1  0  0  0  0
 14 15  1  1  0  0  0
 14 16  1  0  0  0  0
 16 27  1  1  0  0  0
 18 19  2  0  0  0  0
 18 23  1  0  0  0  0
 19 20  1  0  0  0  0
 20 21  2  0  0  0  0
 21 22  1  0  0  0  0
 21 27  1  0  0  0  0
 22 23  2  0  0  0  0
 22 25  1  0  0  0  0
 23 24  1  0  0  0  0
 25 26  2  0  0  0  0
 26 27  1  0  0  0  0
M  END
>  <CHROM.1>
17.42626465,-62.56670468,-87.37505311,52.80831447,-56.87779417,87.84560335
174.23482766,46.20828359,54.18547707,28.62531495,0.72986010,0.51323542,0.82413639

>  <Name>
ligand

>  <RI>
0

>  <Rbt.Current_Directory>
/home/itssahil/PROJECTS/Mol_Feturizer/New_Systems/rnas/3IQN

>  <Rbt.Executable>
rbdock ($Id: //depot/dev/client3/rdock/2013.1/src/exe/rbdock.cxx#4 $)

>  <Rbt.Library>
libRbt.so (2013.1, Build901 2013/11/27)

>  <Rbt.Parameter_File>
/export/apps/rDock/src/rDock_2013.1_src/data/scripts/dock_solv.prm

>  <Rbt.Receptor>
prm/pocket_docking_8.prm

>  <SCORE>
-9.26652

>  <SCORE.INTER>
-8.0104

>  <SCORE.INTER.CONST>
1

>  <SCORE.INTER.POLAR>
0

>  <SCORE.INTER.ROT>
7

>  <SCORE.INTER.SOLV>
5.6309

>  <SCORE.INTER.VDW>
-15.4839

>  <SCORE.INTER.norm>
-0.296681

>  <SCORE.INTRA>
-1.27955

>  <SCORE.INTRA.DIHEDRAL>
-2.09531

>  <SCORE.INTRA.DIHEDRAL.0>
10.0365

>  <SCORE.INTRA.POLAR>
0

>  <SCORE.INTRA.POLAR.0>
0

>  <SCORE.INTRA.REPUL>
0

>  <SCORE.INTRA.REPUL.0>
0

>  <SCORE.INTRA.SOLV>
0.554497

>  <SCORE.INTRA.SOLV.lig_0>
-48.6728

>  <SCORE.INTRA.VDW>
-0.509142

>  <SCORE.INTRA.VDW.0>
-1.10662

>  <SCORE.INTRA.norm>
-0.0473906

>  <SCORE.RESTR>
0.0234252

>  <SCORE.RESTR.CAVITY>
0.0234252

>  <SCORE.RESTR.norm>
0.000867599

>  <SCORE.SYSTEM>
0

>  <SCORE.SYSTEM.CONST>
0

>  <SCORE.SYSTEM.DIHEDRAL>
0

>  <SCORE.SYSTEM.SOLV>
0

>  <SCORE.SYSTEM.norm>
0

>  <SCORE.heavy>
27

>  <SCORE.norm>
-0.343204

>  <RMSD>
7.319

$$$$
ligand
 OpenBabel11021811483D
libRbt.so/2013.1/901 2013/11/27
 27 29  0  0  0  0  0  0  0  0999 V2000
   47.0442   59.0765   31.5605 N   0  0  0  0  0  0  0  0  0  0  0  0
   47.0314   58.1542   32.7036 C   0  0  2  0  0  0  0  0  0  0  0  0
   48.4370   57.7039   32.9663 C   0  0  0  0  0  0  0  0  0  0  0  0
   49.2224   57.5864   32.0392 O   0  0  0  0  0  0  0  0  0  0  0  0
   46.1531   56.9328   32.3936 C   0  0  0  0  0  0  0  0  0  0  0  0
   45.9594   56.1255   33.6738 C   0  0  0  0  0  0  0  0  0  0  0  0
   45.1881   54.4989   33.3962 S   0  0  2  0  0  0  0  0  0  0  0  0
   45.4011   53.6172   34.9734 C   0  0  0  0  0  0  0  0  0  0  0  0
   46.2543   53.4433   32.3498 C   0  0  0  0  0  0  0  0  0  0  0  0
   45.8847   53.8654   30.9490 C   0  0  1  0  0  0  0  0  0  0  0  0
   46.9615   53.4430   30.1790 O   0  0  0  0  0  0  0  0  0  0  0  0
   44.7123   53.2337   30.1969 C   0  0  1  0  0  0  0  0  0  0  0  0
   43.5112   53.9215   30.3993 O   0  0  0  0  0  0  0  0  0  0  0  0
   45.2918   53.3561   28.7070 C   0  0  1  0  0  0  0  0  0  0  0  0
   45.6571   54.6881   28.3172 O   0  0  0  0  0  0  0  0  0  0  0  0
   46.4510   52.4977   29.1584 C   0  0  1  0  0  0  0  0  0  0  0  0
   48.7946   57.4714   34.1103 O   0  0  0  0  0  0  0  0  0  0  0  0
   48.2969   51.5963   24.5705 N   0  0  0  0  0  0  0  0  0  0  0  0
   47.0823   51.9769   24.9698 C   0  0  0  0  0  0  0  0  0  0  0  0
   46.8063   52.2160   26.2512 N   0  0  0  0  0  0  0  0  0  0  0  0
   47.7064   51.9622   27.2105 C   0  0  0  0  0  0  0  0  0  0  0  0
   49.0015   51.4879   26.8278 C   0  0  0  0  0  0  0  0  0  0  0  0
   49.2615   51.3226   25.4395 C   0  0  0  0  0  0  0  0  0  0  0  0
   50.4778   50.8911   24.9900 N   0  0  0  0  0  0  0  0  0  0  0  0
   49.7080   51.3073   27.9607 N   0  0  0  0  0  0  0  0  0  0  0  0
   48.9618   51.6225   28.9964 C   0  0  0  0  0  0  0  0  0  0  0  0
   47.7167   52.0506   28.6061 N   0  0  0  0  0  0  0  0  0  0  0  0
  2  1  1  6  0  0  0
  2  3  1  0  0  0  0
  2  5  1  0  0  0  0
  3  4  1  0  0  0  0
  3 17  1  0  0  0  0
  5  6  1  0  0  0  0
  7  6  1  1  0  0  0
  7  8  1  0  0  0  0
  7  9  1  0  0  0  0
 10  9  1  1  0  0  0
 10 11  1  0  0  0  0
 10 12  1  0  0  0  0
 11 16  1  0  0  0  0
 12 13  1  6  0  0  0
 12 14  1  0  0  0  0
 14 15  1  1  0  0  0
 14 16  1  0  0  0  0
 16 27  1  6  0  0  0
 18 19  2  0  0  0  0
 18 23  1  0  0  0  0
 19 20  1  0  0  0  0
 20 21  2  0  0  0  0
 21 22  1  0  0  0  0
 21 27  1  0  0  0  0
 22 23  2  0  0  0  0
 22 25  1  0  0  0  0
 23 24  1  0  0  0  0
 25 26  2  0  0  0  0
 26 27  1  0  0  0  0
M  END
>  <CHROM.1>
-32.35619751,-170.02306595,-169.75616502,168.12049634,-84.62421387,160.21284587
-137.36509314,47.02115156,54.02631007,30.04247803,-1.80839377,-0.53951127
-2.29791641

>  <Name>
ligand

>  <RI>
0

>  <Rbt.Current_Directory>
/home/itssahil/PROJECTS/Mol_Feturizer/New_Systems/rnas/3IQN

>  <Rbt.Executable>
rbdock ($Id: //depot/dev/client3/rdock/2013.1/src/exe/rbdock.cxx#4 $)

>  <Rbt.Library>
libRbt.so (2013.1, Build901 2013/11/27)

>  <Rbt.Parameter_File>
/export/apps/rDock/src/rDock_2013.1_src/data/scripts/dock_solv.prm

>  <Rbt.Receptor>
prm/pocket_docking_6.prm

>  <SCORE>
-16.9472

>  <SCORE.INTER>
-12.5748

>  <SCORE.INTER.CONST>
1

>  <SCORE.INTER.POLAR>
0

>  <SCORE.INTER.ROT>
7

>  <SCORE.INTER.SOLV>
12.2747

>  <SCORE.INTER.VDW>
-20.7414

>  <SCORE.INTER.norm>
-0.465732

>  <SCORE.INTRA>
-4.37245

>  <SCORE.INTRA.DIHEDRAL>
-3.92161

>  <SCORE.INTRA.DIHEDRAL.0>
10.0365

>  <SCORE.INTRA.POLAR>
0

>  <SCORE.INTRA.POLAR.0>
0

>  <SCORE.INTRA.REPUL>
0

>  <SCORE.INTRA.REPUL.0>
0

>  <SCORE.INTRA.SOLV>
-0.965335

>  <SCORE.INTRA.SOLV.lig_0>
-48.6728

>  <SCORE.INTRA.VDW>
-1.92898

>  <SCORE.INTRA.VDW.0>
-1.10662

>  <SCORE.INTRA.norm>
-0.161943

>  <SCORE.RESTR>
0

>  <SCORE.RESTR.CAVITY>
0

>  <SCORE.RESTR.norm>
0

>  <SCORE.SYSTEM>
0

>  <SCORE.SYSTEM.CONST>
0

>  <SCORE.SYSTEM.DIHEDRAL>
0

>  <SCORE.SYSTEM.SOLV>
0

>  <SCORE.SYSTEM.norm>
0

>  <SCORE.heavy>
27

>  <SCORE.norm>
-0.627675

>  <RMSD>
7.330

$$$$
ligand
 OpenBabel11021811483D
libRbt.so/2013.1/901 2013/11/27
 27 29  0  0  0  0  0  0  0  0999 V2000
   48.2893   52.7660   35.0794 N   0  0  0  0  0  0  0  0  0  0  0  0
   49.0012   53.7239   35.9355 C   0  0  2  0  0  0  0  0  0  0  0  0
   48.3492   53.7303   37.2854 C   0  0  0  0  0  0  0  0  0  0  0  0
   48.9983   54.0331   38.2739 O   0  0  0  0  0  0  0  0  0  0  0  0
   48.9342   55.1335   35.3290 C   0  0  0  0  0  0  0  0  0  0  0  0
   49.6903   55.1381   34.0037 C   0  0  0  0  0  0  0  0  0  0  0  0
   49.2244   56.5158   32.9073 S   0  0  2  0  0  0  0  0  0  0  0  0
   49.7267   58.0112   33.8139 C   0  0  0  0  0  0  0  0  0  0  0  0
   47.4147   56.7812   32.9288 C   0  0  0  0  0  0  0  0  0  0  0  0
   47.1626   57.5259   31.6408 C   0  0  1  0  0  0  0  0  0  0  0  0
   47.2474   56.5407   30.6645 O   0  0  0  0  0  0  0  0  0  0  0  0
   45.8035   58.1495   31.3200 C   0  0  1  0  0  0  0  0  0  0  0  0
   45.7043   59.4750   31.7557 O   0  0  0  0  0  0  0  0  0  0  0  0
   45.8377   57.9873   29.7252 C   0  0  1  0  0  0  0  0  0  0  0  0
   46.9789   58.5820   29.0901 O   0  0  0  0  0  0  0  0  0  0  0  0
   45.9523   56.4964   29.9458 C   0  0  1  0  0  0  0  0  0  0  0  0
   47.1660   53.4471   37.3878 O   0  0  0  0  0  0  0  0  0  0  0  0
   47.6688   55.5684   25.3132 N   0  0  0  0  0  0  0  0  0  0  0  0
   47.4608   56.7166   25.9596 C   0  0  0  0  0  0  0  0  0  0  0  0
   47.0427   56.7457   27.2243 N   0  0  0  0  0  0  0  0  0  0  0  0
   46.6924   55.6207   27.8618 C   0  0  0  0  0  0  0  0  0  0  0  0
   46.8373   54.3714   27.1785 C   0  0  0  0  0  0  0  0  0  0  0  0
   47.3589   54.3979   25.8559 C   0  0  0  0  0  0  0  0  0  0  0  0
   47.5450   53.2478   25.1414 N   0  0  0  0  0  0  0  0  0  0  0  0
   46.4183   53.4077   28.0216 N   0  0  0  0  0  0  0  0  0  0  0  0
   46.0272   53.9548   29.1515 C   0  0  0  0  0  0  0  0  0  0  0  0
   46.1832   55.3190   29.1289 N   0  0  0  0  0  0  0  0  0  0  0  0
  2  1  1  6  0  0  0
  2  3  1  0  0  0  0
  2  5  1  0  0  0  0
  3  4  1  0  0  0  0
  3 17  1  0  0  0  0
  5  6  1  0  0  0  0
  7  6  1  1  0  0  0
  7  8  1  0  0  0  0
  7  9  1  0  0  0  0
 10  9  1  1  0  0  0
 10 11  1  0  0  0  0
 10 12  1  0  0  0  0
 11 16  1  0  0  0  0
 12 13  1  6  0  0  0
 12 14  1  0  0  0  0
 14 15  1  1  0  0  0
 14 16  1  0  0  0  0
 16 27  1  6  0  0  0
 18 19  2  0  0  0  0
 18 23  1  0  0  0  0
 19 20  1  0  0  0  0
 20 21  2  0  0  0  0
 21 22  1  0  0  0  0
 21 27  1  0  0  0  0
 22 23  2  0  0  0  0
 22 25  1  0  0  0  0
 23 24  1  0  0  0  0
 25 26  2  0  0  0  0
 26 27  1  0  0  0  0
M  END
>  <CHROM.1>
153.16227279,-64.88349781,159.71752347,63.68734139,-158.89221378,76.17691015
-93.32692151,47.53569729,55.75770383,31.24730720,-0.61449446,1.34535965,-2.40783115

>  <Name>
ligand

>  <RI>
0

>  <Rbt.Current_Directory>
/home/itssahil/PROJECTS/Mol_Feturizer/New_Systems/rnas/3IQN

>  <Rbt.Executable>
rbdock ($Id: //depot/dev/client3/rdock/2013.1/src/exe/rbdock.cxx#4 $)

>  <Rbt.Library>
libRbt.so (2013.1, Build901 2013/11/27)

>  <Rbt.Parameter_File>
/export/apps/rDock/src/rDock_2013.1_src/data/scripts/dock_solv.prm

>  <Rbt.Receptor>
prm/pocket_docking_6.prm

>  <SCORE>
-14.8447

>  <SCORE.INTER>
-12.7576

>  <SCORE.INTER.CONST>
1

>  <SCORE.INTER.POLAR>
0

>  <SCORE.INTER.ROT>
7

>  <SCORE.INTER.SOLV>
11.7459

>  <SCORE.INTER.VDW>
-20.687

>  <SCORE.INTER.norm>
-0.472503

>  <SCORE.INTRA>
-2.08709

>  <SCORE.INTRA.DIHEDRAL>
-2.30458

>  <SCORE.INTRA.DIHEDRAL.0>
10.0365

>  <SCORE.INTRA.POLAR>
0

>  <SCORE.INTRA.POLAR.0>
0

>  <SCORE.INTRA.REPUL>
0

>  <SCORE.INTRA.REPUL.0>
0

>  <SCORE.INTRA.SOLV>
-0.103804

>  <SCORE.INTRA.SOLV.lig_0>
-48.6728

>  <SCORE.INTRA.VDW>
-0.882895

>  <SCORE.INTRA.VDW.0>
-1.10662

>  <SCORE.INTRA.norm>
-0.0772996

>  <SCORE.RESTR>
0

>  <SCORE.RESTR.CAVITY>
0

>  <SCORE.RESTR.norm>
0

>  <SCORE.SYSTEM>
0

>  <SCORE.SYSTEM.CONST>
0

>  <SCORE.SYSTEM.DIHEDRAL>
0

>  <SCORE.SYSTEM.SOLV>
0

>  <SCORE.SYSTEM.norm>
0

>  <SCORE.heavy>
27

>  <SCORE.norm>
-0.549803

>  <RMSD>
7.331

$$$$
ligand
 OpenBabel11021811483D
libRbt.so/2013.1/901 2013/11/27
 27 29  0  0  0  0  0  0  0  0999 V2000
   48.7606   52.8325   37.9661 N   0  0  0  0  0  0  0  0  0  0  0  0
   47.4566   53.5084   37.9680 C   0  0  2  0  0  0  0  0  0  0  0  0
   46.9982   53.6521   39.3881 C   0  0  0  0  0  0  0  0  0  0  0  0
   47.7410   54.1468   40.2209 O   0  0  0  0  0  0  0  0  0  0  0  0
   46.4275   52.6843   37.1798 C   0  0  0  0  0  0  0  0  0  0  0  0
   46.9276   52.5065   35.7492 C   0  0  0  0  0  0  0  0  0  0  0  0
   46.8478   54.0322   34.7577 S   0  0  2  0  0  0  0  0  0  0  0  0
   45.1607   54.0467   34.0766 C   0  0  0  0  0  0  0  0  0  0  0  0
   47.7708   53.8389   33.1904 C   0  0  0  0  0  0  0  0  0  0  0  0
   48.3783   55.2041   32.9802 C   0  0  1  0  0  0  0  0  0  0  0  0
   49.2208   55.0293   31.8892 O   0  0  0  0  0  0  0  0  0  0  0  0
   47.5413   56.4000   32.5238 C   0  0  1  0  0  0  0  0  0  0  0  0
   47.0164   57.1289   33.5963 O   0  0  0  0  0  0  0  0  0  0  0  0
   48.6716   57.1794   31.6958 C   0  0  1  0  0  0  0  0  0  0  0  0
   49.8586   57.4794   32.4444 O   0  0  0  0  0  0  0  0  0  0  0  0
   48.7800   55.9536   30.8182 C   0  0  1  0  0  0  0  0  0  0  0  0
   45.8761   53.2872   39.7021 O   0  0  0  0  0  0  0  0  0  0  0  0
   48.5685   55.7924   25.7985 N   0  0  0  0  0  0  0  0  0  0  0  0
   47.6831   56.2155   26.7021 C   0  0  0  0  0  0  0  0  0  0  0  0
   47.9576   56.2222   28.0059 N   0  0  0  0  0  0  0  0  0  0  0  0
   49.0916   55.6850   28.4755 C   0  0  0  0  0  0  0  0  0  0  0  0
   50.0396   55.1584   27.5413 C   0  0  0  0  0  0  0  0  0  0  0  0
   49.7235   55.2469   26.1577 C   0  0  0  0  0  0  0  0  0  0  0  0
   50.5824   54.7840   25.2007 N   0  0  0  0  0  0  0  0  0  0  0  0
   51.0760   54.6790   28.2562 N   0  0  0  0  0  0  0  0  0  0  0  0
   50.8443   54.8601   29.5378 C   0  0  0  0  0  0  0  0  0  0  0  0
   49.6423   55.4907   29.7462 N   0  0  0  0  0  0  0  0  0  0  0  0
  2  1  1  1  0  0  0
  2  3  1  0  0  0  0
  2  5  1  0  0  0  0
  3  4  1  0  0  0  0
  3 17  1  0  0  0  0
  5  6  1  0  0  0  0
  7  6  1  1  0  0  0
  7  8  1  0  0  0  0
  7  9  1  0  0  0  0
 10  9  1  6  0  0  0
 10 11  1  0  0  0  0
 10 12  1  0  0  0  0
 11 16  1  0  0  0  0
 12 13  1  1  0  0  0
 12 14  1  0  0  0  0
 14 15  1  1  0  0  0
 14 16  1  0  0  0  0
 16 27  1  6  0  0  0
 18 19  2  0  0  0  0
 18 23  1  0  0  0  0
 19 20  1  0  0  0  0
 20 21  2  0  0  0  0
 21 22  1  0  0  0  0
 21 27  1  0  0  0  0
 22 23  2  0  0  0  0
 22 25  1  0  0  0  0
 23 24  1  0  0  0  0
 25 26  2  0  0  0  0
 26 27  1  0  0  0  0
M  END
>  <CHROM.1>
51.56001962,-58.89276517,-71.88244512,-86.52110075,-143.89352220,172.60483894
151.55378460,48.21301106,54.88044449,32.55367619,-1.81798365,0.37414477,-1.28920556

>  <Name>
ligand

>  <RI>
0

>  <Rbt.Current_Directory>
/home/itssahil/PROJECTS/Mol_Feturizer/New_Systems/rnas/3IQN

>  <Rbt.Executable>
rbdock ($Id: //depot/dev/client3/rdock/2013.1/src/exe/rbdock.cxx#4 $)

>  <Rbt.Library>
libRbt.so (2013.1, Build901 2013/11/27)

>  <Rbt.Parameter_File>
/export/apps/rDock/src/rDock_2013.1_src/data/scripts/dock_solv.prm

>  <Rbt.Receptor>
prm/pocket_docking_7.prm

>  <SCORE>
-9.26013

>  <SCORE.INTER>
-8.37664

>  <SCORE.INTER.CONST>
1

>  <SCORE.INTER.POLAR>
0

>  <SCORE.INTER.ROT>
7

>  <SCORE.INTER.SOLV>
14.9429

>  <SCORE.INTER.VDW>
-18.8321

>  <SCORE.INTER.norm>
-0.310246

>  <SCORE.INTRA>
-0.883485

>  <SCORE.INTRA.DIHEDRAL>
-1.603

>  <SCORE.INTRA.DIHEDRAL.0>
10.0365

>  <SCORE.INTRA.POLAR>
0

>  <SCORE.INTRA.POLAR.0>
0

>  <SCORE.INTRA.REPUL>
0

>  <SCORE.INTRA.REPUL.0>
0

>  <SCORE.INTRA.SOLV>
0.299145

>  <SCORE.INTRA.SOLV.lig_0>
-48.6728

>  <SCORE.INTRA.VDW>
-0.231556

>  <SCORE.INTRA.VDW.0>
-1.10662

>  <SCORE.INTRA.norm>
-0.0327217

>  <SCORE.RESTR>
0

>  <SCORE.RESTR.CAVITY>
0

>  <SCORE.RESTR.norm>
0

>  <SCORE.SYSTEM>
0

>  <SCORE.SYSTEM.CONST>
0

>  <SCORE.SYSTEM.DIHEDRAL>
0

>  <SCORE.SYSTEM.SOLV>
0

>  <SCORE.SYSTEM.norm>
0

>  <SCORE.heavy>
27

>  <SCORE.norm>
-0.342968

>  <RMSD>
7.336

$$$$
ligand
 OpenBabel11021811483D
libRbt.so/2013.1/901 2013/11/27
 27 29  0  0  0  0  0  0  0  0999 V2000
   40.9776   53.2324   31.3058 N   0  0  0  0  0  0  0  0  0  0  0  0
   41.4015   54.6131   31.0388 C   0  0  2  0  0  0  0  0  0  0  0  0
   41.2141   54.8934   29.5781 C   0  0  0  0  0  0  0  0  0  0  0  0
   41.1621   53.9693   28.7822 O   0  0  0  0  0  0  0  0  0  0  0  0
   42.8807   54.7980   31.4089 C   0  0  0  0  0  0  0  0  0  0  0  0
   43.0003   54.9127   32.9257 C   0  0  0  0  0  0  0  0  0  0  0  0
   44.6773   55.3440   33.4908 S   0  0  2  0  0  0  0  0  0  0  0  0
   45.1736   56.7353   32.4285 C   0  0  0  0  0  0  0  0  0  0  0  0
   45.8971   54.1111   32.9094 C   0  0  0  0  0  0  0  0  0  0  0  0
   47.0432   54.2813   33.8760 C   0  0  1  0  0  0  0  0  0  0  0  0
   46.4609   54.0808   35.1216 O   0  0  0  0  0  0  0  0  0  0  0  0
   48.2103   53.2942   33.9283 C   0  0  1  0  0  0  0  0  0  0  0  0
   49.2624   53.6610   33.0826 O   0  0  0  0  0  0  0  0  0  0  0  0
   48.5548   53.4157   35.4895 C   0  0  1  0  0  0  0  0  0  0  0  0
   48.8279   54.7515   35.9373 O   0  0  0  0  0  0  0  0  0  0  0  0
   47.1482   52.9388   35.7692 C   0  0  1  0  0  0  0  0  0  0  0  0
   41.0984   56.0461   29.1926 O   0  0  0  0  0  0  0  0  0  0  0  0
   47.6075   53.6034   40.7306 N   0  0  0  0  0  0  0  0  0  0  0  0
   48.4898   53.7434   39.7400 C   0  0  0  0  0  0  0  0  0  0  0  0
   48.1485   53.5661   38.4643 N   0  0  0  0  0  0  0  0  0  0  0  0
   46.9315   53.1158   38.1312 C   0  0  0  0  0  0  0  0  0  0  0  0
   45.9756   52.8885   39.1720 C   0  0  0  0  0  0  0  0  0  0  0  0
   46.3745   53.1665   40.5084 C   0  0  0  0  0  0  0  0  0  0  0  0
   45.5162   52.9931   41.5576 N   0  0  0  0  0  0  0  0  0  0  0  0
   44.8493   52.4397   38.5845 N   0  0  0  0  0  0  0  0  0  0  0  0
   45.0329   52.3679   37.2845 C   0  0  0  0  0  0  0  0  0  0  0  0
   46.2928   52.7854   36.9318 N   0  0  0  0  0  0  0  0  0  0  0  0
  2  1  1  6  0  0  0
  2  3  1  0  0  0  0
  2  5  1  0  0  0  0
  3  4  1  0  0  0  0
  3 17  1  0  0  0  0
  5  6  1  0  0  0  0
  7  6  1  6  0  0  0
  7  8  1  0  0  0  0
  7  9  1  0  0  0  0
 10  9  1  6  0  0  0
 10 11  1  0  0  0  0
 10 12  1  0  0  0  0
 11 16  1  0  0  0  0
 12 13  1  6  0  0  0
 12 14  1  0  0  0  0
 14 15  1  6  0  0  0
 14 16  1  0  0  0  0
 16 27  1  1  0  0  0
 18 19  2  0  0  0  0
 18 23  1  0  0  0  0
 19 20  1  0  0  0  0
 20 21  2  0  0  0  0
 21 22  1  0  0  0  0
 21 27  1  0  0  0  0
 22 23  2  0  0  0  0
 22 25  1  0  0  0  0
 23 24  1  0  0  0  0
 25 26  2  0  0  0  0
 26 27  1  0  0  0  0
M  END
>  <CHROM.1>
-21.73007120,-76.98053504,-172.77145525,47.35503728,-158.02119425,56.52958827
-112.15832106,45.42940086,54.02470761,34.88099926,2.10350233,-0.05691604
-1.34965092

>  <Name>
ligand

>  <RI>
0

>  <Rbt.Current_Directory>
/home/itssahil/PROJECTS/Mol_Feturizer/New_Systems/rnas/3IQN

>  <Rbt.Executable>
rbdock ($Id: //depot/dev/client3/rdock/2013.1/src/exe/rbdock.cxx#4 $)

>  <Rbt.Library>
libRbt.so (2013.1, Build901 2013/11/27)

>  <Rbt.Parameter_File>
/export/apps/rDock/src/rDock_2013.1_src/data/scripts/dock_solv.prm

>  <Rbt.Receptor>
prm/pocket_docking_8.prm

>  <SCORE>
-17.9996

>  <SCORE.INTER>
-15.8404

>  <SCORE.INTER.CONST>
1

>  <SCORE.INTER.POLAR>
0

>  <SCORE.INTER.ROT>
7

>  <SCORE.INTER.SOLV>
7.54395

>  <SCORE.INTER.VDW>
-21.3416

>  <SCORE.INTER.norm>
-0.586681

>  <SCORE.INTRA>
-2.15924

>  <SCORE.INTRA.DIHEDRAL>
-3.54845

>  <SCORE.INTRA.DIHEDRAL.0>
10.0365

>  <SCORE.INTRA.POLAR>
0

>  <SCORE.INTRA.POLAR.0>
0

>  <SCORE.INTRA.REPUL>
0

>  <SCORE.INTRA.REPUL.0>
0

>  <SCORE.INTRA.SOLV>
-0.388281

>  <SCORE.INTRA.SOLV.lig_0>
-48.6728

>  <SCORE.INTRA.VDW>
-0.190881

>  <SCORE.INTRA.VDW.0>
-1.10662

>  <SCORE.INTRA.norm>
-0.079972

>  <SCORE.RESTR>
0

>  <SCORE.RESTR.CAVITY>
0

>  <SCORE.RESTR.norm>
0

>  <SCORE.SYSTEM>
0

>  <SCORE.SYSTEM.CONST>
0

>  <SCORE.SYSTEM.DIHEDRAL>
0

>  <SCORE.SYSTEM.SOLV>
0

>  <SCORE.SYSTEM.norm>
0

>  <SCORE.heavy>
27

>  <SCORE.norm>
-0.666653

>  <RMSD>
7.339

$$$$
ligand
 OpenBabel11021811483D
libRbt.so/2013.1/901 2013/11/27
 27 29  0  0  0  0  0  0  0  0999 V2000
   47.7890   56.6110   33.9216 N   0  0  0  0  0  0  0  0  0  0  0  0
   48.8567   56.7290   32.9198 C   0  0  2  0  0  0  0  0  0  0  0  0
   49.7820   55.5594   33.0720 C   0  0  0  0  0  0  0  0  0  0  0  0
   50.0742   55.1546   34.1860 O   0  0  0  0  0  0  0  0  0  0  0  0
   49.6421   58.0324   33.1285 C   0  0  0  0  0  0  0  0  0  0  0  0
   48.6985   59.2152   32.9319 C   0  0  0  0  0  0  0  0  0  0  0  0
   48.1102   59.3970   31.2177 S   0  0  2  0  0  0  0  0  0  0  0  0
   46.7420   60.5912   31.3284 C   0  0  0  0  0  0  0  0  0  0  0  0
   47.1477   57.9298   30.7010 C   0  0  0  0  0  0  0  0  0  0  0  0
   47.0458   58.0969   29.2047 C   0  0  1  0  0  0  0  0  0  0  0  0
   48.2296   57.5483   28.7270 O   0  0  0  0  0  0  0  0  0  0  0  0
   46.0081   57.3390   28.3753 C   0  0  1  0  0  0  0  0  0  0  0  0
   44.8106   58.0484   28.2349 O   0  0  0  0  0  0  0  0  0  0  0  0
   46.8467   57.1981   27.0161 C   0  0  1  0  0  0  0  0  0  0  0  0
   47.3141   58.4414   26.4726 O   0  0  0  0  0  0  0  0  0  0  0  0
   47.8816   56.4362   27.8116 C   0  0  1  0  0  0  0  0  0  0  0  0
   50.2275   55.0064   32.0787 O   0  0  0  0  0  0  0  0  0  0  0  0
   50.4122   54.5375   23.9052 N   0  0  0  0  0  0  0  0  0  0  0  0
   49.1556   54.9726   24.0104 C   0  0  0  0  0  0  0  0  0  0  0  0
   48.6851   55.4960   25.1418 N   0  0  0  0  0  0  0  0  0  0  0  0
   49.4197   55.4923   26.2622 C   0  0  0  0  0  0  0  0  0  0  0  0
   50.7519   54.9718   26.2074 C   0  0  0  0  0  0  0  0  0  0  0  0
   51.2244   54.4950   24.9537 C   0  0  0  0  0  0  0  0  0  0  0  0
   52.4899   53.9989   24.8124 N   0  0  0  0  0  0  0  0  0  0  0  0
   51.2690   55.0751   27.4472 N   0  0  0  0  0  0  0  0  0  0  0  0
   50.3739   55.6048   28.2516 C   0  0  0  0  0  0  0  0  0  0  0  0
   49.2118   55.9022   27.5830 N   0  0  0  0  0  0  0  0  0  0  0  0
  2  1  1  1  0  0  0
  2  3  1  0  0  0  0
  2  5  1  0  0  0  0
  3  4  1  0  0  0  0
  3 17  1  0  0  0  0
  5  6  1  0  0  0  0
  7  6  1  1  0  0  0
  7  8  1  0  0  0  0
  7  9  1  0  0  0  0
 10  9  1  1  0  0  0
 10 11  1  0  0  0  0
 10 12  1  0  0  0  0
 11 16  1  0  0  0  0
 12 13  1  6  0  0  0
 12 14  1  0  0  0  0
 14 15  1  1  0  0  0
 14 16  1  0  0  0  0
 16 27  1  6  0  0  0
 18 19  2  0  0  0  0
 18 23  1  0  0  0  0
 19 20  1  0  0  0  0
 20 21  2  0  0  0  0
 21 22  1  0  0  0  0
 21 27  1  0  0  0  0
 22 23  2  0  0  0  0
 22 25  1  0  0  0  0
 23 24  1  0  0  0  0
 25 26  2  0  0  0  0
 26 27  1  0  0  0  0
M  END
>  <CHROM.1>
-39.62006668,-62.33470435,-67.11755752,167.26556026,-166.57771095,84.60732779
-141.06658359,48.74528708,56.77118337,29.07869523,-1.85851979,0.72220931
-1.73823769

>  <Name>
ligand

>  <RI>
0

>  <Rbt.Current_Directory>
/home/itssahil/PROJECTS/Mol_Feturizer/New_Systems/rnas/3IQN

>  <Rbt.Executable>
rbdock ($Id: //depot/dev/client3/rdock/2013.1/src/exe/rbdock.cxx#4 $)

>  <Rbt.Library>
libRbt.so (2013.1, Build901 2013/11/27)

>  <Rbt.Parameter_File>
/export/apps/rDock/src/rDock_2013.1_src/data/scripts/dock_solv.prm

>  <Rbt.Receptor>
prm/pocket_docking_8.prm

>  <SCORE>
-21.8243

>  <SCORE.INTER>
-18.9904

>  <SCORE.INTER.CONST>
1

>  <SCORE.INTER.POLAR>
0

>  <SCORE.INTER.ROT>
7

>  <SCORE.INTER.SOLV>
15.7807

>  <SCORE.INTER.VDW>
-26.1871

>  <SCORE.INTER.norm>
-0.703346

>  <SCORE.INTRA>
-2.8339

>  <SCORE.INTRA.DIHEDRAL>
-3.86183

>  <SCORE.INTRA.DIHEDRAL.0>
10.0365

>  <SCORE.INTRA.POLAR>
0

>  <SCORE.INTRA.POLAR.0>
0

>  <SCORE.INTRA.REPUL>
0

>  <SCORE.INTRA.REPUL.0>
0

>  <SCORE.INTRA.SOLV>
1.03181

>  <SCORE.INTRA.SOLV.lig_0>
-48.6728

>  <SCORE.INTRA.VDW>
-1.41889

>  <SCORE.INTRA.VDW.0>
-1.10662

>  <SCORE.INTRA.norm>
-0.104959

>  <SCORE.RESTR>
0

>  <SCORE.RESTR.CAVITY>
0

>  <SCORE.RESTR.norm>
0

>  <SCORE.SYSTEM>
0

>  <SCORE.SYSTEM.CONST>
0

>  <SCORE.SYSTEM.DIHEDRAL>
0

>  <SCORE.SYSTEM.SOLV>
0

>  <SCORE.SYSTEM.norm>
0

>  <SCORE.heavy>
27

>  <SCORE.norm>
-0.808306

>  <RMSD>
7.415

$$$$
ligand
 OpenBabel11021811483D
libRbt.so/2013.1/901 2013/11/27
 27 29  0  0  0  0  0  0  0  0999 V2000
   47.3740   58.2008   31.5847 N   0  0  0  0  0  0  0  0  0  0  0  0
   47.5079   57.9454   33.0249 C   0  0  2  0  0  0  0  0  0  0  0  0
   48.9255   58.2223   33.4266 C   0  0  0  0  0  0  0  0  0  0  0  0
   49.6157   58.9680   32.7501 O   0  0  0  0  0  0  0  0  0  0  0  0
   47.1638   56.4822   33.3414 C   0  0  0  0  0  0  0  0  0  0  0  0
   45.6627   56.2769   33.1596 C   0  0  0  0  0  0  0  0  0  0  0  0
   45.1469   54.5354   33.2948 S   0  0  2  0  0  0  0  0  0  0  0  0
   45.7043   54.0209   34.9487 C   0  0  0  0  0  0  0  0  0  0  0  0
   46.2333   53.4554   32.2951 C   0  0  0  0  0  0  0  0  0  0  0  0
   45.8996   53.8520   30.8779 C   0  0  1  0  0  0  0  0  0  0  0  0
   46.9982   53.4212   30.1441 O   0  0  0  0  0  0  0  0  0  0  0  0
   44.7502   53.2026   30.1058 C   0  0  1  0  0  0  0  0  0  0  0  0
   43.5414   53.8886   30.2642 O   0  0  0  0  0  0  0  0  0  0  0  0
   45.3687   53.3021   28.6299 C   0  0  1  0  0  0  0  0  0  0  0  0
   45.7392   54.6288   28.2272 O   0  0  0  0  0  0  0  0  0  0  0  0
   46.5187   52.4564   29.1267 C   0  0  1  0  0  0  0  0  0  0  0  0
   49.3788   57.7119   34.4389 O   0  0  0  0  0  0  0  0  0  0  0  0
   48.5448   51.6503   24.5975 N   0  0  0  0  0  0  0  0  0  0  0  0
   47.3197   52.0382   24.9557 C   0  0  0  0  0  0  0  0  0  0  0  0
   46.9930   52.2471   26.2304 N   0  0  0  0  0  0  0  0  0  0  0  0
   47.8481   51.9545   27.2193 C   0  0  0  0  0  0  0  0  0  0  0  0
   49.1515   51.4712   26.8786 C   0  0  0  0  0  0  0  0  0  0  0  0
   49.4679   51.3392   25.4985 C   0  0  0  0  0  0  0  0  0  0  0  0
   50.6961   50.9017   25.0888 N   0  0  0  0  0  0  0  0  0  0  0  0
   49.8069   51.2500   28.0348 N   0  0  0  0  0  0  0  0  0  0  0  0
   49.0218   51.5485   29.0464 C   0  0  0  0  0  0  0  0  0  0  0  0
   47.8004   52.0054   28.6160 N   0  0  0  0  0  0  0  0  0  0  0  0
  2  1  1  6  0  0  0
  2  3  1  0  0  0  0
  2  5  1  0  0  0  0
  3  4  1  0  0  0  0
  3 17  1  0  0  0  0
  5  6  1  0  0  0  0
  7  6  1  6  0  0  0
  7  8  1  0  0  0  0
  7  9  1  0  0  0  0
 10  9  1  1  0  0  0
 10 11  1  0  0  0  0
 10 12  1  0  0  0  0
 11 16  1  0  0  0  0
 12 13  1  6  0  0  0
 12 14  1  0  0  0  0
 14 15  1  1  0  0  0
 14 16  1  0  0  0  0
 16 27  1  6  0  0  0
 18 19  2  0  0  0  0
 18 23  1  0  0  0  0
 19 20  1  0  0  0  0
 20 21  2  0  0  0  0
 21 22  1  0  0  0  0
 21 27  1  0  0  0  0
 22 23  2  0  0  0  0
 22 25  1  0  0  0  0
 23 24  1  0  0  0  0
 25 26  2  0  0  0  0
 26 27  1  0  0  0  0
M  END
>  <CHROM.1>
23.08240023,-70.53522641,172.58332871,57.91478880,-68.12711005,159.70008600
-134.48621340,47.20430433,54.06837223,30.10700024,-1.73646396,-0.43474128
-2.25815603

>  <Name>
ligand

>  <RI>
0

>  <Rbt.Current_Directory>
/home/itssahil/PROJECTS/Mol_Feturizer/New_Systems/rnas/3IQN

>  <Rbt.Executable>
rbdock ($Id: //depot/dev/client3/rdock/2013.1/src/exe/rbdock.cxx#4 $)

>  <Rbt.Library>
libRbt.so (2013.1, Build901 2013/11/27)

>  <Rbt.Parameter_File>
/export/apps/rDock/src/rDock_2013.1_src/data/scripts/dock_solv.prm

>  <Rbt.Receptor>
prm/pocket_docking_7.prm

>  <SCORE>
-17.9052

>  <SCORE.INTER>
-14.5199

>  <SCORE.INTER.CONST>
1

>  <SCORE.INTER.POLAR>
0

>  <SCORE.INTER.ROT>
7

>  <SCORE.INTER.SOLV>
10.6274

>  <SCORE.INTER.VDW>
-21.4891

>  <SCORE.INTER.norm>
-0.537776

>  <SCORE.INTRA>
-3.3853

>  <SCORE.INTRA.DIHEDRAL>
-5.0843

>  <SCORE.INTRA.DIHEDRAL.0>
10.0365

>  <SCORE.INTRA.POLAR>
0

>  <SCORE.INTRA.POLAR.0>
0

>  <SCORE.INTRA.REPUL>
0

>  <SCORE.INTRA.REPUL.0>
0

>  <SCORE.INTRA.SOLV>
-0.33062

>  <SCORE.INTRA.SOLV.lig_0>
-48.6728

>  <SCORE.INTRA.VDW>
-0.67784

>  <SCORE.INTRA.VDW.0>
-1.10662

>  <SCORE.INTRA.norm>
-0.125382

>  <SCORE.RESTR>
0

>  <SCORE.RESTR.CAVITY>
0

>  <SCORE.RESTR.norm>
0

>  <SCORE.SYSTEM>
0

>  <SCORE.SYSTEM.CONST>
0

>  <SCORE.SYSTEM.DIHEDRAL>
0

>  <SCORE.SYSTEM.SOLV>
0

>  <SCORE.SYSTEM.norm>
0

>  <SCORE.heavy>
27

>  <SCORE.norm>
-0.663157

>  <RMSD>
7.416

$$$$
ligand
 OpenBabel11021811483D
libRbt.so/2013.1/901 2013/11/27
 27 29  0  0  0  0  0  0  0  0999 V2000
   46.3111   60.1782   30.9567 N   0  0  0  0  0  0  0  0  0  0  0  0
   46.8481   59.1558   31.8642 C   0  0  2  0  0  0  0  0  0  0  0  0
   48.2319   59.5630   32.2727 C   0  0  0  0  0  0  0  0  0  0  0  0
   48.6851   59.1914   33.3435 O   0  0  0  0  0  0  0  0  0  0  0  0
   46.9040   57.7926   31.1586 C   0  0  0  0  0  0  0  0  0  0  0  0
   47.8835   57.8796   29.9918 C   0  0  0  0  0  0  0  0  0  0  0  0
   48.1761   56.2811   29.1693 S   0  0  2  0  0  0  0  0  0  0  0  0
   49.5561   56.6007   28.0275 C   0  0  0  0  0  0  0  0  0  0  0  0
   46.8741   55.9383   27.9312 C   0  0  0  0  0  0  0  0  0  0  0  0
   46.8117   54.4308   27.9084 C   0  0  1  0  0  0  0  0  0  0  0  0
   48.0895   54.0505   27.5166 O   0  0  0  0  0  0  0  0  0  0  0  0
   46.6331   53.6094   29.1861 C   0  0  1  0  0  0  0  0  0  0  0  0
   45.2885   53.3615   29.4817 O   0  0  0  0  0  0  0  0  0  0  0  0
   47.4563   52.3053   28.7476 C   0  0  1  0  0  0  0  0  0  0  0  0
   47.0041   51.6968   27.5291 O   0  0  0  0  0  0  0  0  0  0  0  0
   48.6625   53.2018   28.5876 C   0  0  1  0  0  0  0  0  0  0  0  0
   48.9061   60.2527   31.5240 O   0  0  0  0  0  0  0  0  0  0  0  0
   51.0057   50.3856   25.1456 N   0  0  0  0  0  0  0  0  0  0  0  0
   49.7385   50.3903   25.5623 C   0  0  0  0  0  0  0  0  0  0  0  0
   49.2981   51.2671   26.4638 N   0  0  0  0  0  0  0  0  0  0  0  0
   50.1419   52.1025   27.0841 C   0  0  0  0  0  0  0  0  0  0  0  0
   51.5242   52.0821   26.7130 C   0  0  0  0  0  0  0  0  0  0  0  0
   51.9212   51.1758   25.6916 C   0  0  0  0  0  0  0  0  0  0  0  0
   53.2182   51.1066   25.2668 N   0  0  0  0  0  0  0  0  0  0  0  0
   52.1527   52.9982   27.4752 N   0  0  0  0  0  0  0  0  0  0  0  0
   51.2828   53.5697   28.2786 C   0  0  0  0  0  0  0  0  0  0  0  0
   50.0168   53.0757   28.0807 N   0  0  0  0  0  0  0  0  0  0  0  0
  2  1  1  6  0  0  0
  2  3  1  0  0  0  0
  2  5  1  0  0  0  0
  3  4  1  0  0  0  0
  3 17  1  0  0  0  0
  5  6  1  0  0  0  0
  7  6  1  6  0  0  0
  7  8  1  0  0  0  0
  7  9  1  0  0  0  0
 10  9  1  1  0  0  0
 10 11  1  0  0  0  0
 10 12  1  0  0  0  0
 11 16  1  0  0  0  0
 12 13  1  6  0  0  0
 12 14  1  0  0  0  0
 14 15  1  6  0  0  0
 14 16  1  0  0  0  0
 16 27  1  6  0  0  0
 18 19  2  0  0  0  0
 18 23  1  0  0  0  0
 19 20  1  0  0  0  0
 20 21  2  0  0  0  0
 21 22  1  0  0  0  0
 21 27  1  0  0  0  0
 22 23  2  0  0  0  0
 22 25  1  0  0  0  0
 23 24  1  0  0  0  0
 25 26  2  0  0  0  0
 26 27  1  0  0  0  0
M  END
>  <CHROM.1>
152.87409791,63.92492028,174.08269617,-170.93451581,-151.02521288,-60.41633790
-80.87656763,48.74665869,54.73709784,28.63540767,1.89819087,0.18805471,0.52947284

>  <Name>
ligand

>  <RI>
0

>  <Rbt.Current_Directory>
/home/itssahil/PROJECTS/Mol_Feturizer/New_Systems/rnas/3IQN

>  <Rbt.Executable>
rbdock ($Id: //depot/dev/client3/rdock/2013.1/src/exe/rbdock.cxx#4 $)

>  <Rbt.Library>
libRbt.so (2013.1, Build901 2013/11/27)

>  <Rbt.Parameter_File>
/export/apps/rDock/src/rDock_2013.1_src/data/scripts/dock_solv.prm

>  <Rbt.Receptor>
prm/pocket_docking_8.prm

>  <SCORE>
-11.9824

>  <SCORE.INTER>
-10.5835

>  <SCORE.INTER.CONST>
1

>  <SCORE.INTER.POLAR>
0

>  <SCORE.INTER.ROT>
7

>  <SCORE.INTER.SOLV>
15.9142

>  <SCORE.INTER.VDW>
-20.6271

>  <SCORE.INTER.norm>
-0.391981

>  <SCORE.INTRA>
-1.39889

>  <SCORE.INTRA.DIHEDRAL>
-3.16256

>  <SCORE.INTRA.DIHEDRAL.0>
10.0365

>  <SCORE.INTRA.POLAR>
0

>  <SCORE.INTRA.POLAR.0>
0

>  <SCORE.INTRA.REPUL>
0

>  <SCORE.INTRA.REPUL.0>
0

>  <SCORE.INTRA.SOLV>
0.110493

>  <SCORE.INTRA.SOLV.lig_0>
-48.6728

>  <SCORE.INTRA.VDW>
0.127137

>  <SCORE.INTRA.VDW.0>
-1.10662

>  <SCORE.INTRA.norm>
-0.0518109

>  <SCORE.RESTR>
0

>  <SCORE.RESTR.CAVITY>
0

>  <SCORE.RESTR.norm>
0

>  <SCORE.SYSTEM>
0

>  <SCORE.SYSTEM.CONST>
0

>  <SCORE.SYSTEM.DIHEDRAL>
0

>  <SCORE.SYSTEM.SOLV>
0

>  <SCORE.SYSTEM.norm>
0

>  <SCORE.heavy>
27

>  <SCORE.norm>
-0.443792

>  <RMSD>
7.423

$$$$
ligand
 OpenBabel11021811483D
libRbt.so/2013.1/901 2013/11/27
 27 29  0  0  0  0  0  0  0  0999 V2000
   47.3429   57.1819   33.7097 N   0  0  0  0  0  0  0  0  0  0  0  0
   46.0154   56.6464   33.3805 C   0  0  2  0  0  0  0  0  0  0  0  0
   45.9950   55.1861   33.7189 C   0  0  0  0  0  0  0  0  0  0  0  0
   45.0678   54.7232   34.3640 O   0  0  0  0  0  0  0  0  0  0  0  0
   45.7231   56.8280   31.8835 C   0  0  0  0  0  0  0  0  0  0  0  0
   44.4232   56.1054   31.5423 C   0  0  0  0  0  0  0  0  0  0  0  0
   44.0754   56.0427   29.7555 S   0  0  2  0  0  0  0  0  0  0  0  0
   42.9650   54.6153   29.5561 C   0  0  0  0  0  0  0  0  0  0  0  0
   45.5169   55.3952   28.8343 C   0  0  0  0  0  0  0  0  0  0  0  0
   46.4639   56.5698   28.8106 C   0  0  1  0  0  0  0  0  0  0  0  0
   47.6552   56.0277   28.3441 O   0  0  0  0  0  0  0  0  0  0  0  0
   46.2721   57.7439   27.8495 C   0  0  1  0  0  0  0  0  0  0  0  0
   45.4929   58.7669   28.4000 O   0  0  0  0  0  0  0  0  0  0  0  0
   47.8129   58.1360   27.6426 C   0  0  1  0  0  0  0  0  0  0  0  0
   48.5252   58.4147   28.8569 O   0  0  0  0  0  0  0  0  0  0  0  0
   48.0261   56.7417   27.0997 C   0  0  1  0  0  0  0  0  0  0  0  0
   46.8998   54.4625   33.3337 O   0  0  0  0  0  0  0  0  0  0  0  0
   49.5015   54.4200   22.8924 N   0  0  0  0  0  0  0  0  0  0  0  0
   48.4048   55.1281   23.1669 C   0  0  0  0  0  0  0  0  0  0  0  0
   48.2244   55.7147   24.3495 N   0  0  0  0  0  0  0  0  0  0  0  0
   49.0823   55.5128   25.3585 C   0  0  0  0  0  0  0  0  0  0  0  0
   50.2389   54.7029   25.1239 C   0  0  0  0  0  0  0  0  0  0  0  0
   50.4156   54.1645   23.8196 C   0  0  0  0  0  0  0  0  0  0  0  0
   51.5019   53.3959   23.5084 N   0  0  0  0  0  0  0  0  0  0  0  0
   50.9280   54.6517   26.2805 N   0  0  0  0  0  0  0  0  0  0  0  0
   50.2958   55.3504   27.1975 C   0  0  0  0  0  0  0  0  0  0  0  0
   49.1543   55.9237   26.6933 N   0  0  0  0  0  0  0  0  0  0  0  0
  2  1  1  6  0  0  0
  2  3  1  0  0  0  0
  2  5  1  0  0  0  0
  3  4  1  0  0  0  0
  3 17  1  0  0  0  0
  5  6  1  0  0  0  0
  7  6  1  1  0  0  0
  7  8  1  0  0  0  0
  7  9  1  0  0  0  0
 10  9  1  6  0  0  0
 10 11  1  0  0  0  0
 10 12  1  0  0  0  0
 11 16  1  0  0  0  0
 12 13  1  1  0  0  0
 12 14  1  0  0  0  0
 14 15  1  1  0  0  0
 14 16  1  0  0  0  0
 16 27  1  1  0  0  0
 18 19  2  0  0  0  0
 18 23  1  0  0  0  0
 19 20  1  0  0  0  0
 20 21  2  0  0  0  0
 21 22  1  0  0  0  0
 21 27  1  0  0  0  0
 22 23  2  0  0  0  0
 22 25  1  0  0  0  0
 23 24  1  0  0  0  0
 25 26  2  0  0  0  0
 26 27  1  0  0  0  0
M  END
>  <CHROM.1>
131.83796707,172.80713464,-171.97656661,156.78069038,-76.53107992,169.09996743
130.10351690,47.25155518,55.90254127,28.53052726,-2.11488073,0.32954880,-1.50468021

>  <Name>
ligand

>  <RI>
0

>  <Rbt.Current_Directory>
/home/itssahil/PROJECTS/Mol_Feturizer/New_Systems/rnas/3IQN

>  <Rbt.Executable>
rbdock ($Id: //depot/dev/client3/rdock/2013.1/src/exe/rbdock.cxx#4 $)

>  <Rbt.Library>
libRbt.so (2013.1, Build901 2013/11/27)

>  <Rbt.Parameter_File>
/export/apps/rDock/src/rDock_2013.1_src/data/scripts/dock_solv.prm

>  <Rbt.Receptor>
prm/pocket_docking_6.prm

>  <SCORE>
-14.1957

>  <SCORE.INTER>
-10.1267

>  <SCORE.INTER.CONST>
1

>  <SCORE.INTER.POLAR>
0

>  <SCORE.INTER.ROT>
7

>  <SCORE.INTER.SOLV>
13.0027

>  <SCORE.INTER.VDW>
-19.352

>  <SCORE.INTER.norm>
-0.375063

>  <SCORE.INTRA>
-4.07292

>  <SCORE.INTRA.DIHEDRAL>
-5.05128

>  <SCORE.INTRA.DIHEDRAL.0>
10.0365

>  <SCORE.INTRA.POLAR>
0

>  <SCORE.INTRA.POLAR.0>
0

>  <SCORE.INTRA.REPUL>
0

>  <SCORE.INTRA.REPUL.0>
0

>  <SCORE.INTRA.SOLV>
-0.908488

>  <SCORE.INTRA.SOLV.lig_0>
-48.6728

>  <SCORE.INTRA.VDW>
-1.09303

>  <SCORE.INTRA.VDW.0>
-1.10662

>  <SCORE.INTRA.norm>
-0.150849

>  <SCORE.RESTR>
0.00397896

>  <SCORE.RESTR.CAVITY>
0.00397896

>  <SCORE.RESTR.norm>
0.000147369

>  <SCORE.SYSTEM>
0

>  <SCORE.SYSTEM.CONST>
0

>  <SCORE.SYSTEM.DIHEDRAL>
0

>  <SCORE.SYSTEM.SOLV>
0

>  <SCORE.SYSTEM.norm>
0

>  <SCORE.heavy>
27

>  <SCORE.norm>
-0.525765

>  <RMSD>
7.545

$$$$
ligand
 OpenBabel11021811483D
libRbt.so/2013.1/901 2013/11/27
 27 29  0  0  0  0  0  0  0  0999 V2000
   45.1536   55.2348   33.6260 N   0  0  0  0  0  0  0  0  0  0  0  0
   43.7650   55.0441   33.1872 C   0  0  2  0  0  0  0  0  0  0  0  0
   42.9483   54.6142   34.3686 C   0  0  0  0  0  0  0  0  0  0  0  0
   43.4810   54.0243   35.2952 O   0  0  0  0  0  0  0  0  0  0  0  0
   43.6937   53.9645   32.0968 C   0  0  0  0  0  0  0  0  0  0  0  0
   44.4115   54.4730   30.8500 C   0  0  0  0  0  0  0  0  0  0  0  0
   43.6566   55.9697   30.1378 S   0  0  2  0  0  0  0  0  0  0  0  0
   42.0349   55.4165   29.5257 C   0  0  0  0  0  0  0  0  0  0  0  0
   44.4253   56.3847   28.5307 C   0  0  0  0  0  0  0  0  0  0  0  0
   45.8098   56.8406   28.9211 C   0  0  1  0  0  0  0  0  0  0  0  0
   46.6449   56.1547   28.0476 O   0  0  0  0  0  0  0  0  0  0  0  0
   46.2757   58.2821   28.7112 C   0  0  1  0  0  0  0  0  0  0  0  0
   46.0207   59.0958   29.8201 O   0  0  0  0  0  0  0  0  0  0  0  0
   47.8323   57.9944   28.4567 C   0  0  1  0  0  0  0  0  0  0  0  0
   48.4817   57.2598   29.5045 O   0  0  0  0  0  0  0  0  0  0  0  0
   47.4152   57.1546   27.2713 C   0  0  1  0  0  0  0  0  0  0  0  0
   41.7551   54.8704   34.4055 O   0  0  0  0  0  0  0  0  0  0  0  0
   51.7860   54.6862   27.0041 N   0  0  0  0  0  0  0  0  0  0  0  0
   51.3047   55.5237   27.9241 C   0  0  0  0  0  0  0  0  0  0  0  0
   50.0799   56.0401   27.8326 N   0  0  0  0  0  0  0  0  0  0  0  0
   49.3246   55.8376   26.7447 C   0  0  0  0  0  0  0  0  0  0  0  0
   49.8331   54.9980   25.7031 C   0  0  0  0  0  0  0  0  0  0  0  0
   51.1165   54.4151   25.8910 C   0  0  0  0  0  0  0  0  0  0  0  0
   51.6663   53.5875   24.9526 N   0  0  0  0  0  0  0  0  0  0  0  0
   48.8988   54.9600   24.7331 N   0  0  0  0  0  0  0  0  0  0  0  0
   47.8723   55.7023   25.0854 C   0  0  0  0  0  0  0  0  0  0  0  0
   48.0603   56.2630   26.3248 N   0  0  0  0  0  0  0  0  0  0  0  0
  2  1  1  1  0  0  0
  2  3  1  0  0  0  0
  2  5  1  0  0  0  0
  3  4  1  0  0  0  0
  3 17  1  0  0  0  0
  5  6  1  0  0  0  0
  7  6  1  6  0  0  0
  7  8  1  0  0  0  0
  7  9  1  0  0  0  0
 10  9  1  6  0  0  0
 10 11  1  0  0  0  0
 10 12  1  0  0  0  0
 11 16  1  0  0  0  0
 12 13  1  1  0  0  0
 12 14  1  0  0  0  0
 14 15  1  1  0  0  0
 14 16  1  0  0  0  0
 16 27  1  1  0  0  0
 18 19  2  0  0  0  0
 18 23  1  0  0  0  0
 19 20  1  0  0  0  0
 20 21  2  0  0  0  0
 21 22  1  0  0  0  0
 21 27  1  0  0  0  0
 22 23  2  0  0  0  0
 22 25  1  0  0  0  0
 23 24  1  0  0  0  0
 25 26  2  0  0  0  0
 26 27  1  0  0  0  0
M  END
>  <CHROM.1>
-26.64675882,-66.31457311,-61.81535598,-67.08513827,-69.82914001,132.47688983
-92.85699233,46.55613855,55.75708173,29.22432432,-2.47119901,0.43040941,-1.03350524

>  <Name>
ligand

>  <RI>
0

>  <Rbt.Current_Directory>
/home/itssahil/PROJECTS/Mol_Feturizer/New_Systems/rnas/3IQN

>  <Rbt.Executable>
rbdock ($Id: //depot/dev/client3/rdock/2013.1/src/exe/rbdock.cxx#4 $)

>  <Rbt.Library>
libRbt.so (2013.1, Build901 2013/11/27)

>  <Rbt.Parameter_File>
/export/apps/rDock/src/rDock_2013.1_src/data/scripts/dock_solv.prm

>  <Rbt.Receptor>
prm/pocket_docking_7.prm

>  <SCORE>
-15.3514

>  <SCORE.INTER>
-12.9926

>  <SCORE.INTER.CONST>
1

>  <SCORE.INTER.POLAR>
0

>  <SCORE.INTER.ROT>
7

>  <SCORE.INTER.SOLV>
10.6838

>  <SCORE.INTER.VDW>
-20.4896

>  <SCORE.INTER.norm>
-0.481207

>  <SCORE.INTRA>
-2.35886

>  <SCORE.INTRA.DIHEDRAL>
-2.15375

>  <SCORE.INTRA.DIHEDRAL.0>
10.0365

>  <SCORE.INTRA.POLAR>
0

>  <SCORE.INTRA.POLAR.0>
0

>  <SCORE.INTRA.REPUL>
0

>  <SCORE.INTRA.REPUL.0>
0

>  <SCORE.INTRA.SOLV>
0.368877

>  <SCORE.INTRA.SOLV.lig_0>
-48.6728

>  <SCORE.INTRA.VDW>
-1.46642

>  <SCORE.INTRA.VDW.0>
-1.10662

>  <SCORE.INTRA.norm>
-0.0873651

>  <SCORE.RESTR>
0

>  <SCORE.RESTR.CAVITY>
0

>  <SCORE.RESTR.norm>
0

>  <SCORE.SYSTEM>
0

>  <SCORE.SYSTEM.CONST>
0

>  <SCORE.SYSTEM.DIHEDRAL>
0

>  <SCORE.SYSTEM.SOLV>
0

>  <SCORE.SYSTEM.norm>
0

>  <SCORE.heavy>
27

>  <SCORE.norm>
-0.568572

>  <RMSD>
7.581

$$$$
ligand
 OpenBabel11021811483D
libRbt.so/2013.1/901 2013/11/27
 27 29  0  0  0  0  0  0  0  0999 V2000
   47.9058   55.1317   33.2862 N   0  0  0  0  0  0  0  0  0  0  0  0
   47.4836   56.5023   32.9689 C   0  0  2  0  0  0  0  0  0  0  0  0
   48.4298   57.4565   33.6334 C   0  0  0  0  0  0  0  0  0  0  0  0
   48.4279   58.6356   33.3172 O   0  0  0  0  0  0  0  0  0  0  0  0
   46.0585   56.7540   33.4839 C   0  0  0  0  0  0  0  0  0  0  0  0
   45.0859   55.8852   32.6918 C   0  0  0  0  0  0  0  0  0  0  0  0
   45.0248   56.2961   30.9184 S   0  0  2  0  0  0  0  0  0  0  0  0
   43.7514   55.1896   30.2368 C   0  0  0  0  0  0  0  0  0  0  0  0
   46.4764   55.6109   30.0413 C   0  0  0  0  0  0  0  0  0  0  0  0
   46.8319   56.7031   29.0627 C   0  0  1  0  0  0  0  0  0  0  0  0
   48.0284   56.2721   28.5029 O   0  0  0  0  0  0  0  0  0  0  0  0
   45.9949   56.9713   27.8111 C   0  0  1  0  0  0  0  0  0  0  0  0
   44.9835   57.9119   28.0326 O   0  0  0  0  0  0  0  0  0  0  0  0
   47.1673   57.4881   26.8471 C   0  0  1  0  0  0  0  0  0  0  0  0
   47.9177   58.5973   27.3631 O   0  0  0  0  0  0  0  0  0  0  0  0
   47.8287   56.1430   27.0403 C   0  0  1  0  0  0  0  0  0  0  0  0
   49.1884   57.0521   34.5004 O   0  0  0  0  0  0  0  0  0  0  0  0
   50.0785   54.6183   22.8115 N   0  0  0  0  0  0  0  0  0  0  0  0
   48.8741   55.1512   23.0231 C   0  0  0  0  0  0  0  0  0  0  0  0
   48.4809   55.5416   24.2348 N   0  0  0  0  0  0  0  0  0  0  0  0
   49.2335   55.2991   25.3164 C   0  0  0  0  0  0  0  0  0  0  0  0
   50.5056   54.6673   25.1394 C   0  0  0  0  0  0  0  0  0  0  0  0
   50.9030   54.3410   23.8135 C   0  0  0  0  0  0  0  0  0  0  0  0
   52.1094   53.7525   23.5570 N   0  0  0  0  0  0  0  0  0  0  0  0
   51.0550   54.5331   26.3622 N   0  0  0  0  0  0  0  0  0  0  0  0
   50.2335   55.0195   27.2664 C   0  0  0  0  0  0  0  0  0  0  0  0
   49.0940   55.5241   26.6896 N   0  0  0  0  0  0  0  0  0  0  0  0
  2  1  1  1  0  0  0
  2  3  1  0  0  0  0
  2  5  1  0  0  0  0
  3  4  1  0  0  0  0
  3 17  1  0  0  0  0
  5  6  1  0  0  0  0
  7  6  1  1  0  0  0
  7  8  1  0  0  0  0
  7  9  1  0  0  0  0
 10  9  1  1  0  0  0
 10 11  1  0  0  0  0
 10 12  1  0  0  0  0
 11 16  1  0  0  0  0
 12 13  1  1  0  0  0
 12 14  1  0  0  0  0
 14 15  1  1  0  0  0
 14 16  1  0  0  0  0
 16 27  1  6  0  0  0
 18 19  2  0  0  0  0
 18 23  1  0  0  0  0
 19 20  1  0  0  0  0
 20 21  2  0  0  0  0
 21 22  1  0  0  0  0
 21 27  1  0  0  0  0
 22 23  2  0  0  0  0
 22 25  1  0  0  0  0
 23 24  1  0  0  0  0
 25 26  2  0  0  0  0
 26 27  1  0  0  0  0
M  END
>  <CHROM.1>
166.59770647,-66.87266897,-63.48372638,-177.28178245,-140.87300845,172.92306884
-178.27998722,47.84464681,56.10357929,28.67084984,-1.95456421,0.20453030
-1.70071634

>  <Name>
ligand

>  <RI>
0

>  <Rbt.Current_Directory>
/home/itssahil/PROJECTS/Mol_Feturizer/New_Systems/rnas/3IQN

>  <Rbt.Executable>
rbdock ($Id: //depot/dev/client3/rdock/2013.1/src/exe/rbdock.cxx#4 $)

>  <Rbt.Library>
libRbt.so (2013.1, Build901 2013/11/27)

>  <Rbt.Parameter_File>
/export/apps/rDock/src/rDock_2013.1_src/data/scripts/dock_solv.prm

>  <Rbt.Receptor>
prm/pocket_docking_7.prm

>  <SCORE>
-15.6458

>  <SCORE.INTER>
-13.2758

>  <SCORE.INTER.CONST>
1

>  <SCORE.INTER.POLAR>
0

>  <SCORE.INTER.ROT>
7

>  <SCORE.INTER.SOLV>
8.20012

>  <SCORE.INTER.VDW>
-19.8506

>  <SCORE.INTER.norm>
-0.491697

>  <SCORE.INTRA>
-2.36999

>  <SCORE.INTRA.DIHEDRAL>
-2.455

>  <SCORE.INTRA.DIHEDRAL.0>
10.0365

>  <SCORE.INTRA.POLAR>
0

>  <SCORE.INTRA.POLAR.0>
0

>  <SCORE.INTRA.REPUL>
0

>  <SCORE.INTRA.REPUL.0>
0

>  <SCORE.INTRA.SOLV>
1.11085

>  <SCORE.INTRA.SOLV.lig_0>
-48.6728

>  <SCORE.INTRA.VDW>
-1.69792

>  <SCORE.INTRA.VDW.0>
-1.10662

>  <SCORE.INTRA.norm>
-0.0877776

>  <SCORE.RESTR>
0

>  <SCORE.RESTR.CAVITY>
0

>  <SCORE.RESTR.norm>
0

>  <SCORE.SYSTEM>
0

>  <SCORE.SYSTEM.CONST>
0

>  <SCORE.SYSTEM.DIHEDRAL>
0

>  <SCORE.SYSTEM.SOLV>
0

>  <SCORE.SYSTEM.norm>
0

>  <SCORE.heavy>
27

>  <SCORE.norm>
-0.579474

>  <RMSD>
7.595

$$$$
ligand
 OpenBabel11021811483D
libRbt.so/2013.1/901 2013/11/27
 27 29  0  0  0  0  0  0  0  0999 V2000
   47.9835   53.2560   37.1993 N   0  0  0  0  0  0  0  0  0  0  0  0
   47.5817   53.8270   35.9071 C   0  0  2  0  0  0  0  0  0  0  0  0
   47.1396   52.7095   35.0110 C   0  0  0  0  0  0  0  0  0  0  0  0
   47.8409   51.7187   34.8814 O   0  0  0  0  0  0  0  0  0  0  0  0
   48.7632   54.5644   35.2593 C   0  0  0  0  0  0  0  0  0  0  0  0
   48.2946   55.1964   33.9519 C   0  0  0  0  0  0  0  0  0  0  0  0
   49.6445   55.9388   32.9802 S   0  0  2  0  0  0  0  0  0  0  0  0
   49.6885   57.6777   33.5135 C   0  0  0  0  0  0  0  0  0  0  0  0
   49.1292   56.2008   31.2447 C   0  0  0  0  0  0  0  0  0  0  0  0
   49.0104   54.7959   30.7070 C   0  0  1  0  0  0  0  0  0  0  0  0
   49.7524   54.8250   29.5326 O   0  0  0  0  0  0  0  0  0  0  0  0
   49.6345   53.5993   31.4264 C   0  0  1  0  0  0  0  0  0  0  0  0
   48.7572   53.0035   32.3386 O   0  0  0  0  0  0  0  0  0  0  0  0
   49.9577   52.6928   30.1440 C   0  0  1  0  0  0  0  0  0  0  0  0
   48.8238   52.4154   29.3092 O   0  0  0  0  0  0  0  0  0  0  0  0
   50.8352   53.8202   29.6509 C   0  0  1  0  0  0  0  0  0  0  0  0
   46.0708   52.7889   34.4260 O   0  0  0  0  0  0  0  0  0  0  0  0
   52.1259   51.3950   25.4412 N   0  0  0  0  0  0  0  0  0  0  0  0
   51.4620   50.9850   26.5231 C   0  0  0  0  0  0  0  0  0  0  0  0
   51.1725   51.8129   27.5262 N   0  0  0  0  0  0  0  0  0  0  0  0
   51.6470   53.0656   27.5464 C   0  0  0  0  0  0  0  0  0  0  0  0
   52.4217   53.5238   26.4335 C   0  0  0  0  0  0  0  0  0  0  0  0
   52.6348   52.6177   25.3584 C   0  0  0  0  0  0  0  0  0  0  0  0
   53.3481   52.9825   24.2512 N   0  0  0  0  0  0  0  0  0  0  0  0
   52.7791   54.7960   26.6963 N   0  0  0  0  0  0  0  0  0  0  0  0
   52.2986   55.1521   27.8673 C   0  0  0  0  0  0  0  0  0  0  0  0
   51.5749   54.1366   28.4427 N   0  0  0  0  0  0  0  0  0  0  0  0
  2  1  1  1  0  0  0
  2  3  1  0  0  0  0
  2  5  1  0  0  0  0
  3  4  1  0  0  0  0
  3 17  1  0  0  0  0
  5  6  1  0  0  0  0
  7  6  1  1  0  0  0
  7  8  1  0  0  0  0
  7  9  1  0  0  0  0
 10  9  1  1  0  0  0
 10 11  1  0  0  0  0
 10 12  1  0  0  0  0
 11 16  1  0  0  0  0
 12 13  1  1  0  0  0
 12 14  1  0  0  0  0
 14 15  1  6  0  0  0
 14 16  1  0  0  0  0
 16 27  1  6  0  0  0
 18 19  2  0  0  0  0
 18 23  1  0  0  0  0
 19 20  1  0  0  0  0
 20 21  2  0  0  0  0
 21 22  1  0  0  0  0
 21 27  1  0  0  0  0
 22 23  2  0  0  0  0
 22 25  1  0  0  0  0
 23 24  1  0  0  0  0
 25 26  2  0  0  0  0
 26 27  1  0  0  0  0
M  END
>  <CHROM.1>
-49.16862842,-177.50173763,-173.20871212,-92.40521826,-68.84863995,-129.39101038
-119.25033104,49.91987460,53.80128518,30.72577045,2.55151337,1.01902595,0.53765128

>  <Name>
ligand

>  <RI>
0

>  <Rbt.Current_Directory>
/home/itssahil/PROJECTS/Mol_Feturizer/New_Systems/rnas/3IQN

>  <Rbt.Executable>
rbdock ($Id: //depot/dev/client3/rdock/2013.1/src/exe/rbdock.cxx#4 $)

>  <Rbt.Library>
libRbt.so (2013.1, Build901 2013/11/27)

>  <Rbt.Parameter_File>
/export/apps/rDock/src/rDock_2013.1_src/data/scripts/dock_solv.prm

>  <Rbt.Receptor>
prm/pocket_docking_7.prm

>  <SCORE>
-17.1636

>  <SCORE.INTER>
-17.4504

>  <SCORE.INTER.CONST>
1

>  <SCORE.INTER.POLAR>
0

>  <SCORE.INTER.ROT>
7

>  <SCORE.INTER.SOLV>
11.246

>  <SCORE.INTER.VDW>
-23.6489

>  <SCORE.INTER.norm>
-0.646309

>  <SCORE.INTRA>
0.286754

>  <SCORE.INTRA.DIHEDRAL>
-0.326733

>  <SCORE.INTRA.DIHEDRAL.0>
10.0365

>  <SCORE.INTRA.POLAR>
0

>  <SCORE.INTRA.POLAR.0>
0

>  <SCORE.INTRA.REPUL>
0

>  <SCORE.INTRA.REPUL.0>
0

>  <SCORE.INTRA.SOLV>
-0.105469

>  <SCORE.INTRA.SOLV.lig_0>
-48.6728

>  <SCORE.INTRA.VDW>
0.502856

>  <SCORE.INTRA.VDW.0>
-1.10662

>  <SCORE.INTRA.norm>
0.0106205

>  <SCORE.RESTR>
0

>  <SCORE.RESTR.CAVITY>
0

>  <SCORE.RESTR.norm>
0

>  <SCORE.SYSTEM>
0

>  <SCORE.SYSTEM.CONST>
0

>  <SCORE.SYSTEM.DIHEDRAL>
0

>  <SCORE.SYSTEM.SOLV>
0

>  <SCORE.SYSTEM.norm>
0

>  <SCORE.heavy>
27

>  <SCORE.norm>
-0.635689

>  <RMSD>
7.606

$$$$
ligand
 OpenBabel11021811483D
libRbt.so/2013.1/901 2013/11/27
 27 29  0  0  0  0  0  0  0  0999 V2000
   46.4809   57.2543   31.7591 N   0  0  0  0  0  0  0  0  0  0  0  0
   47.3839   58.3646   31.4290 C   0  0  2  0  0  0  0  0  0  0  0  0
   46.6708   59.6545   31.7031 C   0  0  0  0  0  0  0  0  0  0  0  0
   47.2793   60.7112   31.6455 O   0  0  0  0  0  0  0  0  0  0  0  0
   47.7817   58.3058   29.9465 C   0  0  0  0  0  0  0  0  0  0  0  0
   48.5527   57.0139   29.6924 C   0  0  0  0  0  0  0  0  0  0  0  0
   49.4039   56.9816   28.0824 S   0  0  2  0  0  0  0  0  0  0  0  0
   48.0652   56.8170   26.8612 C   0  0  0  0  0  0  0  0  0  0  0  0
   50.2192   55.3671   27.8096 C   0  0  0  0  0  0  0  0  0  0  0  0
   49.1738   54.3755   28.2580 C   0  0  1  0  0  0  0  0  0  0  0  0
   48.4498   54.1094   27.1023 O   0  0  0  0  0  0  0  0  0  0  0  0
   49.5420   52.9626   28.7132 C   0  0  1  0  0  0  0  0  0  0  0  0
   49.7748   52.8854   30.0904 O   0  0  0  0  0  0  0  0  0  0  0  0
   48.2139   52.2041   28.2320 C   0  0  1  0  0  0  0  0  0  0  0  0
   46.9939   52.7466   28.7580 O   0  0  0  0  0  0  0  0  0  0  0  0
   48.5441   52.6562   26.8281 C   0  0  1  0  0  0  0  0  0  0  0  0
   45.4789   59.6431   31.9679 O   0  0  0  0  0  0  0  0  0  0  0  0
   49.3111   54.8040   22.3485 N   0  0  0  0  0  0  0  0  0  0  0  0
   49.9568   54.9359   23.5083 C   0  0  0  0  0  0  0  0  0  0  0  0
   49.6216   54.2253   24.5844 N   0  0  0  0  0  0  0  0  0  0  0  0
   48.5381   53.4373   24.5815 C   0  0  0  0  0  0  0  0  0  0  0  0
   47.7780   53.3205   23.3744 C   0  0  0  0  0  0  0  0  0  0  0  0
   48.2279   54.0457   22.2369 C   0  0  0  0  0  0  0  0  0  0  0  0
   47.5692   53.9746   21.0416 N   0  0  0  0  0  0  0  0  0  0  0  0
   46.7518   52.4862   23.6315 N   0  0  0  0  0  0  0  0  0  0  0  0
   46.8140   52.0893   24.8834 C   0  0  0  0  0  0  0  0  0  0  0  0
   47.9022   52.6260   25.5266 N   0  0  0  0  0  0  0  0  0  0  0  0
  2  1  1  6  0  0  0
  2  3  1  0  0  0  0
  2  5  1  0  0  0  0
  3  4  1  0  0  0  0
  3 17  1  0  0  0  0
  5  6  1  0  0  0  0
  7  6  1  1  0  0  0
  7  8  1  0  0  0  0
  7  9  1  0  0  0  0
 10  9  1  6  0  0  0
 10 11  1  0  0  0  0
 10 12  1  0  0  0  0
 11 16  1  0  0  0  0
 12 13  1  1  0  0  0
 12 14  1  0  0  0  0
 14 15  1  1  0  0  0
 14 16  1  0  0  0  0
 16 27  1  6  0  0  0
 18 19  2  0  0  0  0
 18 23  1  0  0  0  0
 19 20  1  0  0  0  0
 20 21  2  0  0  0  0
 21 22  1  0  0  0  0
 21 27  1  0  0  0  0
 22 23  2  0  0  0  0
 22 25  1  0  0  0  0
 23 24  1  0  0  0  0
 25 26  2  0  0  0  0
 26 27  1  0  0  0  0
M  END
>  <CHROM.1>
171.70255265,-62.87803146,-167.06269318,-71.38660401,43.93335721,90.39451033
58.30308782,48.20847009,55.25437784,27.36362663,-2.47681698,1.42561125,-1.28490158

>  <Name>
ligand

>  <RI>
0

>  <Rbt.Current_Directory>
/home/itssahil/PROJECTS/Mol_Feturizer/New_Systems/rnas/3IQN

>  <Rbt.Executable>
rbdock ($Id: //depot/dev/client3/rdock/2013.1/src/exe/rbdock.cxx#4 $)

>  <Rbt.Library>
libRbt.so (2013.1, Build901 2013/11/27)

>  <Rbt.Parameter_File>
/export/apps/rDock/src/rDock_2013.1_src/data/scripts/dock_solv.prm

>  <Rbt.Receptor>
prm/pocket_docking_7.prm

>  <SCORE>
-13.9594

>  <SCORE.INTER>
-13.1401

>  <SCORE.INTER.CONST>
1

>  <SCORE.INTER.POLAR>
0

>  <SCORE.INTER.ROT>
7

>  <SCORE.INTER.SOLV>
9.20678

>  <SCORE.INTER.VDW>
-20.0957

>  <SCORE.INTER.norm>
-0.486671

>  <SCORE.INTRA>
-0.819314

>  <SCORE.INTRA.DIHEDRAL>
-3.36096

>  <SCORE.INTRA.DIHEDRAL.0>
10.0365

>  <SCORE.INTRA.POLAR>
0

>  <SCORE.INTRA.POLAR.0>
0

>  <SCORE.INTRA.REPUL>
0

>  <SCORE.INTRA.REPUL.0>
0

>  <SCORE.INTRA.SOLV>
-0.275981

>  <SCORE.INTRA.SOLV.lig_0>
-48.6728

>  <SCORE.INTRA.VDW>
0.999157

>  <SCORE.INTRA.VDW.0>
-1.10662

>  <SCORE.INTRA.norm>
-0.030345

>  <SCORE.RESTR>
0

>  <SCORE.RESTR.CAVITY>
0

>  <SCORE.RESTR.norm>
0

>  <SCORE.SYSTEM>
0

>  <SCORE.SYSTEM.CONST>
0

>  <SCORE.SYSTEM.DIHEDRAL>
0

>  <SCORE.SYSTEM.SOLV>
0

>  <SCORE.SYSTEM.norm>
0

>  <SCORE.heavy>
27

>  <SCORE.norm>
-0.517016

>  <RMSD>
7.626

$$$$
ligand
 OpenBabel11021811483D
libRbt.so/2013.1/901 2013/11/27
 27 29  0  0  0  0  0  0  0  0999 V2000
   48.4721   54.6538   35.3834 N   0  0  0  0  0  0  0  0  0  0  0  0
   47.6271   54.0437   34.3484 C   0  0  2  0  0  0  0  0  0  0  0  0
   47.4346   52.5956   34.6853 C   0  0  0  0  0  0  0  0  0  0  0  0
   48.2976   51.7826   34.3947 O   0  0  0  0  0  0  0  0  0  0  0  0
   48.2991   54.1632   32.9724 C   0  0  0  0  0  0  0  0  0  0  0  0
   48.3924   55.6385   32.5942 C   0  0  0  0  0  0  0  0  0  0  0  0
   49.5334   55.9625   31.2120 S   0  0  2  0  0  0  0  0  0  0  0  0
   49.5609   57.7751   31.0575 C   0  0  0  0  0  0  0  0  0  0  0  0
   48.7443   55.5662   29.6101 C   0  0  0  0  0  0  0  0  0  0  0  0
   48.6185   54.0631   29.6530 C   0  0  1  0  0  0  0  0  0  0  0  0
   48.0240   53.7439   28.4383 O   0  0  0  0  0  0  0  0  0  0  0  0
   49.8439   53.1482   29.6365 C   0  0  1  0  0  0  0  0  0  0  0  0
   50.3063   52.8463   30.9217 O   0  0  0  0  0  0  0  0  0  0  0  0
   49.1984   51.8998   28.8648 C   0  0  1  0  0  0  0  0  0  0  0  0
   48.0137   51.3689   29.4764 O   0  0  0  0  0  0  0  0  0  0  0  0
   48.9378   52.8353   27.7067 C   0  0  1  0  0  0  0  0  0  0  0  0
   46.4205   52.2381   35.2637 O   0  0  0  0  0  0  0  0  0  0  0  0
   49.3864   55.0403   23.2117 N   0  0  0  0  0  0  0  0  0  0  0  0
   50.0786   55.1984   24.3410 C   0  0  0  0  0  0  0  0  0  0  0  0
   49.8299   54.4668   25.4264 N   0  0  0  0  0  0  0  0  0  0  0  0
   48.7876   53.6261   25.4685 C   0  0  0  0  0  0  0  0  0  0  0  0
   47.9783   53.4776   24.2974 C   0  0  0  0  0  0  0  0  0  0  0  0
   48.3379   54.2298   23.1454 C   0  0  0  0  0  0  0  0  0  0  0  0
   47.6281   54.1319   21.9817 N   0  0  0  0  0  0  0  0  0  0  0  0
   47.0077   52.5922   24.5961 N   0  0  0  0  0  0  0  0  0  0  0  0
   47.1482   52.1928   25.8409 C   0  0  0  0  0  0  0  0  0  0  0  0
   48.2377   52.7796   26.4364 N   0  0  0  0  0  0  0  0  0  0  0  0
  2  1  1  1  0  0  0
  2  3  1  0  0  0  0
  2  5  1  0  0  0  0
  3  4  1  0  0  0  0
  3 17  1  0  0  0  0
  5  6  1  0  0  0  0
  7  6  1  1  0  0  0
  7  8  1  0  0  0  0
  7  9  1  0  0  0  0
 10  9  1  6  0  0  0
 10 11  1  0  0  0  0
 10 12  1  0  0  0  0
 11 16  1  0  0  0  0
 12 13  1  1  0  0  0
 12 14  1  0  0  0  0
 14 15  1  1  0  0  0
 14 16  1  0  0  0  0
 16 27  1  6  0  0  0
 18 19  2  0  0  0  0
 18 23  1  0  0  0  0
 19 20  1  0  0  0  0
 20 21  2  0  0  0  0
 21 22  1  0  0  0  0
 21 27  1  0  0  0  0
 22 23  2  0  0  0  0
 22 25  1  0  0  0  0
 23 24  1  0  0  0  0
 25 26  2  0  0  0  0
 26 27  1  0  0  0  0
M  END
>  <CHROM.1>
-81.57492454,-65.02101753,165.12511560,-175.58235789,-68.62726661,-179.78185973
99.56678156,48.56832370,53.87064358,29.17374013,-1.65229172,-1.17887893,-1.63901222

>  <Name>
ligand

>  <RI>
0

>  <Rbt.Current_Directory>
/home/itssahil/PROJECTS/Mol_Feturizer/New_Systems/rnas/3IQN

>  <Rbt.Executable>
rbdock ($Id: //depot/dev/client3/rdock/2013.1/src/exe/rbdock.cxx#4 $)

>  <Rbt.Library>
libRbt.so (2013.1, Build901 2013/11/27)

>  <Rbt.Parameter_File>
/export/apps/rDock/src/rDock_2013.1_src/data/scripts/dock_solv.prm

>  <Rbt.Receptor>
prm/pocket_docking_6.prm

>  <SCORE>
-11.9816

>  <SCORE.INTER>
-7.53612

>  <SCORE.INTER.CONST>
1

>  <SCORE.INTER.POLAR>
0

>  <SCORE.INTER.ROT>
7

>  <SCORE.INTER.SOLV>
12.4635

>  <SCORE.INTER.VDW>
-17.4452

>  <SCORE.INTER.norm>
-0.279115

>  <SCORE.INTRA>
-4.44544

>  <SCORE.INTRA.DIHEDRAL>
-5.76716

>  <SCORE.INTRA.DIHEDRAL.0>
10.0365

>  <SCORE.INTRA.POLAR>
0

>  <SCORE.INTRA.POLAR.0>
0

>  <SCORE.INTRA.REPUL>
0

>  <SCORE.INTRA.REPUL.0>
0

>  <SCORE.INTRA.SOLV>
0.0276895

>  <SCORE.INTRA.SOLV.lig_0>
-48.6728

>  <SCORE.INTRA.VDW>
-1.5757

>  <SCORE.INTRA.VDW.0>
-1.10662

>  <SCORE.INTRA.norm>
-0.164646

>  <SCORE.RESTR>
0

>  <SCORE.RESTR.CAVITY>
0

>  <SCORE.RESTR.norm>
0

>  <SCORE.SYSTEM>
0

>  <SCORE.SYSTEM.CONST>
0

>  <SCORE.SYSTEM.DIHEDRAL>
0

>  <SCORE.SYSTEM.SOLV>
0

>  <SCORE.SYSTEM.norm>
0

>  <SCORE.heavy>
27

>  <SCORE.norm>
-0.443761

>  <RMSD>
7.627

$$$$
ligand
 OpenBabel11021811483D
libRbt.so/2013.1/901 2013/11/27
 27 29  0  0  0  0  0  0  0  0999 V2000
   44.1986   54.3456   34.8892 N   0  0  0  0  0  0  0  0  0  0  0  0
   45.0070   54.8085   33.7536 C   0  0  2  0  0  0  0  0  0  0  0  0
   46.3814   54.2231   33.8791 C   0  0  0  0  0  0  0  0  0  0  0  0
   46.8239   53.5116   32.9913 O   0  0  0  0  0  0  0  0  0  0  0  0
   45.1025   56.3416   33.7566 C   0  0  0  0  0  0  0  0  0  0  0  0
   45.3848   56.8222   32.3362 C   0  0  0  0  0  0  0  0  0  0  0  0
   47.0484   56.3829   31.7388 S   0  0  2  0  0  0  0  0  0  0  0  0
   48.0991   57.7793   32.2450 C   0  0  0  0  0  0  0  0  0  0  0  0
   47.1668   56.5981   29.9262 C   0  0  0  0  0  0  0  0  0  0  0  0
   48.3306   55.7137   29.5517 C   0  0  1  0  0  0  0  0  0  0  0  0
   48.1241   55.4444   28.2042 O   0  0  0  0  0  0  0  0  0  0  0  0
   49.7690   56.2332   29.5365 C   0  0  1  0  0  0  0  0  0  0  0  0
   50.4169   56.0565   30.7637 O   0  0  0  0  0  0  0  0  0  0  0  0
   50.3425   55.3113   28.3567 C   0  0  1  0  0  0  0  0  0  0  0  0
   50.1750   53.9016   28.5669 O   0  0  0  0  0  0  0  0  0  0  0  0
   49.3037   55.9357   27.4538 C   0  0  1  0  0  0  0  0  0  0  0  0
   47.0589   54.4739   34.8634 O   0  0  0  0  0  0  0  0  0  0  0  0
   51.2385   54.3555   23.0916 N   0  0  0  0  0  0  0  0  0  0  0  0
   51.8010   54.5394   24.2871 C   0  0  0  0  0  0  0  0  0  0  0  0
   51.0903   54.9215   25.3473 N   0  0  0  0  0  0  0  0  0  0  0  0
   49.7993   55.2592   25.2280 C   0  0  0  0  0  0  0  0  0  0  0  0
   49.1747   55.1398   23.9457 C   0  0  0  0  0  0  0  0  0  0  0  0
   49.9655   54.6557   22.8675 C   0  0  0  0  0  0  0  0  0  0  0  0
   49.4405   54.4956   21.6160 N   0  0  0  0  0  0  0  0  0  0  0  0
   47.8961   55.5396   24.0890 N   0  0  0  0  0  0  0  0  0  0  0  0
   47.6866   55.8958   25.3372 C   0  0  0  0  0  0  0  0  0  0  0  0
   48.8159   55.7338   26.1016 N   0  0  0  0  0  0  0  0  0  0  0  0
  2  1  1  1  0  0  0
  2  3  1  0  0  0  0
  2  5  1  0  0  0  0
  3  4  1  0  0  0  0
  3 17  1  0  0  0  0
  5  6  1  0  0  0  0
  7  6  1  1  0  0  0
  7  8  1  0  0  0  0
  7  9  1  0  0  0  0
 10  9  1  6  0  0  0
 10 11  1  0  0  0  0
 10 12  1  0  0  0  0
 11 16  1  0  0  0  0
 12 13  1  1  0  0  0
 12 14  1  0  0  0  0
 14 15  1  1  0  0  0
 14 16  1  0  0  0  0
 16 27  1  6  0  0  0
 18 19  2  0  0  0  0
 18 23  1  0  0  0  0
 19 20  1  0  0  0  0
 20 21  2  0  0  0  0
 21 22  1  0  0  0  0
 21 27  1  0  0  0  0
 22 23  2  0  0  0  0
 22 25  1  0  0  0  0
 23 24  1  0  0  0  0
 25 26  2  0  0  0  0
 26 27  1  0  0  0  0
M  END
>  <CHROM.1>
120.72790767,-155.65550473,-68.80663588,-89.32808405,-158.43906739,157.59133433
-140.58662555,48.27335905,55.39510109,28.97686461,1.95840480,-0.09911087
1.56449009

>  <Name>
ligand

>  <RI>
0

>  <Rbt.Current_Directory>
/home/itssahil/PROJECTS/Mol_Feturizer/New_Systems/rnas/3IQN

>  <Rbt.Executable>
rbdock ($Id: //depot/dev/client3/rdock/2013.1/src/exe/rbdock.cxx#4 $)

>  <Rbt.Library>
libRbt.so (2013.1, Build901 2013/11/27)

>  <Rbt.Parameter_File>
/export/apps/rDock/src/rDock_2013.1_src/data/scripts/dock_solv.prm

>  <Rbt.Receptor>
prm/pocket_docking_8.prm

>  <SCORE>
-11.3655

>  <SCORE.INTER>
-8.83296

>  <SCORE.INTER.CONST>
1

>  <SCORE.INTER.POLAR>
0

>  <SCORE.INTER.ROT>
7

>  <SCORE.INTER.SOLV>
11.5691

>  <SCORE.INTER.VDW>
-18.0117

>  <SCORE.INTER.norm>
-0.327147

>  <SCORE.INTRA>
-2.53253

>  <SCORE.INTRA.DIHEDRAL>
0.0554388

>  <SCORE.INTRA.DIHEDRAL.0>
10.0365

>  <SCORE.INTRA.POLAR>
0

>  <SCORE.INTRA.POLAR.0>
0

>  <SCORE.INTRA.REPUL>
0

>  <SCORE.INTRA.REPUL.0>
0

>  <SCORE.INTRA.SOLV>
-0.703312

>  <SCORE.INTRA.SOLV.lig_0>
-48.6728

>  <SCORE.INTRA.VDW>
-2.20859

>  <SCORE.INTRA.VDW.0>
-1.10662

>  <SCORE.INTRA.norm>
-0.0937974

>  <SCORE.RESTR>
0

>  <SCORE.RESTR.CAVITY>
0

>  <SCORE.RESTR.norm>
0

>  <SCORE.SYSTEM>
0

>  <SCORE.SYSTEM.CONST>
0

>  <SCORE.SYSTEM.DIHEDRAL>
0

>  <SCORE.SYSTEM.SOLV>
0

>  <SCORE.SYSTEM.norm>
0

>  <SCORE.heavy>
27

>  <SCORE.norm>
-0.420944

>  <RMSD>
7.629

$$$$
ligand
 OpenBabel11021811483D
libRbt.so/2013.1/901 2013/11/27
 27 29  0  0  0  0  0  0  0  0999 V2000
   42.1680   52.9931   32.9095 N   0  0  0  0  0  0  0  0  0  0  0  0
   42.0922   53.7276   34.1792 C   0  0  2  0  0  0  0  0  0  0  0  0
   40.9773   54.7253   34.0848 C   0  0  0  0  0  0  0  0  0  0  0  0
   40.6381   55.1585   32.9952 O   0  0  0  0  0  0  0  0  0  0  0  0
   43.4137   54.4623   34.4500 C   0  0  0  0  0  0  0  0  0  0  0  0
   43.6853   55.4306   33.3025 C   0  0  0  0  0  0  0  0  0  0  0  0
   45.3318   56.2053   33.3811 S   0  0  2  0  0  0  0  0  0  0  0  0
   45.3606   57.3607   31.9759 C   0  0  0  0  0  0  0  0  0  0  0  0
   46.6244   55.0463   32.8052 C   0  0  0  0  0  0  0  0  0  0  0  0
   47.6760   55.1431   33.8831 C   0  0  1  0  0  0  0  0  0  0  0  0
   47.0235   54.6968   35.0258 O   0  0  0  0  0  0  0  0  0  0  0  0
   48.9199   54.2534   33.8815 C   0  0  1  0  0  0  0  0  0  0  0  0
   49.9945   54.8337   33.1994 O   0  0  0  0  0  0  0  0  0  0  0  0
   49.1356   54.1432   35.4665 C   0  0  1  0  0  0  0  0  0  0  0  0
   49.2537   55.4044   36.1410 O   0  0  0  0  0  0  0  0  0  0  0  0
   47.7608   53.5203   35.5434 C   0  0  1  0  0  0  0  0  0  0  0  0
   40.4024   55.0887   35.0989 O   0  0  0  0  0  0  0  0  0  0  0  0
   47.7627   53.4598   40.5699 N   0  0  0  0  0  0  0  0  0  0  0  0
   48.6993   53.8302   39.6952 C   0  0  0  0  0  0  0  0  0  0  0  0
   48.4782   53.8188   38.3813 N   0  0  0  0  0  0  0  0  0  0  0  0
   47.3447   53.3141   37.8762 C   0  0  0  0  0  0  0  0  0  0  0  0
   46.3404   52.8433   38.7809 C   0  0  0  0  0  0  0  0  0  0  0  0
   46.6033   52.9499   40.1743 C   0  0  0  0  0  0  0  0  0  0  0  0
   45.6895   52.5400   41.1041 N   0  0  0  0  0  0  0  0  0  0  0  0
   45.3162   52.3873   38.0336 N   0  0  0  0  0  0  0  0  0  0  0  0
   45.6064   52.5319   36.7593 C   0  0  0  0  0  0  0  0  0  0  0  0
   46.8389   53.1130   36.5880 N   0  0  0  0  0  0  0  0  0  0  0  0
  2  1  1  6  0  0  0
  2  3  1  0  0  0  0
  2  5  1  0  0  0  0
  3  4  1  0  0  0  0
  3 17  1  0  0  0  0
  5  6  1  0  0  0  0
  7  6  1  6  0  0  0
  7  8  1  0  0  0  0
  7  9  1  0  0  0  0
 10  9  1  6  0  0  0
 10 11  1  0  0  0  0
 10 12  1  0  0  0  0
 11 16  1  0  0  0  0
 12 13  1  6  0  0  0
 12 14  1  0  0  0  0
 14 15  1  1  0  0  0
 14 16  1  0  0  0  0
 16 27  1  1  0  0  0
 18 19  2  0  0  0  0
 18 23  1  0  0  0  0
 19 20  1  0  0  0  0
 20 21  2  0  0  0  0
 21 22  1  0  0  0  0
 21 27  1  0  0  0  0
 22 23  2  0  0  0  0
 22 25  1  0  0  0  0
 23 24  1  0  0  0  0
 25 26  2  0  0  0  0
 26 27  1  0  0  0  0
M  END
>  <CHROM.1>
-26.13440249,59.18817022,-172.18877106,-177.00075797,-131.85552454,62.15363964
-110.99844633,45.83882224,54.33364433,35.58408266,2.33485874,-0.07662160
-1.18485519

>  <Name>
ligand

>  <RI>
0

>  <Rbt.Current_Directory>
/home/itssahil/PROJECTS/Mol_Feturizer/New_Systems/rnas/3IQN

>  <Rbt.Executable>
rbdock ($Id: //depot/dev/client3/rdock/2013.1/src/exe/rbdock.cxx#4 $)

>  <Rbt.Library>
libRbt.so (2013.1, Build901 2013/11/27)

>  <Rbt.Parameter_File>
/export/apps/rDock/src/rDock_2013.1_src/data/scripts/dock_solv.prm

>  <Rbt.Receptor>
prm/pocket_docking_8.prm

>  <SCORE>
-18.395

>  <SCORE.INTER>
-16.4932

>  <SCORE.INTER.CONST>
1

>  <SCORE.INTER.POLAR>
0

>  <SCORE.INTER.ROT>
7

>  <SCORE.INTER.SOLV>
8.44335

>  <SCORE.INTER.VDW>
-22.0766

>  <SCORE.INTER.norm>
-0.610858

>  <SCORE.INTRA>
-1.90184

>  <SCORE.INTRA.DIHEDRAL>
-1.87506

>  <SCORE.INTRA.DIHEDRAL.0>
10.0365

>  <SCORE.INTRA.POLAR>
0

>  <SCORE.INTRA.POLAR.0>
0

>  <SCORE.INTRA.REPUL>
0

>  <SCORE.INTRA.REPUL.0>
0

>  <SCORE.INTRA.SOLV>
-0.138797

>  <SCORE.INTRA.SOLV.lig_0>
-48.6728

>  <SCORE.INTRA.VDW>
-0.894908

>  <SCORE.INTRA.VDW.0>
-1.10662

>  <SCORE.INTRA.norm>
-0.0704384

>  <SCORE.RESTR>
0

>  <SCORE.RESTR.CAVITY>
0

>  <SCORE.RESTR.norm>
0

>  <SCORE.SYSTEM>
0

>  <SCORE.SYSTEM.CONST>
0

>  <SCORE.SYSTEM.DIHEDRAL>
0

>  <SCORE.SYSTEM.SOLV>
0

>  <SCORE.SYSTEM.norm>
0

>  <SCORE.heavy>
27

>  <SCORE.norm>
-0.681296

>  <RMSD>
7.685

$$$$
ligand
 OpenBabel11021811483D
libRbt.so/2013.1/901 2013/11/27
 27 29  0  0  0  0  0  0  0  0999 V2000
   41.4021   53.0558   35.3563 N   0  0  0  0  0  0  0  0  0  0  0  0
   42.6746   53.6635   34.9454 C   0  0  2  0  0  0  0  0  0  0  0  0
   42.6527   53.8520   33.4583 C   0  0  0  0  0  0  0  0  0  0  0  0
   42.4114   54.9520   32.9872 O   0  0  0  0  0  0  0  0  0  0  0  0
   43.8495   52.7507   35.3274 C   0  0  0  0  0  0  0  0  0  0  0  0
   45.1322   53.5770   35.3450 C   0  0  0  0  0  0  0  0  0  0  0  0
   45.7025   54.0669   33.6861 S   0  0  2  0  0  0  0  0  0  0  0  0
   47.4966   54.3057   33.8719 C   0  0  0  0  0  0  0  0  0  0  0  0
   45.2353   55.7975   33.3220 C   0  0  0  0  0  0  0  0  0  0  0  0
   45.5546   55.9366   31.8538 C   0  0  1  0  0  0  0  0  0  0  0  0
   44.5185   55.2596   31.2221 O   0  0  0  0  0  0  0  0  0  0  0  0
   45.5077   57.2888   31.1406 C   0  0  1  0  0  0  0  0  0  0  0  0
   46.7393   57.9515   31.1642 O   0  0  0  0  0  0  0  0  0  0  0  0
   45.0702   56.7756   29.6860 C   0  0  1  0  0  0  0  0  0  0  0  0
   45.9382   55.7840   29.1179 O   0  0  0  0  0  0  0  0  0  0  0  0
   43.8225   56.2174   30.3311 C   0  0  1  0  0  0  0  0  0  0  0  0
   42.8922   52.9061   32.7244 O   0  0  0  0  0  0  0  0  0  0  0  0
   43.2333   51.7136   28.1776 N   0  0  0  0  0  0  0  0  0  0  0  0
   44.3325   52.4095   28.4726 C   0  0  0  0  0  0  0  0  0  0  0  0
   44.2743   53.5828   29.1012 N   0  0  0  0  0  0  0  0  0  0  0  0
   43.0985   54.1740   29.3525 C   0  0  0  0  0  0  0  0  0  0  0  0
   41.8951   53.4892   28.9900 C   0  0  0  0  0  0  0  0  0  0  0  0
   42.0196   52.2064   28.3891 C   0  0  0  0  0  0  0  0  0  0  0  0
   40.9197   51.4793   28.0297 N   0  0  0  0  0  0  0  0  0  0  0  0
   40.8657   54.2854   29.3388 N   0  0  0  0  0  0  0  0  0  0  0  0
   41.3311   55.3924   29.8744 C   0  0  0  0  0  0  0  0  0  0  0  0
   42.7033   55.3852   29.9290 N   0  0  0  0  0  0  0  0  0  0  0  0
  2  1  1  6  0  0  0
  2  3  1  0  0  0  0
  2  5  1  0  0  0  0
  3  4  1  0  0  0  0
  3 17  1  0  0  0  0
  5  6  1  0  0  0  0
  7  6  1  1  0  0  0
  7  8  1  0  0  0  0
  7  9  1  0  0  0  0
 10  9  1  1  0  0  0
 10 11  1  0  0  0  0
 10 12  1  0  0  0  0
 11 16  1  0  0  0  0
 12 13  1  6  0  0  0
 12 14  1  0  0  0  0
 14 15  1  1  0  0  0
 14 16  1  0  0  0  0
 16 27  1  6  0  0  0
 18 19  2  0  0  0  0
 18 23  1  0  0  0  0
 19 20  1  0  0  0  0
 20 21  2  0  0  0  0
 21 22  1  0  0  0  0
 21 27  1  0  0  0  0
 22 23  2  0  0  0  0
 22 25  1  0  0  0  0
 23 24  1  0  0  0  0
 25 26  2  0  0  0  0
 26 27  1  0  0  0  0
M  END
>  <CHROM.1>
100.61346341,-160.55379733,-71.46050752,-154.46830800,-170.07184009,75.64273486
-56.07099605,43.89712868,54.39461431,31.46836279,0.98130663,0.71344726,1.77726568

>  <Name>
ligand

>  <RI>
0

>  <Rbt.Current_Directory>
/home/itssahil/PROJECTS/Mol_Feturizer/New_Systems/rnas/3IQN

>  <Rbt.Executable>
rbdock ($Id: //depot/dev/client3/rdock/2013.1/src/exe/rbdock.cxx#4 $)

>  <Rbt.Library>
libRbt.so (2013.1, Build901 2013/11/27)

>  <Rbt.Parameter_File>
/export/apps/rDock/src/rDock_2013.1_src/data/scripts/dock_solv.prm

>  <Rbt.Receptor>
prm/pocket_docking_8.prm

>  <SCORE>
-14.4388

>  <SCORE.INTER>
-10.7665

>  <SCORE.INTER.CONST>
1

>  <SCORE.INTER.POLAR>
0

>  <SCORE.INTER.ROT>
7

>  <SCORE.INTER.SOLV>
7.12555

>  <SCORE.INTER.VDW>
-17.8195

>  <SCORE.INTER.norm>
-0.398759

>  <SCORE.INTRA>
-3.67234

>  <SCORE.INTRA.DIHEDRAL>
-1.02053

>  <SCORE.INTRA.DIHEDRAL.0>
10.0365

>  <SCORE.INTRA.POLAR>
0

>  <SCORE.INTRA.POLAR.0>
0

>  <SCORE.INTRA.REPUL>
0

>  <SCORE.INTRA.REPUL.0>
0

>  <SCORE.INTRA.SOLV>
-0.600598

>  <SCORE.INTRA.SOLV.lig_0>
-48.6728

>  <SCORE.INTRA.VDW>
-2.86178

>  <SCORE.INTRA.VDW.0>
-1.10662

>  <SCORE.INTRA.norm>
-0.136013

>  <SCORE.RESTR>
0

>  <SCORE.RESTR.CAVITY>
0

>  <SCORE.RESTR.norm>
0

>  <SCORE.SYSTEM>
0

>  <SCORE.SYSTEM.CONST>
0

>  <SCORE.SYSTEM.DIHEDRAL>
0

>  <SCORE.SYSTEM.SOLV>
0

>  <SCORE.SYSTEM.norm>
0

>  <SCORE.heavy>
27

>  <SCORE.norm>
-0.534771

>  <RMSD>
7.819

$$$$
ligand
 OpenBabel11021811483D
libRbt.so/2013.1/901 2013/11/27
 27 29  0  0  0  0  0  0  0  0999 V2000
   46.0643   54.4137   33.3553 N   0  0  0  0  0  0  0  0  0  0  0  0
   47.3030   53.6272   33.4222 C   0  0  2  0  0  0  0  0  0  0  0  0
   47.4712   53.1245   34.8245 C   0  0  0  0  0  0  0  0  0  0  0  0
   47.3762   53.8977   35.7644 O   0  0  0  0  0  0  0  0  0  0  0  0
   48.5096   54.4992   33.0440 C   0  0  0  0  0  0  0  0  0  0  0  0
   48.4522   54.8012   31.5494 C   0  0  0  0  0  0  0  0  0  0  0  0
   49.8401   55.8240   30.9620 S   0  0  2  0  0  0  0  0  0  0  0  0
   49.3387   57.5326   31.3356 C   0  0  0  0  0  0  0  0  0  0  0  0
   49.8397   55.9348   29.1361 C   0  0  0  0  0  0  0  0  0  0  0  0
   49.9272   54.4913   28.7055 C   0  0  1  0  0  0  0  0  0  0  0  0
   49.8285   54.5503   27.3207 O   0  0  0  0  0  0  0  0  0  0  0  0
   51.2065   53.6715   28.8801 C   0  0  1  0  0  0  0  0  0  0  0  0
   51.2490   52.9965   30.1046 O   0  0  0  0  0  0  0  0  0  0  0  0
   51.0470   52.7079   27.6086 C   0  0  1  0  0  0  0  0  0  0  0  0
   49.8164   51.9705   27.5703 O   0  0  0  0  0  0  0  0  0  0  0  0
   51.0570   53.9508   26.7487 C   0  0  1  0  0  0  0  0  0  0  0  0
   47.6872   51.9389   35.0210 O   0  0  0  0  0  0  0  0  0  0  0  0
   47.7256   52.6878   23.2026 N   0  0  0  0  0  0  0  0  0  0  0  0
   47.8514   52.2931   24.4706 C   0  0  0  0  0  0  0  0  0  0  0  0
   48.7882   52.7956   25.2738 N   0  0  0  0  0  0  0  0  0  0  0  0
   49.7257   53.6294   24.8040 C   0  0  0  0  0  0  0  0  0  0  0  0
   49.6655   54.0253   23.4299 C   0  0  0  0  0  0  0  0  0  0  0  0
   48.5988   53.5140   22.6407 C   0  0  0  0  0  0  0  0  0  0  0  0
   48.4593   53.8570   21.3251 N   0  0  0  0  0  0  0  0  0  0  0  0
   50.7078   54.8500   23.2090 N   0  0  0  0  0  0  0  0  0  0  0  0
   51.3989   54.9881   24.3190 C   0  0  0  0  0  0  0  0  0  0  0  0
   50.8403   54.2737   25.3503 N   0  0  0  0  0  0  0  0  0  0  0  0
  2  1  1  1  0  0  0
  2  3  1  0  0  0  0
  2  5  1  0  0  0  0
  3  4  1  0  0  0  0
  3 17  1  0  0  0  0
  5  6  1  0  0  0  0
  7  6  1  6  0  0  0
  7  8  1  0  0  0  0
  7  9  1  0  0  0  0
 10  9  1  6  0  0  0
 10 11  1  0  0  0  0
 10 12  1  0  0  0  0
 11 16  1  0  0  0  0
 12 13  1  1  0  0  0
 12 14  1  0  0  0  0
 14 15  1  1  0  0  0
 14 16  1  0  0  0  0
 16 27  1  6  0  0  0
 18 19  2  0  0  0  0
 18 23  1  0  0  0  0
 19 20  1  0  0  0  0
 20 21  2  0  0  0  0
 21 22  1  0  0  0  0
 21 27  1  0  0  0  0
 22 23  2  0  0  0  0
 22 25  1  0  0  0  0
 23 24  1  0  0  0  0
 25 26  2  0  0  0  0
 26 27  1  0  0  0  0
M  END
>  <CHROM.1>
-50.05077835,-70.58958481,-179.58119610,-83.21142499,-58.05170050,175.76281395
-64.86064362,49.27006843,54.04503117,28.54705172,1.78466210,0.79248466,1.37637576

>  <Name>
ligand

>  <RI>
0

>  <Rbt.Current_Directory>
/home/itssahil/PROJECTS/Mol_Feturizer/New_Systems/rnas/3IQN

>  <Rbt.Executable>
rbdock ($Id: //depot/dev/client3/rdock/2013.1/src/exe/rbdock.cxx#4 $)

>  <Rbt.Library>
libRbt.so (2013.1, Build901 2013/11/27)

>  <Rbt.Parameter_File>
/export/apps/rDock/src/rDock_2013.1_src/data/scripts/dock_solv.prm

>  <Rbt.Receptor>
prm/pocket_docking_8.prm

>  <SCORE>
-14.1088

>  <SCORE.INTER>
-9.82998

>  <SCORE.INTER.CONST>
1

>  <SCORE.INTER.POLAR>
0

>  <SCORE.INTER.ROT>
7

>  <SCORE.INTER.SOLV>
7.91948

>  <SCORE.INTER.VDW>
-17.4598

>  <SCORE.INTER.norm>
-0.364073

>  <SCORE.INTRA>
-4.27878

>  <SCORE.INTRA.DIHEDRAL>
-5.59554

>  <SCORE.INTRA.DIHEDRAL.0>
10.0365

>  <SCORE.INTRA.POLAR>
0

>  <SCORE.INTRA.POLAR.0>
0

>  <SCORE.INTRA.REPUL>
0

>  <SCORE.INTRA.REPUL.0>
0

>  <SCORE.INTRA.SOLV>
0.0140061

>  <SCORE.INTRA.SOLV.lig_0>
-48.6728

>  <SCORE.INTRA.VDW>
-1.48801

>  <SCORE.INTRA.VDW.0>
-1.10662

>  <SCORE.INTRA.norm>
-0.158473

>  <SCORE.RESTR>
0

>  <SCORE.RESTR.CAVITY>
0

>  <SCORE.RESTR.norm>
0

>  <SCORE.SYSTEM>
0

>  <SCORE.SYSTEM.CONST>
0

>  <SCORE.SYSTEM.DIHEDRAL>
0

>  <SCORE.SYSTEM.SOLV>
0

>  <SCORE.SYSTEM.norm>
0

>  <SCORE.heavy>
27

>  <SCORE.norm>
-0.522547

>  <RMSD>
7.955

$$$$
ligand
 OpenBabel11021811483D
libRbt.so/2013.1/901 2013/11/27
 27 29  0  0  0  0  0  0  0  0999 V2000
   46.8221   53.8341   35.2518 N   0  0  0  0  0  0  0  0  0  0  0  0
   47.7809   54.4445   34.3215 C   0  0  2  0  0  0  0  0  0  0  0  0
   49.0089   54.8298   35.0902 C   0  0  0  0  0  0  0  0  0  0  0  0
   50.0710   54.9786   34.5070 O   0  0  0  0  0  0  0  0  0  0  0  0
   47.1711   55.6958   33.6720 C   0  0  0  0  0  0  0  0  0  0  0  0
   47.6606   55.7928   32.2300 C   0  0  0  0  0  0  0  0  0  0  0  0
   49.4343   56.1825   32.0905 S   0  0  2  0  0  0  0  0  0  0  0  0
   49.5294   57.9801   32.3551 C   0  0  0  0  0  0  0  0  0  0  0  0
   49.9752   56.1370   30.3437 C   0  0  0  0  0  0  0  0  0  0  0  0
   49.5604   54.7580   29.8927 C   0  0  1  0  0  0  0  0  0  0  0  0
   49.9058   54.7299   28.5471 O   0  0  0  0  0  0  0  0  0  0  0  0
   50.2548   53.4961   30.4069 C   0  0  1  0  0  0  0  0  0  0  0  0
   49.6455   52.9773   31.5542 O   0  0  0  0  0  0  0  0  0  0  0  0
   50.0790   52.5798   29.1030 C   0  0  1  0  0  0  0  0  0  0  0  0
   48.7224   52.4267   28.6607 O   0  0  0  0  0  0  0  0  0  0  0  0
   50.8690   53.6219   28.3453 C   0  0  1  0  0  0  0  0  0  0  0  0
   48.9374   55.0086   36.2959 O   0  0  0  0  0  0  0  0  0  0  0  0
   53.2565   51.1337   24.6878 N   0  0  0  0  0  0  0  0  0  0  0  0
   53.0092   50.8060   25.9570 C   0  0  0  0  0  0  0  0  0  0  0  0
   52.3023   51.5975   26.7627 N   0  0  0  0  0  0  0  0  0  0  0  0
   51.9156   52.8175   26.3667 C   0  0  0  0  0  0  0  0  0  0  0  0
   52.2205   53.2342   25.0317 C   0  0  0  0  0  0  0  0  0  0  0  0
   52.9125   52.3165   24.1944 C   0  0  0  0  0  0  0  0  0  0  0  0
   53.2258   52.6299   22.9016 N   0  0  0  0  0  0  0  0  0  0  0  0
   51.7356   54.4827   24.8858 N   0  0  0  0  0  0  0  0  0  0  0  0
   51.1693   54.8659   26.0089 C   0  0  0  0  0  0  0  0  0  0  0  0
   51.2299   53.8804   26.9633 N   0  0  0  0  0  0  0  0  0  0  0  0
  2  1  1  1  0  0  0
  2  3  1  0  0  0  0
  2  5  1  0  0  0  0
  3  4  1  0  0  0  0
  3 17  1  0  0  0  0
  5  6  1  0  0  0  0
  7  6  1  6  0  0  0
  7  8  1  0  0  0  0
  7  9  1  0  0  0  0
 10  9  1  1  0  0  0
 10 11  1  0  0  0  0
 10 12  1  0  0  0  0
 11 16  1  0  0  0  0
 12 13  1  1  0  0  0
 12 14  1  0  0  0  0
 14 15  1  6  0  0  0
 14 16  1  0  0  0  0
 16 27  1  6  0  0  0
 18 19  2  0  0  0  0
 18 23  1  0  0  0  0
 19 20  1  0  0  0  0
 20 21  2  0  0  0  0
 21 22  1  0  0  0  0
 21 27  1  0  0  0  0
 22 23  2  0  0  0  0
 22 25  1  0  0  0  0
 23 24  1  0  0  0  0
 25 26  2  0  0  0  0
 26 27  1  0  0  0  0
M  END
>  <CHROM.1>
158.17999784,-144.45146092,-69.13975213,-79.75465523,-55.08336703,177.20922838
-166.47671722,50.21138166,54.11397690,29.74852291,-3.10231227,1.17983875
-0.33534707

>  <Name>
ligand

>  <RI>
0

>  <Rbt.Current_Directory>
/home/itssahil/PROJECTS/Mol_Feturizer/New_Systems/rnas/3IQN

>  <Rbt.Executable>
rbdock ($Id: //depot/dev/client3/rdock/2013.1/src/exe/rbdock.cxx#4 $)

>  <Rbt.Library>
libRbt.so (2013.1, Build901 2013/11/27)

>  <Rbt.Parameter_File>
/export/apps/rDock/src/rDock_2013.1_src/data/scripts/dock_solv.prm

>  <Rbt.Receptor>
prm/pocket_docking_8.prm

>  <SCORE>
-15.5174

>  <SCORE.INTER>
-12.2848

>  <SCORE.INTER.CONST>
1

>  <SCORE.INTER.POLAR>
0

>  <SCORE.INTER.ROT>
7

>  <SCORE.INTER.SOLV>
7.18124

>  <SCORE.INTER.VDW>
-18.8503

>  <SCORE.INTER.norm>
-0.454992

>  <SCORE.INTRA>
-3.23257

>  <SCORE.INTRA.DIHEDRAL>
-2.20083

>  <SCORE.INTRA.DIHEDRAL.0>
10.0365

>  <SCORE.INTRA.POLAR>
0

>  <SCORE.INTRA.POLAR.0>
0

>  <SCORE.INTRA.REPUL>
0

>  <SCORE.INTRA.REPUL.0>
0

>  <SCORE.INTRA.SOLV>
-0.511047

>  <SCORE.INTRA.SOLV.lig_0>
-48.6728

>  <SCORE.INTRA.VDW>
-1.87663

>  <SCORE.INTRA.VDW.0>
-1.10662

>  <SCORE.INTRA.norm>
-0.119725

>  <SCORE.RESTR>
0

>  <SCORE.RESTR.CAVITY>
0

>  <SCORE.RESTR.norm>
0

>  <SCORE.SYSTEM>
0

>  <SCORE.SYSTEM.CONST>
0

>  <SCORE.SYSTEM.DIHEDRAL>
0

>  <SCORE.SYSTEM.SOLV>
0

>  <SCORE.SYSTEM.norm>
0

>  <SCORE.heavy>
27

>  <SCORE.norm>
-0.574717

>  <RMSD>
8.033

$$$$
ligand
 OpenBabel11021811483D
libRbt.so/2013.1/901 2013/11/27
 27 29  0  0  0  0  0  0  0  0999 V2000
   43.4064   54.7431   31.2945 N   0  0  0  0  0  0  0  0  0  0  0  0
   43.8035   55.7846   30.3380 C   0  0  2  0  0  0  0  0  0  0  0  0
   42.7176   55.9285   29.3145 C   0  0  0  0  0  0  0  0  0  0  0  0
   42.6668   56.9288   28.6167 O   0  0  0  0  0  0  0  0  0  0  0  0
   45.1152   55.3956   29.6398 C   0  0  0  0  0  0  0  0  0  0  0  0
   45.5927   56.5721   28.7936 C   0  0  0  0  0  0  0  0  0  0  0  0
   47.3573   56.4793   28.3519 S   0  0  2  0  0  0  0  0  0  0  0  0
   47.6616   57.9795   27.3685 C   0  0  0  0  0  0  0  0  0  0  0  0
   47.6353   55.2349   27.0404 C   0  0  0  0  0  0  0  0  0  0  0  0
   48.9976   54.6805   27.3778 C   0  0  1  0  0  0  0  0  0  0  0  0
   49.4259   54.1031   26.1887 O   0  0  0  0  0  0  0  0  0  0  0  0
   50.1806   55.5901   27.7126 C   0  0  1  0  0  0  0  0  0  0  0  0
   50.2815   55.8581   29.0818 O   0  0  0  0  0  0  0  0  0  0  0  0
   51.3599   54.6673   27.1393 C   0  0  1  0  0  0  0  0  0  0  0  0
   51.3990   53.3414   27.6870 O   0  0  0  0  0  0  0  0  0  0  0  0
   50.6897   54.7652   25.7881 C   0  0  1  0  0  0  0  0  0  0  0  0
   41.8968   55.0358   29.1729 O   0  0  0  0  0  0  0  0  0  0  0  0
   48.4895   55.1989   21.2893 N   0  0  0  0  0  0  0  0  0  0  0  0
   48.2235   55.7850   22.4577 C   0  0  0  0  0  0  0  0  0  0  0  0
   48.9718   55.5695   23.5389 N   0  0  0  0  0  0  0  0  0  0  0  0
   49.9510   54.6553   23.5299 C   0  0  0  0  0  0  0  0  0  0  0  0
   50.2246   53.9550   22.3119 C   0  0  0  0  0  0  0  0  0  0  0  0
   49.4409   54.2815   21.1711 C   0  0  0  0  0  0  0  0  0  0  0  0
   49.6502   53.6719   19.9661 N   0  0  0  0  0  0  0  0  0  0  0  0
   51.2354   53.1007   22.5645 N   0  0  0  0  0  0  0  0  0  0  0  0
   51.5981   53.2124   23.8234 C   0  0  0  0  0  0  0  0  0  0  0  0
   50.8569   54.1663   24.4765 N   0  0  0  0  0  0  0  0  0  0  0  0
  2  1  1  1  0  0  0
  2  3  1  0  0  0  0
  2  5  1  0  0  0  0
  3  4  1  0  0  0  0
  3 17  1  0  0  0  0
  5  6  1  0  0  0  0
  7  6  1  6  0  0  0
  7  8  1  0  0  0  0
  7  9  1  0  0  0  0
 10  9  1  6  0  0  0
 10 11  1  0  0  0  0
 10 12  1  0  0  0  0
 11 16  1  0  0  0  0
 12 13  1  1  0  0  0
 12 14  1  0  0  0  0
 14 15  1  1  0  0  0
 14 16  1  0  0  0  0
 16 27  1  6  0  0  0
 18 19  2  0  0  0  0
 18 23  1  0  0  0  0
 19 20  1  0  0  0  0
 20 21  2  0  0  0  0
 21 22  1  0  0  0  0
 21 27  1  0  0  0  0
 22 23  2  0  0  0  0
 22 25  1  0  0  0  0
 23 24  1  0  0  0  0
 25 26  2  0  0  0  0
 26 27  1  0  0  0  0
M  END
>  <CHROM.1>
162.52398831,-172.70366170,161.18610511,-179.73330592,-146.43144047,-160.03776303
72.34711120,48.01453640,55.14809193,26.35972503,-2.32387467,0.17167497,-1.66835451

>  <Name>
ligand

>  <RI>
0

>  <Rbt.Current_Directory>
/home/itssahil/PROJECTS/Mol_Feturizer/New_Systems/rnas/3IQN

>  <Rbt.Executable>
rbdock ($Id: //depot/dev/client3/rdock/2013.1/src/exe/rbdock.cxx#4 $)

>  <Rbt.Library>
libRbt.so (2013.1, Build901 2013/11/27)

>  <Rbt.Parameter_File>
/export/apps/rDock/src/rDock_2013.1_src/data/scripts/dock_solv.prm

>  <Rbt.Receptor>
prm/pocket_docking_8.prm

>  <SCORE>
-12.2925

>  <SCORE.INTER>
-10.6668

>  <SCORE.INTER.CONST>
1

>  <SCORE.INTER.POLAR>
0

>  <SCORE.INTER.ROT>
7

>  <SCORE.INTER.SOLV>
9.51981

>  <SCORE.INTER.VDW>
-18.5511

>  <SCORE.INTER.norm>
-0.395066

>  <SCORE.INTRA>
-1.62574

>  <SCORE.INTRA.DIHEDRAL>
-0.821642

>  <SCORE.INTRA.DIHEDRAL.0>
10.0365

>  <SCORE.INTRA.POLAR>
0

>  <SCORE.INTRA.POLAR.0>
0

>  <SCORE.INTRA.REPUL>
0

>  <SCORE.INTRA.REPUL.0>
0

>  <SCORE.INTRA.SOLV>
-0.810861

>  <SCORE.INTRA.SOLV.lig_0>
-48.6728

>  <SCORE.INTRA.VDW>
-0.809489

>  <SCORE.INTRA.VDW.0>
-1.10662

>  <SCORE.INTRA.norm>
-0.0602126

>  <SCORE.RESTR>
0

>  <SCORE.RESTR.CAVITY>
0

>  <SCORE.RESTR.norm>
0

>  <SCORE.SYSTEM>
0

>  <SCORE.SYSTEM.CONST>
0

>  <SCORE.SYSTEM.DIHEDRAL>
0

>  <SCORE.SYSTEM.SOLV>
0

>  <SCORE.SYSTEM.norm>
0

>  <SCORE.heavy>
27

>  <SCORE.norm>
-0.455279

>  <RMSD>
8.206

$$$$
ligand
 OpenBabel11021811483D
libRbt.so/2013.1/901 2013/11/27
 27 29  0  0  0  0  0  0  0  0999 V2000
   46.5244   52.4152   38.4007 N   0  0  0  0  0  0  0  0  0  0  0  0
   47.4391   52.2513   37.2632 C   0  0  2  0  0  0  0  0  0  0  0  0
   48.3514   53.4399   37.2123 C   0  0  0  0  0  0  0  0  0  0  0  0
   49.0922   53.5987   36.2552 O   0  0  0  0  0  0  0  0  0  0  0  0
   46.6468   52.1589   35.9506 C   0  0  0  0  0  0  0  0  0  0  0  0
   45.8484   53.4456   35.7633 C   0  0  0  0  0  0  0  0  0  0  0  0
   45.1696   53.6405   34.0844 S   0  0  2  0  0  0  0  0  0  0  0  0
   46.6336   53.7616   33.0109 C   0  0  0  0  0  0  0  0  0  0  0  0
   44.5139   55.3305   33.8397 C   0  0  0  0  0  0  0  0  0  0  0  0
   43.4727   55.1413   32.7639 C   0  0  1  0  0  0  0  0  0  0  0  0
   44.2169   54.8433   31.6290 O   0  0  0  0  0  0  0  0  0  0  0  0
   42.4857   53.9733   32.7903 C   0  0  1  0  0  0  0  0  0  0  0  0
   41.3003   54.2869   33.4635 O   0  0  0  0  0  0  0  0  0  0  0  0
   42.3065   53.7776   31.2091 C   0  0  1  0  0  0  0  0  0  0  0  0
   41.8831   54.9554   30.5070 O   0  0  0  0  0  0  0  0  0  0  0  0
   43.7924   53.5102   31.1408 C   0  0  1  0  0  0  0  0  0  0  0  0
   48.3378   54.2532   38.1229 O   0  0  0  0  0  0  0  0  0  0  0  0
   43.8976   51.4939   26.5373 N   0  0  0  0  0  0  0  0  0  0  0  0
   42.9149   51.5839   27.4349 C   0  0  0  0  0  0  0  0  0  0  0  0
   43.0798   52.2144   28.5971 N   0  0  0  0  0  0  0  0  0  0  0  0
   44.2812   52.6774   28.9671 C   0  0  0  0  0  0  0  0  0  0  0  0
   45.3788   52.5403   28.0587 C   0  0  0  0  0  0  0  0  0  0  0  0
   45.1243   51.9247   26.8023 C   0  0  0  0  0  0  0  0  0  0  0  0
   46.1134   51.7716   25.8717 N   0  0  0  0  0  0  0  0  0  0  0  0
   46.4602   53.0728   28.6605 N   0  0  0  0  0  0  0  0  0  0  0  0
   46.1238   53.5159   29.8519 C   0  0  0  0  0  0  0  0  0  0  0  0
   44.7880   53.3184   30.1020 N   0  0  0  0  0  0  0  0  0  0  0  0
  2  1  1  1  0  0  0
  2  3  1  0  0  0  0
  2  5  1  0  0  0  0
  3  4  1  0  0  0  0
  3 17  1  0  0  0  0
  5  6  1  0  0  0  0
  7  6  1  1  0  0  0
  7  8  1  0  0  0  0
  7  9  1  0  0  0  0
 10  9  1  1  0  0  0
 10 11  1  0  0  0  0
 10 12  1  0  0  0  0
 11 16  1  0  0  0  0
 12 13  1  1  0  0  0
 12 14  1  0  0  0  0
 14 15  1  6  0  0  0
 14 16  1  0  0  0  0
 16 27  1  6  0  0  0
 18 19  2  0  0  0  0
 18 23  1  0  0  0  0
 19 20  1  0  0  0  0
 20 21  2  0  0  0  0
 21 22  1  0  0  0  0
 21 27  1  0  0  0  0
 22 23  2  0  0  0  0
 22 25  1  0  0  0  0
 23 24  1  0  0  0  0
 25 26  2  0  0  0  0
 26 27  1  0  0  0  0
M  END
>  <CHROM.1>
-171.31738810,60.46051254,166.69325673,-63.76531082,-154.29611735,-69.23800806
-142.60418372,45.05642027,53.35308448,32.21772793,-1.22881858,0.32761254
-1.78007037

>  <Name>
ligand

>  <RI>
0

>  <Rbt.Current_Directory>
/home/itssahil/PROJECTS/Mol_Feturizer/New_Systems/rnas/3IQN

>  <Rbt.Executable>
rbdock ($Id: //depot/dev/client3/rdock/2013.1/src/exe/rbdock.cxx#4 $)

>  <Rbt.Library>
libRbt.so (2013.1, Build901 2013/11/27)

>  <Rbt.Parameter_File>
/export/apps/rDock/src/rDock_2013.1_src/data/scripts/dock_solv.prm

>  <Rbt.Receptor>
prm/pocket_docking_8.prm

>  <SCORE>
-13.673

>  <SCORE.INTER>
-12.3513

>  <SCORE.INTER.CONST>
1

>  <SCORE.INTER.POLAR>
0

>  <SCORE.INTER.ROT>
7

>  <SCORE.INTER.SOLV>
15.2614

>  <SCORE.INTER.VDW>
-21.588

>  <SCORE.INTER.norm>
-0.457454

>  <SCORE.INTRA>
-1.32174

>  <SCORE.INTRA.DIHEDRAL>
-3.67688

>  <SCORE.INTRA.DIHEDRAL.0>
10.0365

>  <SCORE.INTRA.POLAR>
0

>  <SCORE.INTRA.POLAR.0>
0

>  <SCORE.INTRA.REPUL>
0

>  <SCORE.INTRA.REPUL.0>
0

>  <SCORE.INTRA.SOLV>
-0.0604512

>  <SCORE.INTRA.SOLV.lig_0>
-48.6728

>  <SCORE.INTRA.VDW>
0.546923

>  <SCORE.INTRA.VDW.0>
-1.10662

>  <SCORE.INTRA.norm>
-0.0489535

>  <SCORE.RESTR>
0

>  <SCORE.RESTR.CAVITY>
0

>  <SCORE.RESTR.norm>
0

>  <SCORE.SYSTEM>
0

>  <SCORE.SYSTEM.CONST>
0

>  <SCORE.SYSTEM.DIHEDRAL>
0

>  <SCORE.SYSTEM.SOLV>
0

>  <SCORE.SYSTEM.norm>
0

>  <SCORE.heavy>
27

>  <SCORE.norm>
-0.506408

>  <RMSD>
8.276

$$$$
ligand
 OpenBabel11021811483D
libRbt.so/2013.1/901 2013/11/27
 27 29  0  0  0  0  0  0  0  0999 V2000
   48.0882   58.5166   31.6308 N   0  0  0  0  0  0  0  0  0  0  0  0
   48.6940   57.4280   32.4088 C   0  0  2  0  0  0  0  0  0  0  0  0
   49.7178   58.0168   33.3322 C   0  0  0  0  0  0  0  0  0  0  0  0
   50.5981   58.7357   32.8868 O   0  0  0  0  0  0  0  0  0  0  0  0
   49.3721   56.4166   31.4724 C   0  0  0  0  0  0  0  0  0  0  0  0
   48.3038   55.7403   30.6182 C   0  0  0  0  0  0  0  0  0  0  0  0
   48.9887   54.6966   29.2920 S   0  0  2  0  0  0  0  0  0  0  0  0
   50.0290   55.8244   28.3142 C   0  0  0  0  0  0  0  0  0  0  0  0
   47.7182   54.3349   28.0267 C   0  0  0  0  0  0  0  0  0  0  0  0
   48.2783   53.1285   27.3142 C   0  0  1  0  0  0  0  0  0  0  0  0
   47.2694   52.7657   26.4303 O   0  0  0  0  0  0  0  0  0  0  0  0
   49.4792   53.2307   26.3727 C   0  0  1  0  0  0  0  0  0  0  0  0
   50.6970   53.0330   27.0320 O   0  0  0  0  0  0  0  0  0  0  0  0
   49.0872   52.0525   25.3583 C   0  0  1  0  0  0  0  0  0  0  0  0
   48.8706   50.7777   25.9807 O   0  0  0  0  0  0  0  0  0  0  0  0
   47.8225   52.8230   25.0567 C   0  0  1  0  0  0  0  0  0  0  0  0
   49.6569   57.7865   34.5297 O   0  0  0  0  0  0  0  0  0  0  0  0
   46.2273   53.6829   20.3679 N   0  0  0  0  0  0  0  0  0  0  0  0
   47.3835   53.9684   20.9689 C   0  0  0  0  0  0  0  0  0  0  0  0
   47.6316   53.6025   22.2259 N   0  0  0  0  0  0  0  0  0  0  0  0
   46.6793   53.0405   22.9822 C   0  0  0  0  0  0  0  0  0  0  0  0
   45.4012   52.7784   22.3935 C   0  0  0  0  0  0  0  0  0  0  0  0
   45.2200   53.1235   21.0259 C   0  0  0  0  0  0  0  0  0  0  0  0
   44.0362   52.8900   20.3842 N   0  0  0  0  0  0  0  0  0  0  0  0
   44.6309   52.2233   23.3494 N   0  0  0  0  0  0  0  0  0  0  0  0
   45.3195   52.1284   24.4655 C   0  0  0  0  0  0  0  0  0  0  0  0
   46.5994   52.6006   24.3073 N   0  0  0  0  0  0  0  0  0  0  0  0
  2  1  1  6  0  0  0
  2  3  1  0  0  0  0
  2  5  1  0  0  0  0
  3  4  1  0  0  0  0
  3 17  1  0  0  0  0
  5  6  1  0  0  0  0
  7  6  1  1  0  0  0
  7  8  1  0  0  0  0
  7  9  1  0  0  0  0
 10  9  1  6  0  0  0
 10 11  1  0  0  0  0
 10 12  1  0  0  0  0
 11 16  1  0  0  0  0
 12 13  1  1  0  0  0
 12 14  1  0  0  0  0
 14 15  1  1  0  0  0
 14 16  1  0  0  0  0
 16 27  1  6  0  0  0
 18 19  2  0  0  0  0
 18 23  1  0  0  0  0
 19 20  1  0  0  0  0
 20 21  2  0  0  0  0
 21 22  1  0  0  0  0
 21 27  1  0  0  0  0
 22 23  2  0  0  0  0
 22 25  1  0  0  0  0
 23 24  1  0  0  0  0
 25 26  2  0  0  0  0
 26 27  1  0  0  0  0
M  END
>  <CHROM.1>
-53.36705745,-65.40212237,171.45336995,-57.71589436,-161.05113214,174.75331982
159.34277074,47.97046688,54.32485740,26.87693931,1.15109139,-0.77118545,0.84824247

>  <Name>
ligand

>  <RI>
0

>  <Rbt.Current_Directory>
/home/itssahil/PROJECTS/Mol_Feturizer/New_Systems/rnas/3IQN

>  <Rbt.Executable>
rbdock ($Id: //depot/dev/client3/rdock/2013.1/src/exe/rbdock.cxx#4 $)

>  <Rbt.Library>
libRbt.so (2013.1, Build901 2013/11/27)

>  <Rbt.Parameter_File>
/export/apps/rDock/src/rDock_2013.1_src/data/scripts/dock_solv.prm

>  <Rbt.Receptor>
prm/pocket_docking_8.prm

>  <SCORE>
-14.2093

>  <SCORE.INTER>
-11.1073

>  <SCORE.INTER.CONST>
1

>  <SCORE.INTER.POLAR>
0

>  <SCORE.INTER.ROT>
7

>  <SCORE.INTER.SOLV>
10.8519

>  <SCORE.INTER.VDW>
-19.2888

>  <SCORE.INTER.norm>
-0.41138

>  <SCORE.INTRA>
-3.10586

>  <SCORE.INTRA.DIHEDRAL>
-4.53713

>  <SCORE.INTRA.DIHEDRAL.0>
10.0365

>  <SCORE.INTRA.POLAR>
0

>  <SCORE.INTRA.POLAR.0>
0

>  <SCORE.INTRA.REPUL>
0

>  <SCORE.INTRA.REPUL.0>
0

>  <SCORE.INTRA.SOLV>
-0.114131

>  <SCORE.INTRA.SOLV.lig_0>
-48.6728

>  <SCORE.INTRA.VDW>
-0.780232

>  <SCORE.INTRA.VDW.0>
-1.10662

>  <SCORE.INTRA.norm>
-0.115032

>  <SCORE.RESTR>
0.00385791

>  <SCORE.RESTR.CAVITY>
0.00385791

>  <SCORE.RESTR.norm>
0.000142885

>  <SCORE.SYSTEM>
0

>  <SCORE.SYSTEM.CONST>
0

>  <SCORE.SYSTEM.DIHEDRAL>
0

>  <SCORE.SYSTEM.SOLV>
0

>  <SCORE.SYSTEM.norm>
0

>  <SCORE.heavy>
27

>  <SCORE.norm>
-0.526269

>  <RMSD>
8.886

$$$$
ligand
 OpenBabel11021811483D
libRbt.so/2013.1/901 2013/11/27
 27 29  0  0  0  0  0  0  0  0999 V2000
   51.8452   53.2562   19.1833 N   0  0  0  0  0  0  0  0  0  0  0  0
   50.5442   53.5869   18.5871 C   0  0  2  0  0  0  0  0  0  0  0  0
   50.7594   54.6150   17.5176 C   0  0  0  0  0  0  0  0  0  0  0  0
   51.1171   55.7425   17.8195 O   0  0  0  0  0  0  0  0  0  0  0  0
   49.5961   54.1517   19.6555 C   0  0  0  0  0  0  0  0  0  0  0  0
   49.4270   53.1166   20.7637 C   0  0  0  0  0  0  0  0  0  0  0  0
   48.4369   53.7148   22.1705 S   0  0  2  0  0  0  0  0  0  0  0  0
   49.2071   55.2976   22.6310 C   0  0  0  0  0  0  0  0  0  0  0  0
   48.8272   52.7721   23.6887 C   0  0  0  0  0  0  0  0  0  0  0  0
   48.1027   53.5418   24.7655 C   0  0  1  0  0  0  0  0  0  0  0  0
   46.8261   52.9930   24.7654 O   0  0  0  0  0  0  0  0  0  0  0  0
   48.4819   53.4185   26.2420 C   0  0  1  0  0  0  0  0  0  0  0  0
   49.4395   54.3611   26.6312 O   0  0  0  0  0  0  0  0  0  0  0  0
   47.0313   53.6594   26.8811 C   0  0  1  0  0  0  0  0  0  0  0  0
   46.4014   54.8862   26.4840 O   0  0  0  0  0  0  0  0  0  0  0  0
   46.5652   52.4421   26.1161 C   0  0  1  0  0  0  0  0  0  0  0  0
   50.5906   54.3148   16.3462 O   0  0  0  0  0  0  0  0  0  0  0  0
   42.3639   51.4641   28.6971 N   0  0  0  0  0  0  0  0  0  0  0  0
   43.4984   52.0647   29.0600 C   0  0  0  0  0  0  0  0  0  0  0  0
   44.4901   52.2754   28.1955 N   0  0  0  0  0  0  0  0  0  0  0  0
   44.4394   51.7791   26.9521 C   0  0  0  0  0  0  0  0  0  0  0  0
   43.2655   51.0691   26.5442 C   0  0  0  0  0  0  0  0  0  0  0  0
   42.2092   50.9406   27.4877 C   0  0  0  0  0  0  0  0  0  0  0  0
   41.0480   50.2931   27.1717 N   0  0  0  0  0  0  0  0  0  0  0  0
   43.4636   50.6738   25.2715 N   0  0  0  0  0  0  0  0  0  0  0  0
   44.6502   51.0726   24.8695 C   0  0  0  0  0  0  0  0  0  0  0  0
   45.3031   51.7755   25.8522 N   0  0  0  0  0  0  0  0  0  0  0  0
  2  1  1  1  0  0  0
  2  3  1  0  0  0  0
  2  5  1  0  0  0  0
  3  4  1  0  0  0  0
  3 17  1  0  0  0  0
  5  6  1  0  0  0  0
  7  6  1  6  0  0  0
  7  8  1  0  0  0  0
  7  9  1  0  0  0  0
 10  9  1  6  0  0  0
 10 11  1  0  0  0  0
 10 12  1  0  0  0  0
 11 16  1  0  0  0  0
 12 13  1  1  0  0  0
 12 14  1  0  0  0  0
 14 15  1  6  0  0  0
 14 16  1  0  0  0  0
 16 27  1  6  0  0  0
 18 19  2  0  0  0  0
 18 23  1  0  0  0  0
 19 20  1  0  0  0  0
 20 21  2  0  0  0  0
 21 22  1  0  0  0  0
 21 27  1  0  0  0  0
 22 23  2  0  0  0  0
 22 25  1  0  0  0  0
 23 24  1  0  0  0  0
 25 26  2  0  0  0  0
 26 27  1  0  0  0  0
M  END
>  <CHROM.1>
-67.83353166,-58.62459391,175.03261490,-51.45190528,171.01719909,87.15798368
-147.11762287,47.13497950,53.04348641,23.90542041,0.78059322,-0.54247914
-1.74852115

>  <Name>
ligand

>  <RI>
0

>  <Rbt.Current_Directory>
/home/itssahil/PROJECTS/Mol_Feturizer/New_Systems/rnas/3IQN

>  <Rbt.Executable>
rbdock ($Id: //depot/dev/client3/rdock/2013.1/src/exe/rbdock.cxx#4 $)

>  <Rbt.Library>
libRbt.so (2013.1, Build901 2013/11/27)

>  <Rbt.Parameter_File>
/export/apps/rDock/src/rDock_2013.1_src/data/scripts/dock_solv.prm

>  <Rbt.Receptor>
prm/blind_docking_100.prm

>  <SCORE>
-16.6017

>  <SCORE.INTER>
-15.0191

>  <SCORE.INTER.CONST>
1

>  <SCORE.INTER.POLAR>
0

>  <SCORE.INTER.ROT>
7

>  <SCORE.INTER.SOLV>
11.4535

>  <SCORE.INTER.VDW>
-22.0973

>  <SCORE.INTER.norm>
-0.556265

>  <SCORE.INTRA>
-1.85094

>  <SCORE.INTRA.DIHEDRAL>
-4.04118

>  <SCORE.INTRA.DIHEDRAL.0>
10.0365

>  <SCORE.INTRA.POLAR>
0

>  <SCORE.INTRA.POLAR.0>
0

>  <SCORE.INTRA.REPUL>
0

>  <SCORE.INTRA.REPUL.0>
0

>  <SCORE.INTRA.SOLV>
-0.331978

>  <SCORE.INTRA.SOLV.lig_0>
-48.6728

>  <SCORE.INTRA.VDW>
0.335638

>  <SCORE.INTRA.VDW.0>
-1.10662

>  <SCORE.INTRA.norm>
-0.0685535

>  <SCORE.RESTR>
0.268414

>  <SCORE.RESTR.CAVITY>
0.268414

>  <SCORE.RESTR.norm>
0.00994127

>  <SCORE.SYSTEM>
0

>  <SCORE.SYSTEM.CONST>
0

>  <SCORE.SYSTEM.DIHEDRAL>
0

>  <SCORE.SYSTEM.SOLV>
0

>  <SCORE.SYSTEM.norm>
0

>  <SCORE.heavy>
27

>  <SCORE.norm>
-0.614877

>  <RMSD>
9.464

$$$$
ligand
 OpenBabel11021811483D
libRbt.so/2013.1/901 2013/11/27
 27 29  0  0  0  0  0  0  0  0999 V2000
   45.2530   52.0211   19.2474 N   0  0  0  0  0  0  0  0  0  0  0  0
   44.8989   52.8527   20.4052 C   0  0  2  0  0  0  0  0  0  0  0  0
   43.4052   52.8835   20.5287 C   0  0  0  0  0  0  0  0  0  0  0  0
   42.7086   52.7200   19.5397 O   0  0  0  0  0  0  0  0  0  0  0  0
   45.4254   54.2831   20.2154 C   0  0  0  0  0  0  0  0  0  0  0  0
   46.9507   54.2569   20.2480 C   0  0  0  0  0  0  0  0  0  0  0  0
   47.6432   54.4049   21.9261 S   0  0  2  0  0  0  0  0  0  0  0  0
   49.4441   54.4627   21.6737 C   0  0  0  0  0  0  0  0  0  0  0  0
   47.5453   52.8085   22.8137 C   0  0  0  0  0  0  0  0  0  0  0  0
   47.2608   53.2245   24.2360 C   0  0  1  0  0  0  0  0  0  0  0  0
   45.9984   52.7022   24.4896 O   0  0  0  0  0  0  0  0  0  0  0  0
   48.0582   52.6675   25.4163 C   0  0  1  0  0  0  0  0  0  0  0  0
   49.1748   53.4506   25.7276 O   0  0  0  0  0  0  0  0  0  0  0  0
   46.9015   52.7095   26.5258 C   0  0  1  0  0  0  0  0  0  0  0  0
   46.3015   53.9997   26.7128 O   0  0  0  0  0  0  0  0  0  0  0  0
   46.1097   51.7751   25.6402 C   0  0  1  0  0  0  0  0  0  0  0  0
   42.8914   53.0567   21.6227 O   0  0  0  0  0  0  0  0  0  0  0  0
   42.1157   51.7936   28.6925 N   0  0  0  0  0  0  0  0  0  0  0  0
   43.3334   52.3192   28.8356 C   0  0  0  0  0  0  0  0  0  0  0  0
   44.2485   52.2464   27.8699 N   0  0  0  0  0  0  0  0  0  0  0  0
   44.0253   51.5308   26.7595 C   0  0  0  0  0  0  0  0  0  0  0  0
   42.7534   50.8945   26.5976 C   0  0  0  0  0  0  0  0  0  0  0  0
   41.7903   51.0698   27.6290 C   0  0  0  0  0  0  0  0  0  0  0  0
   40.5463   50.5106   27.5433 N   0  0  0  0  0  0  0  0  0  0  0  0
   42.7833   50.2435   25.4184 N   0  0  0  0  0  0  0  0  0  0  0  0
   43.9562   50.4201   24.8510 C   0  0  0  0  0  0  0  0  0  0  0  0
   44.7692   51.2187   25.6172 N   0  0  0  0  0  0  0  0  0  0  0  0
  2  1  1  6  0  0  0
  2  3  1  0  0  0  0
  2  5  1  0  0  0  0
  3  4  1  0  0  0  0
  3 17  1  0  0  0  0
  5  6  1  0  0  0  0
  7  6  1  6  0  0  0
  7  8  1  0  0  0  0
  7  9  1  0  0  0  0
 10  9  1  6  0  0  0
 10 11  1  0  0  0  0
 10 12  1  0  0  0  0
 11 16  1  0  0  0  0
 12 13  1  1  0  0  0
 12 14  1  0  0  0  0
 14 15  1  6  0  0  0
 14 16  1  0  0  0  0
 16 27  1  1  0  0  0
 18 19  2  0  0  0  0
 18 23  1  0  0  0  0
 19 20  1  0  0  0  0
 20 21  2  0  0  0  0
 21 22  1  0  0  0  0
 21 27  1  0  0  0  0
 22 23  2  0  0  0  0
 22 25  1  0  0  0  0
 23 24  1  0  0  0  0
 25 26  2  0  0  0  0
 26 27  1  0  0  0  0
M  END
>  <CHROM.1>
-26.59219805,-67.02022497,-87.56270532,-176.22053184,-144.22262589,115.75428358
-115.61783788,45.22522326,52.60426238,24.14002211,1.07054915,-0.34382033
-1.41846911

>  <Name>
ligand

>  <RI>
0

>  <Rbt.Current_Directory>
/home/itssahil/PROJECTS/Mol_Feturizer/New_Systems/rnas/3IQN

>  <Rbt.Executable>
rbdock ($Id: //depot/dev/client3/rdock/2013.1/src/exe/rbdock.cxx#4 $)

>  <Rbt.Library>
libRbt.so (2013.1, Build901 2013/11/27)

>  <Rbt.Parameter_File>
/export/apps/rDock/src/rDock_2013.1_src/data/scripts/dock_solv.prm

>  <Rbt.Receptor>
prm/blind_docking_80.prm

>  <SCORE>
-18.6253

>  <SCORE.INTER>
-18.8682

>  <SCORE.INTER.CONST>
1

>  <SCORE.INTER.POLAR>
0

>  <SCORE.INTER.ROT>
7

>  <SCORE.INTER.SOLV>
17.344

>  <SCORE.INTER.VDW>
-26.6268

>  <SCORE.INTER.norm>
-0.698823

>  <SCORE.INTRA>
0.242923

>  <SCORE.INTRA.DIHEDRAL>
4.59721

>  <SCORE.INTRA.DIHEDRAL.0>
10.0365

>  <SCORE.INTRA.POLAR>
0

>  <SCORE.INTRA.POLAR.0>
0

>  <SCORE.INTRA.REPUL>
0

>  <SCORE.INTRA.REPUL.0>
0

>  <SCORE.INTRA.SOLV>
0.245839

>  <SCORE.INTRA.SOLV.lig_0>
-48.6728

>  <SCORE.INTRA.VDW>
-2.1786

>  <SCORE.INTRA.VDW.0>
-1.10662

>  <SCORE.INTRA.norm>
0.00899713

>  <SCORE.RESTR>
0

>  <SCORE.RESTR.CAVITY>
0

>  <SCORE.RESTR.norm>
0

>  <SCORE.SYSTEM>
0

>  <SCORE.SYSTEM.CONST>
0

>  <SCORE.SYSTEM.DIHEDRAL>
0

>  <SCORE.SYSTEM.SOLV>
0

>  <SCORE.SYSTEM.norm>
0

>  <SCORE.heavy>
27

>  <SCORE.norm>
-0.689825

>  <RMSD>
9.588

$$$$
ligand
 OpenBabel11021811483D
libRbt.so/2013.1/901 2013/11/27
 27 29  0  0  0  0  0  0  0  0999 V2000
   51.8315   52.6825   18.8746 N   0  0  0  0  0  0  0  0  0  0  0  0
   52.8958   53.0975   17.9515 C   0  0  2  0  0  0  0  0  0  0  0  0
   52.8082   52.2537   16.7155 C   0  0  0  0  0  0  0  0  0  0  0  0
   53.1108   52.7273   15.6318 O   0  0  0  0  0  0  0  0  0  0  0  0
   54.2729   52.9060   18.6043 C   0  0  0  0  0  0  0  0  0  0  0  0
   54.4117   51.4527   19.0483 C   0  0  0  0  0  0  0  0  0  0  0  0
   54.4894   51.2507   20.8567 S   0  0  2  0  0  0  0  0  0  0  0  0
   54.5991   49.4525   21.1113 C   0  0  0  0  0  0  0  0  0  0  0  0
   52.8481   51.5316   21.6140 C   0  0  0  0  0  0  0  0  0  0  0  0
   53.1765   51.7552   23.0697 C   0  0  1  0  0  0  0  0  0  0  0  0
   52.3023   52.7633   23.4572 O   0  0  0  0  0  0  0  0  0  0  0  0
   52.8989   50.6923   24.1338 C   0  0  1  0  0  0  0  0  0  0  0  0
   53.9849   49.8327   24.3306 O   0  0  0  0  0  0  0  0  0  0  0  0
   52.6049   51.6669   25.3725 C   0  0  1  0  0  0  0  0  0  0  0  0
   53.6575   52.5989   25.6605 O   0  0  0  0  0  0  0  0  0  0  0  0
   51.4653   52.2425   24.5636 C   0  0  1  0  0  0  0  0  0  0  0  0
   52.4488   51.0900   16.8009 O   0  0  0  0  0  0  0  0  0  0  0  0
   47.1366   53.0931   26.9734 N   0  0  0  0  0  0  0  0  0  0  0  0
   47.9042   52.0044   26.9037 C   0  0  0  0  0  0  0  0  0  0  0  0
   49.0605   52.0006   26.2416 N   0  0  0  0  0  0  0  0  0  0  0  0
   49.4412   53.0569   25.5108 C   0  0  0  0  0  0  0  0  0  0  0  0
   48.6105   54.2225   25.5052 C   0  0  0  0  0  0  0  0  0  0  0  0
   47.4255   54.1937   26.2908 C   0  0  0  0  0  0  0  0  0  0  0  0
   46.5875   55.2714   26.3540 N   0  0  0  0  0  0  0  0  0  0  0  0
   49.2033   55.1276   24.7024 N   0  0  0  0  0  0  0  0  0  0  0  0
   50.3138   54.6193   24.2153 C   0  0  0  0  0  0  0  0  0  0  0  0
   50.5318   53.3474   24.6850 N   0  0  0  0  0  0  0  0  0  0  0  0
  2  1  1  1  0  0  0
  2  3  1  0  0  0  0
  2  5  1  0  0  0  0
  3  4  1  0  0  0  0
  3 17  1  0  0  0  0
  5  6  1  0  0  0  0
  7  6  1  6  0  0  0
  7  8  1  0  0  0  0
  7  9  1  0  0  0  0
 10  9  1  6  0  0  0
 10 11  1  0  0  0  0
 10 12  1  0  0  0  0
 11 16  1  0  0  0  0
 12 13  1  1  0  0  0
 12 14  1  0  0  0  0
 14 15  1  6  0  0  0
 14 16  1  0  0  0  0
 16 27  1  1  0  0  0
 18 19  2  0  0  0  0
 18 23  1  0  0  0  0
 19 20  1  0  0  0  0
 20 21  2  0  0  0  0
 21 22  1  0  0  0  0
 21 27  1  0  0  0  0
 22 23  2  0  0  0  0
 22 25  1  0  0  0  0
 23 24  1  0  0  0  0
 25 26  2  0  0  0  0
 26 27  1  0  0  0  0
M  END
>  <CHROM.1>
146.97485675,55.80620298,-113.42741762,178.30949467,-162.90936434,141.21036198
169.29013376,51.72033523,52.37631916,22.60325255,0.90595521,0.56307939,-1.38972387

>  <Name>
ligand

>  <RI>
0

>  <Rbt.Current_Directory>
/home/itssahil/PROJECTS/Mol_Feturizer/New_Systems/rnas/3IQN

>  <Rbt.Executable>
rbdock ($Id: //depot/dev/client3/rdock/2013.1/src/exe/rbdock.cxx#4 $)

>  <Rbt.Library>
libRbt.so (2013.1, Build901 2013/11/27)

>  <Rbt.Parameter_File>
/export/apps/rDock/src/rDock_2013.1_src/data/scripts/dock_solv.prm

>  <Rbt.Receptor>
prm/blind_docking_80.prm

>  <SCORE>
-7.28591

>  <SCORE.INTER>
-9.08943

>  <SCORE.INTER.CONST>
1

>  <SCORE.INTER.POLAR>
0

>  <SCORE.INTER.ROT>
7

>  <SCORE.INTER.SOLV>
15.0417

>  <SCORE.INTER.VDW>
-19.3402

>  <SCORE.INTER.norm>
-0.336646

>  <SCORE.INTRA>
1.5538

>  <SCORE.INTRA.DIHEDRAL>
3.5573

>  <SCORE.INTRA.DIHEDRAL.0>
10.0365

>  <SCORE.INTRA.POLAR>
0

>  <SCORE.INTRA.POLAR.0>
0

>  <SCORE.INTRA.REPUL>
0

>  <SCORE.INTRA.REPUL.0>
0

>  <SCORE.INTRA.SOLV>
1.62353

>  <SCORE.INTRA.SOLV.lig_0>
-48.6728

>  <SCORE.INTRA.VDW>
-1.03662

>  <SCORE.INTRA.VDW.0>
-1.10662

>  <SCORE.INTRA.norm>
0.057548

>  <SCORE.RESTR>
0.249726

>  <SCORE.RESTR.CAVITY>
0.249726

>  <SCORE.RESTR.norm>
0.00924912

>  <SCORE.SYSTEM>
0

>  <SCORE.SYSTEM.CONST>
0

>  <SCORE.SYSTEM.DIHEDRAL>
0

>  <SCORE.SYSTEM.SOLV>
0

>  <SCORE.SYSTEM.norm>
0

>  <SCORE.heavy>
27

>  <SCORE.norm>
-0.269849

>  <RMSD>
10.253

$$$$
ligand
 OpenBabel11021811483D
libRbt.so/2013.1/901 2013/11/27
 27 29  0  0  0  0  0  0  0  0999 V2000
   51.8074   55.1419   17.9362 N   0  0  0  0  0  0  0  0  0  0  0  0
   51.9087   53.7386   18.3578 C   0  0  2  0  0  0  0  0  0  0  0  0
   51.2932   52.8780   17.2958 C   0  0  0  0  0  0  0  0  0  0  0  0
   51.6132   51.7037   17.2020 O   0  0  0  0  0  0  0  0  0  0  0  0
   51.1635   53.5250   19.6839 C   0  0  0  0  0  0  0  0  0  0  0  0
   49.7147   53.9728   19.5146 C   0  0  0  0  0  0  0  0  0  0  0  0
   48.7156   53.7843   21.0258 S   0  0  2  0  0  0  0  0  0  0  0  0
   46.9956   53.9697   20.4624 C   0  0  0  0  0  0  0  0  0  0  0  0
   48.8223   55.2838   22.0678 C   0  0  0  0  0  0  0  0  0  0  0  0
   49.7714   54.8709   23.1658 C   0  0  1  0  0  0  0  0  0  0  0  0
   48.9505   54.2511   24.1000 O   0  0  0  0  0  0  0  0  0  0  0  0
   50.8413   53.7996   22.9495 C   0  0  1  0  0  0  0  0  0  0  0  0
   52.0568   54.3351   22.5107 O   0  0  0  0  0  0  0  0  0  0  0  0
   50.8886   53.2065   24.4383 C   0  0  1  0  0  0  0  0  0  0  0  0
   51.1563   54.1791   25.4590 O   0  0  0  0  0  0  0  0  0  0  0  0
   49.4268   52.8589   24.2752 C   0  0  1  0  0  0  0  0  0  0  0  0
   50.4617   53.3527   16.5382 O   0  0  0  0  0  0  0  0  0  0  0  0
   44.4964   52.0189   23.7712 N   0  0  0  0  0  0  0  0  0  0  0  0
   45.3917   52.5299   22.9246 C   0  0  0  0  0  0  0  0  0  0  0  0
   46.6834   52.6219   23.2383 N   0  0  0  0  0  0  0  0  0  0  0  0
   47.1183   52.3197   24.4689 C   0  0  0  0  0  0  0  0  0  0  0  0
   46.1758   51.8308   25.4288 C   0  0  0  0  0  0  0  0  0  0  0  0
   44.8240   51.6838   25.0126 C   0  0  0  0  0  0  0  0  0  0  0  0
   43.8659   51.2069   25.8624 N   0  0  0  0  0  0  0  0  0  0  0  0
   46.8534   51.6090   26.5720 N   0  0  0  0  0  0  0  0  0  0  0  0
   48.1185   51.9223   26.3983 C   0  0  0  0  0  0  0  0  0  0  0  0
   48.3572   52.3545   25.1168 N   0  0  0  0  0  0  0  0  0  0  0  0
  2  1  1  6  0  0  0
  2  3  1  0  0  0  0
  2  5  1  0  0  0  0
  3  4  1  0  0  0  0
  3 17  1  0  0  0  0
  5  6  1  0  0  0  0
  7  6  1  6  0  0  0
  7  8  1  0  0  0  0
  7  9  1  0  0  0  0
 10  9  1  6  0  0  0
 10 11  1  0  0  0  0
 10 12  1  0  0  0  0
 11 16  1  0  0  0  0
 12 13  1  1  0  0  0
 12 14  1  0  0  0  0
 14 15  1  1  0  0  0
 14 16  1  0  0  0  0
 16 27  1  1  0  0  0
 18 19  2  0  0  0  0
 18 23  1  0  0  0  0
 19 20  1  0  0  0  0
 20 21  2  0  0  0  0
 21 22  1  0  0  0  0
 21 27  1  0  0  0  0
 22 23  2  0  0  0  0
 22 25  1  0  0  0  0
 23 24  1  0  0  0  0
 25 26  2  0  0  0  0
 26 27  1  0  0  0  0
M  END
>  <CHROM.1>
157.07385817,56.45468761,-179.55677878,-166.10897119,-103.10274461,-85.66390270
65.38346610,48.86734582,53.21106086,22.29504716,-0.93648003,0.32031548,1.55678378

>  <Name>
ligand

>  <RI>
0

>  <Rbt.Current_Directory>
/home/itssahil/PROJECTS/Mol_Feturizer/New_Systems/rnas/3IQN

>  <Rbt.Executable>
rbdock ($Id: //depot/dev/client3/rdock/2013.1/src/exe/rbdock.cxx#4 $)

>  <Rbt.Library>
libRbt.so (2013.1, Build901 2013/11/27)

>  <Rbt.Parameter_File>
/export/apps/rDock/src/rDock_2013.1_src/data/scripts/dock_solv.prm

>  <Rbt.Receptor>
prm/blind_docking_80.prm

>  <SCORE>
-16.1818

>  <SCORE.INTER>
-15.3862

>  <SCORE.INTER.CONST>
1

>  <SCORE.INTER.POLAR>
0

>  <SCORE.INTER.ROT>
7

>  <SCORE.INTER.SOLV>
18.6294

>  <SCORE.INTER.VDW>
-24.7339

>  <SCORE.INTER.norm>
-0.569859

>  <SCORE.INTRA>
-0.795582

>  <SCORE.INTRA.DIHEDRAL>
-0.651547

>  <SCORE.INTRA.DIHEDRAL.0>
10.0365

>  <SCORE.INTRA.POLAR>
0

>  <SCORE.INTRA.POLAR.0>
0

>  <SCORE.INTRA.REPUL>
0

>  <SCORE.INTRA.REPUL.0>
0

>  <SCORE.INTRA.SOLV>
0.307693

>  <SCORE.INTRA.SOLV.lig_0>
-48.6728

>  <SCORE.INTRA.VDW>
-0.623655

>  <SCORE.INTRA.VDW.0>
-1.10662

>  <SCORE.INTRA.norm>
-0.029466

>  <SCORE.RESTR>
0

>  <SCORE.RESTR.CAVITY>
0

>  <SCORE.RESTR.norm>
0

>  <SCORE.SYSTEM>
0

>  <SCORE.SYSTEM.CONST>
0

>  <SCORE.SYSTEM.DIHEDRAL>
0

>  <SCORE.SYSTEM.SOLV>
0

>  <SCORE.SYSTEM.norm>
0

>  <SCORE.heavy>
27

>  <SCORE.norm>
-0.599325

>  <RMSD>
10.263

$$$$
ligand
 OpenBabel11021811483D
libRbt.so/2013.1/901 2013/11/27
 27 29  0  0  0  0  0  0  0  0999 V2000
   54.2063   49.6394   25.0859 N   0  0  0  0  0  0  0  0  0  0  0  0
   53.8749   50.4407   23.9004 C   0  0  2  0  0  0  0  0  0  0  0  0
   54.3862   49.7259   22.6859 C   0  0  0  0  0  0  0  0  0  0  0  0
   54.8289   48.5928   22.7871 O   0  0  0  0  0  0  0  0  0  0  0  0
   54.5318   51.8261   23.9923 C   0  0  0  0  0  0  0  0  0  0  0  0
   53.7384   52.6854   24.9723 C   0  0  0  0  0  0  0  0  0  0  0  0
   52.1496   53.2716   24.3019 S   0  0  2  0  0  0  0  0  0  0  0  0
   52.6011   54.6289   23.1775 C   0  0  0  0  0  0  0  0  0  0  0  0
   51.2364   54.2472   25.5509 C   0  0  0  0  0  0  0  0  0  0  0  0
   49.8040   53.8245   25.3353 C   0  0  1  0  0  0  0  0  0  0  0  0
   49.5460   54.1821   24.0176 O   0  0  0  0  0  0  0  0  0  0  0  0
   49.3866   52.3531   25.3337 C   0  0  1  0  0  0  0  0  0  0  0  0
   49.0148   51.8988   26.6034 O   0  0  0  0  0  0  0  0  0  0  0  0
   48.1704   52.4520   24.2936 C   0  0  1  0  0  0  0  0  0  0  0  0
   47.1565   53.4028   24.6508 O   0  0  0  0  0  0  0  0  0  0  0  0
   49.1683   52.9558   23.2765 C   0  0  1  0  0  0  0  0  0  0  0  0
   54.3430   50.2758   21.5966 O   0  0  0  0  0  0  0  0  0  0  0  0
   52.0817   52.7631   19.1846 N   0  0  0  0  0  0  0  0  0  0  0  0
   52.2400   52.2399   20.4014 C   0  0  0  0  0  0  0  0  0  0  0  0
   51.3099   52.3653   21.3471 N   0  0  0  0  0  0  0  0  0  0  0  0
   50.2280   53.1316   21.1543 C   0  0  0  0  0  0  0  0  0  0  0  0
   50.0543   53.7659   19.8830 C   0  0  0  0  0  0  0  0  0  0  0  0
   51.0436   53.5346   18.8880 C   0  0  0  0  0  0  0  0  0  0  0  0
   50.9432   54.0885   17.6427 N   0  0  0  0  0  0  0  0  0  0  0  0
   48.9090   54.4727   19.9460 N   0  0  0  0  0  0  0  0  0  0  0  0
   48.3732   54.3317   21.1384 C   0  0  0  0  0  0  0  0  0  0  0  0
   49.1272   53.5031   21.9327 N   0  0  0  0  0  0  0  0  0  0  0  0
  2  1  1  1  0  0  0
  2  3  1  0  0  0  0
  2  5  1  0  0  0  0
  3  4  1  0  0  0  0
  3 17  1  0  0  0  0
  5  6  1  0  0  0  0
  7  6  1  1  0  0  0
  7  8  1  0  0  0  0
  7  9  1  0  0  0  0
 10  9  1  6  0  0  0
 10 11  1  0  0  0  0
 10 12  1  0  0  0  0
 11 16  1  0  0  0  0
 12 13  1  1  0  0  0
 12 14  1  0  0  0  0
 14 15  1  1  0  0  0
 14 16  1  0  0  0  0
 16 27  1  6  0  0  0
 18 19  2  0  0  0  0
 18 23  1  0  0  0  0
 19 20  1  0  0  0  0
 20 21  2  0  0  0  0
 21 22  1  0  0  0  0
 21 27  1  0  0  0  0
 22 23  2  0  0  0  0
 22 25  1  0  0  0  0
 23 24  1  0  0  0  0
 25 26  2  0  0  0  0
 26 27  1  0  0  0  0
M  END
>  <CHROM.1>
8.32261577,-76.55231243,-74.36296790,-76.59406727,-141.24232479,-60.05787894
105.03027752,51.26279351,52.62373026,22.85329386,0.32768370,-0.53255049,1.73581622

>  <Name>
ligand

>  <RI>
0

>  <Rbt.Current_Directory>
/home/itssahil/PROJECTS/Mol_Feturizer/New_Systems/rnas/3IQN

>  <Rbt.Executable>
rbdock ($Id: //depot/dev/client3/rdock/2013.1/src/exe/rbdock.cxx#4 $)

>  <Rbt.Library>
libRbt.so (2013.1, Build901 2013/11/27)

>  <Rbt.Parameter_File>
/export/apps/rDock/src/rDock_2013.1_src/data/scripts/dock_solv.prm

>  <Rbt.Receptor>
prm/blind_docking_80.prm

>  <SCORE>
-12.957

>  <SCORE.INTER>
-10.1115

>  <SCORE.INTER.CONST>
1

>  <SCORE.INTER.POLAR>
0

>  <SCORE.INTER.ROT>
7

>  <SCORE.INTER.SOLV>
11.9896

>  <SCORE.INTER.VDW>
-19.0042

>  <SCORE.INTER.norm>
-0.374499

>  <SCORE.INTRA>
-2.84665

>  <SCORE.INTRA.DIHEDRAL>
-1.18456

>  <SCORE.INTRA.DIHEDRAL.0>
10.0365

>  <SCORE.INTRA.POLAR>
0

>  <SCORE.INTRA.POLAR.0>
0

>  <SCORE.INTRA.REPUL>
0

>  <SCORE.INTRA.REPUL.0>
0

>  <SCORE.INTRA.SOLV>
0.0555083

>  <SCORE.INTRA.SOLV.lig_0>
-48.6728

>  <SCORE.INTRA.VDW>
-2.28212

>  <SCORE.INTRA.VDW.0>
-1.10662

>  <SCORE.INTRA.norm>
-0.105431

>  <SCORE.RESTR>
0.00110529

>  <SCORE.RESTR.CAVITY>
0.00110529

>  <SCORE.RESTR.norm>
4.09366e-05

>  <SCORE.SYSTEM>
0

>  <SCORE.SYSTEM.CONST>
0

>  <SCORE.SYSTEM.DIHEDRAL>
0

>  <SCORE.SYSTEM.SOLV>
0

>  <SCORE.SYSTEM.norm>
0

>  <SCORE.heavy>
27

>  <SCORE.norm>
-0.47989

>  <RMSD>
11.082

$$$$
ligand
 OpenBabel11021811483D
libRbt.so/2013.1/901 2013/11/27
 27 29  0  0  0  0  0  0  0  0999 V2000
   56.4758   50.2043   23.5712 N   0  0  0  0  0  0  0  0  0  0  0  0
   55.0092   50.2579   23.6301 C   0  0  2  0  0  0  0  0  0  0  0  0
   54.4749   48.8711   23.4333 C   0  0  0  0  0  0  0  0  0  0  0  0
   54.4991   48.3606   22.3247 O   0  0  0  0  0  0  0  0  0  0  0  0
   54.4642   51.1767   22.5264 C   0  0  0  0  0  0  0  0  0  0  0  0
   52.9442   51.2417   22.6429 C   0  0  0  0  0  0  0  0  0  0  0  0
   52.1587   52.2434   21.3402 S   0  0  2  0  0  0  0  0  0  0  0  0
   53.3098   52.1484   19.9344 C   0  0  0  0  0  0  0  0  0  0  0  0
   52.3228   54.0285   21.7041 C   0  0  0  0  0  0  0  0  0  0  0  0
   51.2894   54.2549   22.7802 C   0  0  1  0  0  0  0  0  0  0  0  0
   50.1094   54.4502   22.0730 O   0  0  0  0  0  0  0  0  0  0  0  0
   50.8771   53.1475   23.7512 C   0  0  1  0  0  0  0  0  0  0  0  0
   51.6517   53.1384   24.9159 O   0  0  0  0  0  0  0  0  0  0  0  0
   49.3537   53.5901   23.9837 C   0  0  1  0  0  0  0  0  0  0  0  0
   49.1888   54.9386   24.4461 O   0  0  0  0  0  0  0  0  0  0  0  0
   49.1440   53.4095   22.4979 C   0  0  1  0  0  0  0  0  0  0  0  0
   54.0317   48.2518   24.3877 O   0  0  0  0  0  0  0  0  0  0  0  0
   44.1628   52.7601   22.3102 N   0  0  0  0  0  0  0  0  0  0  0  0
   45.0555   52.4428   23.2492 C   0  0  0  0  0  0  0  0  0  0  0  0
   46.3455   52.7531   23.1266 N   0  0  0  0  0  0  0  0  0  0  0  0
   46.8225   53.2874   21.9944 C   0  0  0  0  0  0  0  0  0  0  0  0
   45.9059   53.5815   20.9352 C   0  0  0  0  0  0  0  0  0  0  0  0
   44.5299   53.2963   21.1533 C   0  0  0  0  0  0  0  0  0  0  0  0
   43.5881   53.5637   20.1997 N   0  0  0  0  0  0  0  0  0  0  0  0
   46.6256   54.0994   19.9207 N   0  0  0  0  0  0  0  0  0  0  0  0
   47.8945   54.1425   20.2622 C   0  0  0  0  0  0  0  0  0  0  0  0
   48.0875   53.6705   21.5374 N   0  0  0  0  0  0  0  0  0  0  0  0
  2  1  1  6  0  0  0
  2  3  1  0  0  0  0
  2  5  1  0  0  0  0
  3  4  1  0  0  0  0
  3 17  1  0  0  0  0
  5  6  1  0  0  0  0
  7  6  1  1  0  0  0
  7  8  1  0  0  0  0
  7  9  1  0  0  0  0
 10  9  1  6  0  0  0
 10 11  1  0  0  0  0
 10 12  1  0  0  0  0
 11 16  1  0  0  0  0
 12 13  1  1  0  0  0
 12 14  1  0  0  0  0
 14 15  1  6  0  0  0
 14 16  1  0  0  0  0
 16 27  1  1  0  0  0
 18 19  2  0  0  0  0
 18 23  1  0  0  0  0
 19 20  1  0  0  0  0
 20 21  2  0  0  0  0
 21 22  1  0  0  0  0
 21 27  1  0  0  0  0
 22 23  2  0  0  0  0
 22 25  1  0  0  0  0
 23 24  1  0  0  0  0
 25 26  2  0  0  0  0
 26 27  1  0  0  0  0
M  END
>  <CHROM.1>
-73.77999200,-178.33765090,-177.37742548,26.94134207,-76.47024061,-84.25802313
-153.59827252,50.23296892,52.45456688,22.37532605,0.38629713,-0.01293094
2.70931593

>  <Name>
ligand

>  <RI>
0

>  <Rbt.Current_Directory>
/home/itssahil/PROJECTS/Mol_Feturizer/New_Systems/rnas/3IQN

>  <Rbt.Executable>
rbdock ($Id: //depot/dev/client3/rdock/2013.1/src/exe/rbdock.cxx#4 $)

>  <Rbt.Library>
libRbt.so (2013.1, Build901 2013/11/27)

>  <Rbt.Parameter_File>
/export/apps/rDock/src/rDock_2013.1_src/data/scripts/dock_solv.prm

>  <Rbt.Receptor>
prm/blind_docking_80.prm

>  <SCORE>
-14.1881

>  <SCORE.INTER>
-14.0069

>  <SCORE.INTER.CONST>
1

>  <SCORE.INTER.POLAR>
0

>  <SCORE.INTER.ROT>
7

>  <SCORE.INTER.SOLV>
15.6061

>  <SCORE.INTER.VDW>
-22.8067

>  <SCORE.INTER.norm>
-0.518775

>  <SCORE.INTRA>
-0.181161

>  <SCORE.INTRA.DIHEDRAL>
-3.2435

>  <SCORE.INTRA.DIHEDRAL.0>
10.0365

>  <SCORE.INTRA.POLAR>
0

>  <SCORE.INTRA.POLAR.0>
0

>  <SCORE.INTRA.REPUL>
0

>  <SCORE.INTRA.REPUL.0>
0

>  <SCORE.INTRA.SOLV>
-0.635599

>  <SCORE.INTRA.SOLV.lig_0>
-48.6728

>  <SCORE.INTRA.VDW>
1.75839

>  <SCORE.INTRA.VDW.0>
-1.10662

>  <SCORE.INTRA.norm>
-0.00670967

>  <SCORE.RESTR>
0

>  <SCORE.RESTR.CAVITY>
0

>  <SCORE.RESTR.norm>
0

>  <SCORE.SYSTEM>
0

>  <SCORE.SYSTEM.CONST>
0

>  <SCORE.SYSTEM.DIHEDRAL>
0

>  <SCORE.SYSTEM.SOLV>
0

>  <SCORE.SYSTEM.norm>
0

>  <SCORE.heavy>
27

>  <SCORE.norm>
-0.525485

>  <RMSD>
11.173

$$$$
ligand
 OpenBabel11021811483D
libRbt.so/2013.1/901 2013/11/27
 27 29  0  0  0  0  0  0  0  0999 V2000
   49.9917   55.4925   26.5776 N   0  0  0  0  0  0  0  0  0  0  0  0
   49.1200   54.4789   25.9691 C   0  0  2  0  0  0  0  0  0  0  0  0
   47.7036   54.9644   26.0431 C   0  0  0  0  0  0  0  0  0  0  0  0
   46.7867   54.2161   25.7440 O   0  0  0  0  0  0  0  0  0  0  0  0
   49.2435   53.1467   26.7237 C   0  0  0  0  0  0  0  0  0  0  0  0
   50.6326   52.5656   26.4768 C   0  0  0  0  0  0  0  0  0  0  0  0
   50.7614   51.6302   24.9192 S   0  0  2  0  0  0  0  0  0  0  0  0
   52.3330   50.7241   25.0591 C   0  0  0  0  0  0  0  0  0  0  0  0
   51.2086   52.7351   23.5317 C   0  0  0  0  0  0  0  0  0  0  0  0
   49.9275   53.4870   23.2663 C   0  0  1  0  0  0  0  0  0  0  0  0
   50.1868   54.1824   22.0916 O   0  0  0  0  0  0  0  0  0  0  0  0
   48.6268   52.7669   22.9074 C   0  0  1  0  0  0  0  0  0  0  0  0
   47.8579   52.4539   24.0333 O   0  0  0  0  0  0  0  0  0  0  0  0
   47.9812   53.8954   21.9691 C   0  0  1  0  0  0  0  0  0  0  0  0
   47.8481   55.1824   22.5901 O   0  0  0  0  0  0  0  0  0  0  0  0
   49.1939   53.7545   21.0782 C   0  0  1  0  0  0  0  0  0  0  0  0
   47.4725   56.1033   26.4178 O   0  0  0  0  0  0  0  0  0  0  0  0
   53.1289   53.1172   18.0157 N   0  0  0  0  0  0  0  0  0  0  0  0
   52.7355   52.4375   19.0940 C   0  0  0  0  0  0  0  0  0  0  0  0
   51.6143   52.7417   19.7465 N   0  0  0  0  0  0  0  0  0  0  0  0
   50.8980   53.8257   19.4203 C   0  0  0  0  0  0  0  0  0  0  0  0
   51.3246   54.6212   18.3094 C   0  0  0  0  0  0  0  0  0  0  0  0
   52.4877   54.2041   17.6055 C   0  0  0  0  0  0  0  0  0  0  0  0
   52.9511   54.8977   16.5231 N   0  0  0  0  0  0  0  0  0  0  0  0
   50.4511   55.6404   18.1932 N   0  0  0  0  0  0  0  0  0  0  0  0
   49.5366   55.5418   19.1327 C   0  0  0  0  0  0  0  0  0  0  0  0
   49.7418   54.4345   19.9187 N   0  0  0  0  0  0  0  0  0  0  0  0
  2  1  1  1  0  0  0
  2  3  1  0  0  0  0
  2  5  1  0  0  0  0
  3  4  1  0  0  0  0
  3 17  1  0  0  0  0
  5  6  1  0  0  0  0
  7  6  1  1  0  0  0
  7  8  1  0  0  0  0
  7  9  1  0  0  0  0
 10  9  1  6  0  0  0
 10 11  1  0  0  0  0
 10 12  1  0  0  0  0
 11 16  1  0  0  0  0
 12 13  1  1  0  0  0
 12 14  1  0  0  0  0
 14 15  1  1  0  0  0
 14 16  1  0  0  0  0
 16 27  1  6  0  0  0
 18 19  2  0  0  0  0
 18 23  1  0  0  0  0
 19 20  1  0  0  0  0
 20 21  2  0  0  0  0
 21 22  1  0  0  0  0
 21 27  1  0  0  0  0
 22 23  2  0  0  0  0
 22 25  1  0  0  0  0
 23 24  1  0  0  0  0
 25 26  2  0  0  0  0
 26 27  1  0  0  0  0
M  END
>  <CHROM.1>
-171.16222761,-68.65475227,-83.50850234,-166.56244794,-74.30678836,-171.36245277
74.23669325,50.04284681,53.71770114,22.51335325,2.03779044,-0.68901521,1.93583526

>  <Name>
ligand

>  <RI>
0

>  <Rbt.Current_Directory>
/home/itssahil/PROJECTS/Mol_Feturizer/New_Systems/rnas/3IQN

>  <Rbt.Executable>
rbdock ($Id: //depot/dev/client3/rdock/2013.1/src/exe/rbdock.cxx#4 $)

>  <Rbt.Library>
libRbt.so (2013.1, Build901 2013/11/27)

>  <Rbt.Parameter_File>
/export/apps/rDock/src/rDock_2013.1_src/data/scripts/dock_solv.prm

>  <Rbt.Receptor>
prm/blind_docking_80.prm

>  <SCORE>
-12.9979

>  <SCORE.INTER>
-9.66385

>  <SCORE.INTER.CONST>
1

>  <SCORE.INTER.POLAR>
0

>  <SCORE.INTER.ROT>
7

>  <SCORE.INTER.SOLV>
9.11997

>  <SCORE.INTER.VDW>
-17.7492

>  <SCORE.INTER.norm>
-0.35792

>  <SCORE.INTRA>
-3.33736

>  <SCORE.INTRA.DIHEDRAL>
-3.20773

>  <SCORE.INTRA.DIHEDRAL.0>
10.0365

>  <SCORE.INTRA.POLAR>
0

>  <SCORE.INTRA.POLAR.0>
0

>  <SCORE.INTRA.REPUL>
0

>  <SCORE.INTRA.REPUL.0>
0

>  <SCORE.INTRA.SOLV>
1.86349

>  <SCORE.INTRA.SOLV.lig_0>
-48.6728

>  <SCORE.INTRA.VDW>
-2.66524

>  <SCORE.INTRA.VDW.0>
-1.10662

>  <SCORE.INTRA.norm>
-0.123606

>  <SCORE.RESTR>
0.00326416

>  <SCORE.RESTR.CAVITY>
0.00326416

>  <SCORE.RESTR.norm>
0.000120895

>  <SCORE.SYSTEM>
0

>  <SCORE.SYSTEM.CONST>
0

>  <SCORE.SYSTEM.DIHEDRAL>
0

>  <SCORE.SYSTEM.SOLV>
0

>  <SCORE.SYSTEM.norm>
0

>  <SCORE.heavy>
27

>  <SCORE.norm>
-0.481405

>  <RMSD>
11.194

$$$$
ligand
 OpenBabel11021811483D
libRbt.so/2013.1/901 2013/11/27
 27 29  0  0  0  0  0  0  0  0999 V2000
   54.0974   55.4292   17.1503 N   0  0  0  0  0  0  0  0  0  0  0  0
   54.2890   53.9759   17.0572 C   0  0  2  0  0  0  0  0  0  0  0  0
   53.5345   53.4729   15.8634 C   0  0  0  0  0  0  0  0  0  0  0  0
   52.8844   52.4427   15.9433 O   0  0  0  0  0  0  0  0  0  0  0  0
   53.7601   53.2861   18.3237 C   0  0  0  0  0  0  0  0  0  0  0  0
   52.3225   53.7354   18.5678 C   0  0  0  0  0  0  0  0  0  0  0  0
   51.5518   52.9461   20.0171 S   0  0  2  0  0  0  0  0  0  0  0  0
   49.8424   53.5692   20.0215 C   0  0  0  0  0  0  0  0  0  0  0  0
   52.1286   53.7273   21.5671 C   0  0  0  0  0  0  0  0  0  0  0  0
   53.1006   52.7141   22.1201 C   0  0  1  0  0  0  0  0  0  0  0  0
   52.7287   52.5888   23.4530 O   0  0  0  0  0  0  0  0  0  0  0  0
   53.0906   51.2532   21.6675 C   0  0  1  0  0  0  0  0  0  0  0  0
   53.9352   51.0231   20.5764 O   0  0  0  0  0  0  0  0  0  0  0  0
   53.5896   50.5777   23.0332 C   0  0  1  0  0  0  0  0  0  0  0  0
   54.8380   51.0843   23.5274 O   0  0  0  0  0  0  0  0  0  0  0  0
   52.3682   51.1722   23.6959 C   0  0  1  0  0  0  0  0  0  0  0  0
   53.5613   54.1055   14.8195 O   0  0  0  0  0  0  0  0  0  0  0  0
   48.0121   52.5321   25.8039 N   0  0  0  0  0  0  0  0  0  0  0  0
   48.3951   52.4906   24.5268 C   0  0  0  0  0  0  0  0  0  0  0  0
   49.5974   52.0424   24.1675 N   0  0  0  0  0  0  0  0  0  0  0  0
   50.5212   51.7310   25.0864 C   0  0  0  0  0  0  0  0  0  0  0  0
   50.1710   51.8267   26.4710 C   0  0  0  0  0  0  0  0  0  0  0  0
   48.8487   52.2400   26.7915 C   0  0  0  0  0  0  0  0  0  0  0  0
   48.4293   52.3398   28.0884 N   0  0  0  0  0  0  0  0  0  0  0  0
   51.2593   51.4695   27.1805 N   0  0  0  0  0  0  0  0  0  0  0  0
   52.2397   51.1709   26.3568 C   0  0  0  0  0  0  0  0  0  0  0  0
   51.8495   51.2955   25.0460 N   0  0  0  0  0  0  0  0  0  0  0  0
  2  1  1  1  0  0  0
  2  3  1  0  0  0  0
  2  5  1  0  0  0  0
  3  4  1  0  0  0  0
  3 17  1  0  0  0  0
  5  6  1  0  0  0  0
  7  6  1  6  0  0  0
  7  8  1  0  0  0  0
  7  9  1  0  0  0  0
 10  9  1  6  0  0  0
 10 11  1  0  0  0  0
 10 12  1  0  0  0  0
 11 16  1  0  0  0  0
 12 13  1  6  0  0  0
 12 14  1  0  0  0  0
 14 15  1  1  0  0  0
 14 16  1  0  0  0  0
 16 27  1  1  0  0  0
 18 19  2  0  0  0  0
 18 23  1  0  0  0  0
 19 20  1  0  0  0  0
 20 21  2  0  0  0  0
 21 22  1  0  0  0  0
 21 27  1  0  0  0  0
 22 23  2  0  0  0  0
 22 25  1  0  0  0  0
 23 24  1  0  0  0  0
 25 26  2  0  0  0  0
 26 27  1  0  0  0  0
M  END
>  <CHROM.1>
-137.22119782,52.76084404,178.11512915,-176.74413508,-104.58883242,-132.23954673
82.14882153,51.93079912,52.48974833,21.88712900,1.21109580,0.35706771,-1.25243893

>  <Name>
ligand

>  <RI>
0

>  <Rbt.Current_Directory>
/home/itssahil/PROJECTS/Mol_Feturizer/New_Systems/rnas/3IQN

>  <Rbt.Executable>
rbdock ($Id: //depot/dev/client3/rdock/2013.1/src/exe/rbdock.cxx#4 $)

>  <Rbt.Library>
libRbt.so (2013.1, Build901 2013/11/27)

>  <Rbt.Parameter_File>
/export/apps/rDock/src/rDock_2013.1_src/data/scripts/dock_solv.prm

>  <Rbt.Receptor>
prm/blind_docking_80.prm

>  <SCORE>
-9.01342

>  <SCORE.INTER>
-11.228

>  <SCORE.INTER.CONST>
1

>  <SCORE.INTER.POLAR>
0

>  <SCORE.INTER.ROT>
7

>  <SCORE.INTER.SOLV>
7.43927

>  <SCORE.INTER.VDW>
-18.2318

>  <SCORE.INTER.norm>
-0.415853

>  <SCORE.INTRA>
2.21461

>  <SCORE.INTRA.DIHEDRAL>
1.43416

>  <SCORE.INTRA.DIHEDRAL.0>
10.0365

>  <SCORE.INTRA.POLAR>
0

>  <SCORE.INTRA.POLAR.0>
0

>  <SCORE.INTRA.REPUL>
0

>  <SCORE.INTRA.REPUL.0>
0

>  <SCORE.INTRA.SOLV>
0.19511

>  <SCORE.INTRA.SOLV.lig_0>
-48.6728

>  <SCORE.INTRA.VDW>
1.39998

>  <SCORE.INTRA.VDW.0>
-1.10662

>  <SCORE.INTRA.norm>
0.0820228

>  <SCORE.RESTR>
0

>  <SCORE.RESTR.CAVITY>
0

>  <SCORE.RESTR.norm>
0

>  <SCORE.SYSTEM>
0

>  <SCORE.SYSTEM.CONST>
0

>  <SCORE.SYSTEM.DIHEDRAL>
0

>  <SCORE.SYSTEM.SOLV>
0

>  <SCORE.SYSTEM.norm>
0

>  <SCORE.heavy>
27

>  <SCORE.norm>
-0.33383

>  <RMSD>
11.254

$$$$
ligand
 OpenBabel11021811483D
libRbt.so/2013.1/901 2013/11/27
 27 29  0  0  0  0  0  0  0  0999 V2000
   55.9045   56.0145   18.0696 N   0  0  0  0  0  0  0  0  0  0  0  0
   55.2431   55.3576   16.9346 C   0  0  2  0  0  0  0  0  0  0  0  0
   54.8662   56.4068   15.9324 C   0  0  0  0  0  0  0  0  0  0  0  0
   54.3751   57.4594   16.3079 O   0  0  0  0  0  0  0  0  0  0  0  0
   53.9788   54.6236   17.4059 C   0  0  0  0  0  0  0  0  0  0  0  0
   54.3897   53.3372   18.1162 C   0  0  0  0  0  0  0  0  0  0  0  0
   52.9766   52.3483   18.7015 S   0  0  2  0  0  0  0  0  0  0  0  0
   51.7975   52.3718   17.3160 C   0  0  0  0  0  0  0  0  0  0  0  0
   51.9841   53.2876   19.9175 C   0  0  0  0  0  0  0  0  0  0  0  0
   52.5862   52.8791   21.2395 C   0  0  1  0  0  0  0  0  0  0  0  0
   51.9097   53.6597   22.1689 O   0  0  0  0  0  0  0  0  0  0  0  0
   52.3856   51.4790   21.8212 C   0  0  1  0  0  0  0  0  0  0  0  0
   53.3884   50.5858   21.4295 O   0  0  0  0  0  0  0  0  0  0  0  0
   52.4230   51.8606   23.3780 C   0  0  1  0  0  0  0  0  0  0  0  0
   53.6055   52.5605   23.7919 O   0  0  0  0  0  0  0  0  0  0  0  0
   51.2288   52.7504   23.1204 C   0  0  1  0  0  0  0  0  0  0  0  0
   55.0671   56.2094   14.7443 O   0  0  0  0  0  0  0  0  0  0  0  0
   46.8546   52.8145   25.5967 N   0  0  0  0  0  0  0  0  0  0  0  0
   47.4594   51.8465   24.9062 C   0  0  0  0  0  0  0  0  0  0  0  0
   48.6619   52.0191   24.3590 N   0  0  0  0  0  0  0  0  0  0  0  0
   49.2614   53.2172   24.3730 C   0  0  0  0  0  0  0  0  0  0  0  0
   48.6131   54.3008   25.0469 C   0  0  0  0  0  0  0  0  0  0  0  0
   47.3654   54.0366   25.6759 C   0  0  0  0  0  0  0  0  0  0  0  0
   46.6904   55.0117   26.3550 N   0  0  0  0  0  0  0  0  0  0  0  0
   49.4064   55.3816   24.9137 N   0  0  0  0  0  0  0  0  0  0  0  0
   50.4736   55.0576   24.2175 C   0  0  0  0  0  0  0  0  0  0  0  0
   50.4580   53.7309   23.8631 N   0  0  0  0  0  0  0  0  0  0  0  0
  2  1  1  1  0  0  0
  2  3  1  0  0  0  0
  2  5  1  0  0  0  0
  3  4  1  0  0  0  0
  3 17  1  0  0  0  0
  5  6  1  0  0  0  0
  7  6  1  6  0  0  0
  7  8  1  0  0  0  0
  7  9  1  0  0  0  0
 10  9  1  6  0  0  0
 10 11  1  0  0  0  0
 10 12  1  0  0  0  0
 11 16  1  0  0  0  0
 12 13  1  1  0  0  0
 12 14  1  0  0  0  0
 14 15  1  6  0  0  0
 14 16  1  0  0  0  0
 16 27  1  1  0  0  0
 18 19  2  0  0  0  0
 18 23  1  0  0  0  0
 19 20  1  0  0  0  0
 20 21  2  0  0  0  0
 21 22  1  0  0  0  0
 21 27  1  0  0  0  0
 22 23  2  0  0  0  0
 22 25  1  0  0  0  0
 23 24  1  0  0  0  0
 25 26  2  0  0  0  0
 26 27  1  0  0  0  0
M  END
>  <CHROM.1>
-43.08486581,-75.87654258,-178.89815744,43.87989203,-92.40346875,175.72154632
150.53296709,51.76707202,53.66641464,21.22976229,0.50507579,0.84624834,-0.43902592

>  <Name>
ligand

>  <RI>
0

>  <Rbt.Current_Directory>
/home/itssahil/PROJECTS/Mol_Feturizer/New_Systems/rnas/3IQN

>  <Rbt.Executable>
rbdock ($Id: //depot/dev/client3/rdock/2013.1/src/exe/rbdock.cxx#4 $)

>  <Rbt.Library>
libRbt.so (2013.1, Build901 2013/11/27)

>  <Rbt.Parameter_File>
/export/apps/rDock/src/rDock_2013.1_src/data/scripts/dock_solv.prm

>  <Rbt.Receptor>
prm/blind_docking_100.prm

>  <SCORE>
-10.4719

>  <SCORE.INTER>
-7.63452

>  <SCORE.INTER.CONST>
1

>  <SCORE.INTER.POLAR>
0

>  <SCORE.INTER.ROT>
7

>  <SCORE.INTER.SOLV>
11.5175

>  <SCORE.INTER.VDW>
-17.1955

>  <SCORE.INTER.norm>
-0.28276

>  <SCORE.INTRA>
-2.94546

>  <SCORE.INTRA.DIHEDRAL>
-3.70935

>  <SCORE.INTRA.DIHEDRAL.0>
10.0365

>  <SCORE.INTRA.POLAR>
0

>  <SCORE.INTRA.POLAR.0>
0

>  <SCORE.INTRA.REPUL>
0

>  <SCORE.INTRA.REPUL.0>
0

>  <SCORE.INTRA.SOLV>
-0.499512

>  <SCORE.INTRA.SOLV.lig_0>
-48.6728

>  <SCORE.INTRA.VDW>
-0.841026

>  <SCORE.INTRA.VDW.0>
-1.10662

>  <SCORE.INTRA.norm>
-0.109091

>  <SCORE.RESTR>
0.108123

>  <SCORE.RESTR.CAVITY>
0.108123

>  <SCORE.RESTR.norm>
0.00400455

>  <SCORE.SYSTEM>
0

>  <SCORE.SYSTEM.CONST>
0

>  <SCORE.SYSTEM.DIHEDRAL>
0

>  <SCORE.SYSTEM.SOLV>
0

>  <SCORE.SYSTEM.norm>
0

>  <SCORE.heavy>
27

>  <SCORE.norm>
-0.387846

>  <RMSD>
11.281

$$$$
ligand
 OpenBabel11021811483D
libRbt.so/2013.1/901 2013/11/27
 27 29  0  0  0  0  0  0  0  0999 V2000
   55.6213   46.3968   18.7818 N   0  0  0  0  0  0  0  0  0  0  0  0
   54.9895   47.6570   19.1944 C   0  0  2  0  0  0  0  0  0  0  0  0
   55.2767   48.6956   18.1522 C   0  0  0  0  0  0  0  0  0  0  0  0
   55.9251   48.4009   17.1608 O   0  0  0  0  0  0  0  0  0  0  0  0
   55.5544   48.1195   20.5458 C   0  0  0  0  0  0  0  0  0  0  0  0
   54.5384   49.0382   21.2180 C   0  0  0  0  0  0  0  0  0  0  0  0
   55.2542   50.0689   22.5382 S   0  0  2  0  0  0  0  0  0  0  0  0
   56.1711   48.8976   23.5858 C   0  0  0  0  0  0  0  0  0  0  0  0
   53.9716   50.5643   23.7446 C   0  0  0  0  0  0  0  0  0  0  0  0
   52.9502   51.2710   22.8876 C   0  0  1  0  0  0  0  0  0  0  0  0
   52.1336   51.9173   23.8075 O   0  0  0  0  0  0  0  0  0  0  0  0
   53.3321   52.4270   21.9618 C   0  0  1  0  0  0  0  0  0  0  0  0
   53.6715   51.9952   20.6753 O   0  0  0  0  0  0  0  0  0  0  0  0
   51.9592   53.2520   22.0327 C   0  0  1  0  0  0  0  0  0  0  0  0
   50.7926   52.5003   21.6674 O   0  0  0  0  0  0  0  0  0  0  0  0
   52.1845   53.3705   23.5225 C   0  0  1  0  0  0  0  0  0  0  0  0
   54.8464   49.8296   18.2926 O   0  0  0  0  0  0  0  0  0  0  0  0
   47.7957   55.6977   24.2919 N   0  0  0  0  0  0  0  0  0  0  0  0
   48.4071   55.3247   23.1665 C   0  0  0  0  0  0  0  0  0  0  0  0
   49.5627   54.6617   23.1806 N   0  0  0  0  0  0  0  0  0  0  0  0
   50.2240   54.4511   24.3265 C   0  0  0  0  0  0  0  0  0  0  0  0
   49.6328   54.8964   25.5516 C   0  0  0  0  0  0  0  0  0  0  0  0
   48.3627   55.5320   25.4801 C   0  0  0  0  0  0  0  0  0  0  0  0
   47.7222   55.9703   26.6050 N   0  0  0  0  0  0  0  0  0  0  0  0
   50.4859   54.5743   26.5434 N   0  0  0  0  0  0  0  0  0  0  0  0
   51.5428   53.9798   26.0352 C   0  0  0  0  0  0  0  0  0  0  0  0
   51.4417   53.8559   24.6712 N   0  0  0  0  0  0  0  0  0  0  0  0
  2  1  1  6  0  0  0
  2  3  1  0  0  0  0
  2  5  1  0  0  0  0
  3  4  1  0  0  0  0
  3 17  1  0  0  0  0
  5  6  1  0  0  0  0
  7  6  1  6  0  0  0
  7  8  1  0  0  0  0
  7  9  1  0  0  0  0
 10  9  1  1  0  0  0
 10 11  1  0  0  0  0
 10 12  1  0  0  0  0
 11 16  1  0  0  0  0
 12 13  1  6  0  0  0
 12 14  1  0  0  0  0
 14 15  1  1  0  0  0
 14 16  1  0  0  0  0
 16 27  1  1  0  0  0
 18 19  2  0  0  0  0
 18 23  1  0  0  0  0
 19 20  1  0  0  0  0
 20 21  2  0  0  0  0
 21 22  1  0  0  0  0
 21 27  1  0  0  0  0
 22 23  2  0  0  0  0
 22 25  1  0  0  0  0
 23 24  1  0  0  0  0
 25 26  2  0  0  0  0
 26 27  1  0  0  0  0
M  END
>  <CHROM.1>
1.01057254,-156.59908643,-161.63087048,-50.09566297,-57.18288785,-166.73829189
-114.23673614,52.60090629,51.80076139,22.49290378,0.68275193,0.71254882,-1.77117840

>  <Name>
ligand

>  <RI>
0

>  <Rbt.Current_Directory>
/home/itssahil/PROJECTS/Mol_Feturizer/New_Systems/rnas/3IQN

>  <Rbt.Executable>
rbdock ($Id: //depot/dev/client3/rdock/2013.1/src/exe/rbdock.cxx#4 $)

>  <Rbt.Library>
libRbt.so (2013.1, Build901 2013/11/27)

>  <Rbt.Parameter_File>
/export/apps/rDock/src/rDock_2013.1_src/data/scripts/dock_solv.prm

>  <Rbt.Receptor>
prm/blind_docking_80.prm

>  <SCORE>
-15.5436

>  <SCORE.INTER>
-13.5598

>  <SCORE.INTER.CONST>
1

>  <SCORE.INTER.POLAR>
0

>  <SCORE.INTER.ROT>
7

>  <SCORE.INTER.SOLV>
11.4944

>  <SCORE.INTER.VDW>
-21.138

>  <SCORE.INTER.norm>
-0.502213

>  <SCORE.INTRA>
-2.06348

>  <SCORE.INTRA.DIHEDRAL>
-2.16798

>  <SCORE.INTRA.DIHEDRAL.0>
10.0365

>  <SCORE.INTRA.POLAR>
0

>  <SCORE.INTRA.POLAR.0>
0

>  <SCORE.INTRA.REPUL>
0

>  <SCORE.INTRA.REPUL.0>
0

>  <SCORE.INTRA.SOLV>
-0.52189

>  <SCORE.INTRA.SOLV.lig_0>
-48.6728

>  <SCORE.INTRA.VDW>
-0.718542

>  <SCORE.INTRA.VDW.0>
-1.10662

>  <SCORE.INTRA.norm>
-0.0764252

>  <SCORE.RESTR>
0.0796434

>  <SCORE.RESTR.CAVITY>
0.0796434

>  <SCORE.RESTR.norm>
0.00294975

>  <SCORE.SYSTEM>
0

>  <SCORE.SYSTEM.CONST>
0

>  <SCORE.SYSTEM.DIHEDRAL>
0

>  <SCORE.SYSTEM.SOLV>
0

>  <SCORE.SYSTEM.norm>
0

>  <SCORE.heavy>
27

>  <SCORE.norm>
-0.575689

>  <RMSD>
11.291

$$$$
ligand
 OpenBabel11021811483D
libRbt.so/2013.1/901 2013/11/27
 27 29  0  0  0  0  0  0  0  0999 V2000
   47.3978   55.0801   19.5661 N   0  0  0  0  0  0  0  0  0  0  0  0
   47.0791   53.7426   20.0826 C   0  0  2  0  0  0  0  0  0  0  0  0
   45.7963   53.8246   20.8541 C   0  0  0  0  0  0  0  0  0  0  0  0
   45.6269   53.1136   21.8318 O   0  0  0  0  0  0  0  0  0  0  0  0
   48.2007   53.2467   21.0075 C   0  0  0  0  0  0  0  0  0  0  0  0
   48.4803   54.3139   22.0616 C   0  0  0  0  0  0  0  0  0  0  0  0
   49.1785   53.6441   23.6048 S   0  0  2  0  0  0  0  0  0  0  0  0
   49.8055   55.1027   24.4934 C   0  0  0  0  0  0  0  0  0  0  0  0
   50.7765   52.8121   23.2887 C   0  0  0  0  0  0  0  0  0  0  0  0
   51.0996   52.1749   24.6179 C   0  0  1  0  0  0  0  0  0  0  0  0
   51.8494   51.0558   24.2772 O   0  0  0  0  0  0  0  0  0  0  0  0
   52.0172   52.8515   25.6372 C   0  0  1  0  0  0  0  0  0  0  0  0
   51.3162   53.6628   26.5357 O   0  0  0  0  0  0  0  0  0  0  0  0
   52.6471   51.5350   26.3010 C   0  0  1  0  0  0  0  0  0  0  0  0
   51.6817   50.6116   26.8252 O   0  0  0  0  0  0  0  0  0  0  0  0
   53.1739   51.1765   24.9305 C   0  0  1  0  0  0  0  0  0  0  0  0
   44.9318   54.6150   20.5094 O   0  0  0  0  0  0  0  0  0  0  0  0
   54.7312   49.9507   20.3109 N   0  0  0  0  0  0  0  0  0  0  0  0
   54.0861   51.0268   20.7641 C   0  0  0  0  0  0  0  0  0  0  0  0
   53.8063   51.1862   22.0569 N   0  0  0  0  0  0  0  0  0  0  0  0
   54.0510   50.2105   22.9418 C   0  0  0  0  0  0  0  0  0  0  0  0
   54.6821   49.0106   22.4829 C   0  0  0  0  0  0  0  0  0  0  0  0
   55.0244   48.9289   21.1051 C   0  0  0  0  0  0  0  0  0  0  0  0
   55.6452   47.8255   20.5905 N   0  0  0  0  0  0  0  0  0  0  0  0
   54.8106   48.1976   23.5495 N   0  0  0  0  0  0  0  0  0  0  0  0
   54.3118   48.7889   24.6127 C   0  0  0  0  0  0  0  0  0  0  0  0
   53.8383   50.0428   24.3138 N   0  0  0  0  0  0  0  0  0  0  0  0
  2  1  1  1  0  0  0
  2  3  1  0  0  0  0
  2  5  1  0  0  0  0
  3  4  1  0  0  0  0
  3 17  1  0  0  0  0
  5  6  1  0  0  0  0
  7  6  1  6  0  0  0
  7  8  1  0  0  0  0
  7  9  1  0  0  0  0
 10  9  1  6  0  0  0
 10 11  1  0  0  0  0
 10 12  1  0  0  0  0
 11 16  1  0  0  0  0
 12 13  1  1  0  0  0
 12 14  1  0  0  0  0
 14 15  1  6  0  0  0
 14 16  1  0  0  0  0
 16 27  1  1  0  0  0
 18 19  2  0  0  0  0
 18 23  1  0  0  0  0
 19 20  1  0  0  0  0
 20 21  2  0  0  0  0
 21 22  1  0  0  0  0
 21 27  1  0  0  0  0
 22 23  2  0  0  0  0
 22 25  1  0  0  0  0
 23 24  1  0  0  0  0
 25 26  2  0  0  0  0
 26 27  1  0  0  0  0
M  END
>  <CHROM.1>
-146.33284886,51.99751008,153.96832303,165.93630152,-172.74105187,150.84913332
67.39672529,51.12422523,51.92358947,23.00107854,-3.08167585,-0.57934502,1.34818050

>  <Name>
ligand

>  <RI>
0

>  <Rbt.Current_Directory>
/home/itssahil/PROJECTS/Mol_Feturizer/New_Systems/rnas/3IQN

>  <Rbt.Executable>
rbdock ($Id: //depot/dev/client3/rdock/2013.1/src/exe/rbdock.cxx#4 $)

>  <Rbt.Library>
libRbt.so (2013.1, Build901 2013/11/27)

>  <Rbt.Parameter_File>
/export/apps/rDock/src/rDock_2013.1_src/data/scripts/dock_solv.prm

>  <Rbt.Receptor>
prm/blind_docking_80.prm

>  <SCORE>
-13.4406

>  <SCORE.INTER>
-13.4559

>  <SCORE.INTER.CONST>
1

>  <SCORE.INTER.POLAR>
0

>  <SCORE.INTER.ROT>
7

>  <SCORE.INTER.SOLV>
17.1542

>  <SCORE.INTER.VDW>
-22.9553

>  <SCORE.INTER.norm>
-0.498366

>  <SCORE.INTRA>
0.0152777

>  <SCORE.INTRA.DIHEDRAL>
-1.57994

>  <SCORE.INTRA.DIHEDRAL.0>
10.0365

>  <SCORE.INTRA.POLAR>
0

>  <SCORE.INTRA.POLAR.0>
0

>  <SCORE.INTRA.REPUL>
0

>  <SCORE.INTRA.REPUL.0>
0

>  <SCORE.INTRA.SOLV>
-0.0638884

>  <SCORE.INTRA.SOLV.lig_0>
-48.6728

>  <SCORE.INTRA.VDW>
0.837192

>  <SCORE.INTRA.VDW.0>
-1.10662

>  <SCORE.INTRA.norm>
0.000565842

>  <SCORE.RESTR>
0

>  <SCORE.RESTR.CAVITY>
0

>  <SCORE.RESTR.norm>
0

>  <SCORE.SYSTEM>
0

>  <SCORE.SYSTEM.CONST>
0

>  <SCORE.SYSTEM.DIHEDRAL>
0

>  <SCORE.SYSTEM.SOLV>
0

>  <SCORE.SYSTEM.norm>
0

>  <SCORE.heavy>
27

>  <SCORE.norm>
-0.4978

>  <RMSD>
11.403

$$$$
ligand
 OpenBabel11021811483D
libRbt.so/2013.1/901 2013/11/27
 27 29  0  0  0  0  0  0  0  0999 V2000
   54.1444   51.6517   23.8870 N   0  0  0  0  0  0  0  0  0  0  0  0
   53.7168   50.4215   23.2080 C   0  0  2  0  0  0  0  0  0  0  0  0
   54.6897   49.3313   23.5433 C   0  0  0  0  0  0  0  0  0  0  0  0
   54.3230   48.3672   24.1962 O   0  0  0  0  0  0  0  0  0  0  0  0
   53.6910   50.6331   21.6869 C   0  0  0  0  0  0  0  0  0  0  0  0
   52.8246   51.8490   21.3715 C   0  0  0  0  0  0  0  0  0  0  0  0
   52.7400   52.2383   19.5942 S   0  0  2  0  0  0  0  0  0  0  0  0
   54.4765   52.4255   19.0844 C   0  0  0  0  0  0  0  0  0  0  0  0
   52.1932   53.9639   19.3314 C   0  0  0  0  0  0  0  0  0  0  0  0
   50.6962   53.8784   19.5016 C   0  0  1  0  0  0  0  0  0  0  0  0
   50.5347   53.4248   20.8050 O   0  0  0  0  0  0  0  0  0  0  0  0
   49.8104   55.1250   19.5060 C   0  0  1  0  0  0  0  0  0  0  0  0
   49.3450   55.4580   18.2295 O   0  0  0  0  0  0  0  0  0  0  0  0
   48.6677   54.6014   20.5015 C   0  0  1  0  0  0  0  0  0  0  0  0
   48.0417   53.3748   20.0976 O   0  0  0  0  0  0  0  0  0  0  0  0
   49.7467   54.4369   21.5470 C   0  0  1  0  0  0  0  0  0  0  0  0
   55.8424   49.4055   23.1477 O   0  0  0  0  0  0  0  0  0  0  0  0
   46.6762   52.0695   24.7464 N   0  0  0  0  0  0  0  0  0  0  0  0
   46.4566   52.5828   23.5349 C   0  0  0  0  0  0  0  0  0  0  0  0
   47.4346   53.1330   22.8166 N   0  0  0  0  0  0  0  0  0  0  0  0
   48.6579   53.3070   23.3345 C   0  0  0  0  0  0  0  0  0  0  0  0
   48.9163   52.8297   24.6589 C   0  0  0  0  0  0  0  0  0  0  0  0
   47.8532   52.1842   25.3483 C   0  0  0  0  0  0  0  0  0  0  0  0
   48.0225   51.6844   26.6089 N   0  0  0  0  0  0  0  0  0  0  0  0
   50.1992   53.1267   24.9438 N   0  0  0  0  0  0  0  0  0  0  0  0
   50.7431   53.7445   23.9185 C   0  0  0  0  0  0  0  0  0  0  0  0
   49.8522   53.8766   22.8818 N   0  0  0  0  0  0  0  0  0  0  0  0
  2  1  1  1  0  0  0
  2  3  1  0  0  0  0
  2  5  1  0  0  0  0
  3  4  1  0  0  0  0
  3 17  1  0  0  0  0
  5  6  1  0  0  0  0
  7  6  1  1  0  0  0
  7  8  1  0  0  0  0
  7  9  1  0  0  0  0
 10  9  1  1  0  0  0
 10 11  1  0  0  0  0
 10 12  1  0  0  0  0
 11 16  1  0  0  0  0
 12 13  1  6  0  0  0
 12 14  1  0  0  0  0
 14 15  1  6  0  0  0
 14 16  1  0  0  0  0
 16 27  1  1  0  0  0
 18 19  2  0  0  0  0
 18 23  1  0  0  0  0
 19 20  1  0  0  0  0
 20 21  2  0  0  0  0
 21 22  1  0  0  0  0
 21 27  1  0  0  0  0
 22 23  2  0  0  0  0
 22 25  1  0  0  0  0
 23 24  1  0  0  0  0
 25 26  2  0  0  0  0
 26 27  1  0  0  0  0
M  END
>  <CHROM.1>
114.71220948,-54.18816139,178.62369908,-55.56792487,-80.07913105,60.72826538
-107.69123157,50.91549733,52.52345354,22.10248794,0.16334134,-0.42664469
2.06152691

>  <Name>
ligand

>  <RI>
0

>  <Rbt.Current_Directory>
/home/itssahil/PROJECTS/Mol_Feturizer/New_Systems/rnas/3IQN

>  <Rbt.Executable>
rbdock ($Id: //depot/dev/client3/rdock/2013.1/src/exe/rbdock.cxx#4 $)

>  <Rbt.Library>
libRbt.so (2013.1, Build901 2013/11/27)

>  <Rbt.Parameter_File>
/export/apps/rDock/src/rDock_2013.1_src/data/scripts/dock_solv.prm

>  <Rbt.Receptor>
prm/blind_docking_80.prm

>  <SCORE>
-14.7092

>  <SCORE.INTER>
-11.3127

>  <SCORE.INTER.CONST>
1

>  <SCORE.INTER.POLAR>
0

>  <SCORE.INTER.ROT>
7

>  <SCORE.INTER.SOLV>
14.6913

>  <SCORE.INTER.VDW>
-20.7056

>  <SCORE.INTER.norm>
-0.41899

>  <SCORE.INTRA>
-3.39652

>  <SCORE.INTRA.DIHEDRAL>
-5.72809

>  <SCORE.INTRA.DIHEDRAL.0>
10.0365

>  <SCORE.INTRA.POLAR>
0

>  <SCORE.INTRA.POLAR.0>
0

>  <SCORE.INTRA.REPUL>
0

>  <SCORE.INTRA.REPUL.0>
0

>  <SCORE.INTRA.SOLV>
-0.076187

>  <SCORE.INTRA.SOLV.lig_0>
-48.6728

>  <SCORE.INTRA.VDW>
-0.494384

>  <SCORE.INTRA.VDW.0>
-1.10662

>  <SCORE.INTRA.norm>
-0.125797

>  <SCORE.RESTR>
0

>  <SCORE.RESTR.CAVITY>
0

>  <SCORE.RESTR.norm>
0

>  <SCORE.SYSTEM>
0

>  <SCORE.SYSTEM.CONST>
0

>  <SCORE.SYSTEM.DIHEDRAL>
0

>  <SCORE.SYSTEM.SOLV>
0

>  <SCORE.SYSTEM.norm>
0

>  <SCORE.heavy>
27

>  <SCORE.norm>
-0.544787

>  <RMSD>
11.488

$$$$
ligand
 OpenBabel11021811483D
libRbt.so/2013.1/901 2013/11/27
 27 29  0  0  0  0  0  0  0  0999 V2000
   50.8215   54.0504   27.4281 N   0  0  0  0  0  0  0  0  0  0  0  0
   50.0573   53.2162   26.4914 C   0  0  2  0  0  0  0  0  0  0  0  0
   50.1975   51.7831   26.9086 C   0  0  0  0  0  0  0  0  0  0  0  0
   51.3076   51.2972   27.0556 O   0  0  0  0  0  0  0  0  0  0  0  0
   50.5959   53.3875   25.0631 C   0  0  0  0  0  0  0  0  0  0  0  0
   50.2223   54.7777   24.5572 C   0  0  0  0  0  0  0  0  0  0  0  0
   48.4500   54.9603   24.1791 S   0  0  2  0  0  0  0  0  0  0  0  0
   47.6648   55.2434   25.7958 C   0  0  0  0  0  0  0  0  0  0  0  0
   47.6967   53.3389   23.7926 C   0  0  0  0  0  0  0  0  0  0  0  0
   48.0939   53.1109   22.3548 C   0  0  1  0  0  0  0  0  0  0  0  0
   46.9088   53.2842   21.6504 O   0  0  0  0  0  0  0  0  0  0  0  0
   49.0268   54.0686   21.6120 C   0  0  1  0  0  0  0  0  0  0  0  0
   50.3727   53.7053   21.7279 O   0  0  0  0  0  0  0  0  0  0  0  0
   48.4267   53.8884   20.1362 C   0  0  1  0  0  0  0  0  0  0  0  0
   48.3974   52.5328   19.6661 O   0  0  0  0  0  0  0  0  0  0  0  0
   47.1092   54.3883   20.6826 C   0  0  1  0  0  0  0  0  0  0  0  0
   49.1986   51.1120   27.1148 O   0  0  0  0  0  0  0  0  0  0  0  0
   44.7715   56.9756   17.0619 N   0  0  0  0  0  0  0  0  0  0  0  0
   46.0498   56.9566   17.4429 C   0  0  0  0  0  0  0  0  0  0  0  0
   46.4836   56.1476   18.4086 N   0  0  0  0  0  0  0  0  0  0  0  0
   45.6277   55.4069   19.1254 C   0  0  0  0  0  0  0  0  0  0  0  0
   44.2366   55.4504   18.7914 C   0  0  0  0  0  0  0  0  0  0  0  0
   43.8436   56.2762   17.7024 C   0  0  0  0  0  0  0  0  0  0  0  0
   42.5377   56.3599   17.3082 N   0  0  0  0  0  0  0  0  0  0  0  0
   43.5970   54.6335   19.6509 N   0  0  0  0  0  0  0  0  0  0  0  0
   44.4685   54.1017   20.4795 C   0  0  0  0  0  0  0  0  0  0  0  0
   45.7459   54.5235   20.2030 N   0  0  0  0  0  0  0  0  0  0  0  0
  2  1  1  1  0  0  0
  2  3  1  0  0  0  0
  2  5  1  0  0  0  0
  3  4  1  0  0  0  0
  3 17  1  0  0  0  0
  5  6  1  0  0  0  0
  7  6  1  1  0  0  0
  7  8  1  0  0  0  0
  7  9  1  0  0  0  0
 10  9  1  1  0  0  0
 10 11  1  0  0  0  0
 10 12  1  0  0  0  0
 11 16  1  0  0  0  0
 12 13  1  6  0  0  0
 12 14  1  0  0  0  0
 14 15  1  1  0  0  0
 14 16  1  0  0  0  0
 16 27  1  6  0  0  0
 18 19  2  0  0  0  0
 18 23  1  0  0  0  0
 19 20  1  0  0  0  0
 20 21  2  0  0  0  0
 21 22  1  0  0  0  0
 21 27  1  0  0  0  0
 22 23  2  0  0  0  0
 22 25  1  0  0  0  0
 23 24  1  0  0  0  0
 25 26  2  0  0  0  0
 26 27  1  0  0  0  0
M  END
>  <CHROM.1>
-54.09657182,-70.83933307,-72.14493864,80.45869067,-80.24512752,-108.08300963
-172.55699667,47.60870287,54.22961109,22.14605115,0.96857310,-0.31804735
1.70623312

>  <Name>
ligand

>  <RI>
0

>  <Rbt.Current_Directory>
/home/itssahil/PROJECTS/Mol_Feturizer/New_Systems/rnas/3IQN

>  <Rbt.Executable>
rbdock ($Id: //depot/dev/client3/rdock/2013.1/src/exe/rbdock.cxx#4 $)

>  <Rbt.Library>
libRbt.so (2013.1, Build901 2013/11/27)

>  <Rbt.Parameter_File>
/export/apps/rDock/src/rDock_2013.1_src/data/scripts/dock_solv.prm

>  <Rbt.Receptor>
prm/blind_docking_80.prm

>  <SCORE>
-11.4069

>  <SCORE.INTER>
-13.1581

>  <SCORE.INTER.CONST>
1

>  <SCORE.INTER.POLAR>
0

>  <SCORE.INTER.ROT>
7

>  <SCORE.INTER.SOLV>
13.1586

>  <SCORE.INTER.VDW>
-21.425

>  <SCORE.INTER.norm>
-0.487337

>  <SCORE.INTRA>
1.74182

>  <SCORE.INTRA.DIHEDRAL>
1.14

>  <SCORE.INTRA.DIHEDRAL.0>
10.0365

>  <SCORE.INTRA.POLAR>
0

>  <SCORE.INTRA.POLAR.0>
0

>  <SCORE.INTRA.REPUL>
0

>  <SCORE.INTRA.REPUL.0>
0

>  <SCORE.INTRA.SOLV>
1.27635

>  <SCORE.INTRA.SOLV.lig_0>
-48.6728

>  <SCORE.INTRA.VDW>
0.533644

>  <SCORE.INTRA.VDW.0>
-1.10662

>  <SCORE.INTRA.norm>
0.0645117

>  <SCORE.RESTR>
0.00935142

>  <SCORE.RESTR.CAVITY>
0.00935142

>  <SCORE.RESTR.norm>
0.000346349

>  <SCORE.SYSTEM>
0

>  <SCORE.SYSTEM.CONST>
0

>  <SCORE.SYSTEM.DIHEDRAL>
0

>  <SCORE.SYSTEM.SOLV>
0

>  <SCORE.SYSTEM.norm>
0

>  <SCORE.heavy>
27

>  <SCORE.norm>
-0.422479

>  <RMSD>
11.504

$$$$
ligand
 OpenBabel11021811483D
libRbt.so/2013.1/901 2013/11/27
 27 29  0  0  0  0  0  0  0  0999 V2000
   54.6510   58.3184   16.3690 N   0  0  0  0  0  0  0  0  0  0  0  0
   53.4309   57.8984   17.0705 C   0  0  2  0  0  0  0  0  0  0  0  0
   53.4802   58.4326   18.4704 C   0  0  0  0  0  0  0  0  0  0  0  0
   54.3912   58.1072   19.2149 O   0  0  0  0  0  0  0  0  0  0  0  0
   53.3401   56.3656   17.1116 C   0  0  0  0  0  0  0  0  0  0  0  0
   52.0451   55.9656   17.8126 C   0  0  0  0  0  0  0  0  0  0  0  0
   51.7260   54.1727   17.7796 S   0  0  2  0  0  0  0  0  0  0  0  0
   50.8626   53.8913   16.2030 C   0  0  0  0  0  0  0  0  0  0  0  0
   50.3625   53.7334   18.9171 C   0  0  0  0  0  0  0  0  0  0  0  0
   50.9780   53.9288   20.2809 C   0  0  1  0  0  0  0  0  0  0  0  0
   49.8875   53.9247   21.1421 O   0  0  0  0  0  0  0  0  0  0  0  0
   51.8720   52.8676   20.9242 C   0  0  1  0  0  0  0  0  0  0  0  0
   53.2250   53.0478   20.6183 O   0  0  0  0  0  0  0  0  0  0  0  0
   51.5068   53.1482   22.4600 C   0  0  1  0  0  0  0  0  0  0  0  0
   51.7170   54.5029   22.8847 O   0  0  0  0  0  0  0  0  0  0  0  0
   50.0738   52.8187   22.1105 C   0  0  1  0  0  0  0  0  0  0  0  0
   52.6157   59.2044   18.8548 O   0  0  0  0  0  0  0  0  0  0  0  0
   48.2603   51.6217   26.6434 N   0  0  0  0  0  0  0  0  0  0  0  0
   49.4820   51.4926   26.1237 C   0  0  0  0  0  0  0  0  0  0  0  0
   49.7744   51.9270   24.8985 N   0  0  0  0  0  0  0  0  0  0  0  0
   48.8190   52.4002   24.0873 C   0  0  0  0  0  0  0  0  0  0  0  0
   47.4801   52.4924   24.5850 C   0  0  0  0  0  0  0  0  0  0  0  0
   47.2436   52.0826   25.9260 C   0  0  0  0  0  0  0  0  0  0  0  0
   45.9977   52.1555   26.4829 N   0  0  0  0  0  0  0  0  0  0  0  0
   46.7200   52.9865   23.5884 N   0  0  0  0  0  0  0  0  0  0  0  0
   47.4706   53.1983   22.5298 C   0  0  0  0  0  0  0  0  0  0  0  0
   48.7826   52.8725   22.7715 N   0  0  0  0  0  0  0  0  0  0  0  0
  2  1  1  6  0  0  0
  2  3  1  0  0  0  0
  2  5  1  0  0  0  0
  3  4  1  0  0  0  0
  3 17  1  0  0  0  0
  5  6  1  0  0  0  0
  7  6  1  6  0  0  0
  7  8  1  0  0  0  0
  7  9  1  0  0  0  0
 10  9  1  6  0  0  0
 10 11  1  0  0  0  0
 10 12  1  0  0  0  0
 11 16  1  0  0  0  0
 12 13  1  1  0  0  0
 12 14  1  0  0  0  0
 14 15  1  6  0  0  0
 14 16  1  0  0  0  0
 16 27  1  1  0  0  0
 18 19  2  0  0  0  0
 18 23  1  0  0  0  0
 19 20  1  0  0  0  0
 20 21  2  0  0  0  0
 21 22  1  0  0  0  0
 21 27  1  0  0  0  0
 22 23  2  0  0  0  0
 22 25  1  0  0  0  0
 23 24  1  0  0  0  0
 25 26  2  0  0  0  0
 26 27  1  0  0  0  0
M  END
>  <CHROM.1>
-60.03867824,-178.49197507,174.06573230,-86.45553733,-71.02164563,165.81481347
-152.86796170,50.73483665,54.27045409,21.06930899,-0.64260354,0.89245114
1.33183050

>  <Name>
ligand

>  <RI>
0

>  <Rbt.Current_Directory>
/home/itssahil/PROJECTS/Mol_Feturizer/New_Systems/rnas/3IQN

>  <Rbt.Executable>
rbdock ($Id: //depot/dev/client3/rdock/2013.1/src/exe/rbdock.cxx#4 $)

>  <Rbt.Library>
libRbt.so (2013.1, Build901 2013/11/27)

>  <Rbt.Parameter_File>
/export/apps/rDock/src/rDock_2013.1_src/data/scripts/dock_solv.prm

>  <Rbt.Receptor>
prm/blind_docking_100.prm

>  <SCORE>
-15.9669

>  <SCORE.INTER>
-11.6329

>  <SCORE.INTER.CONST>
1

>  <SCORE.INTER.POLAR>
0

>  <SCORE.INTER.ROT>
7

>  <SCORE.INTER.SOLV>
13.5549

>  <SCORE.INTER.VDW>
-20.5402

>  <SCORE.INTER.norm>
-0.430848

>  <SCORE.INTRA>
-4.33398

>  <SCORE.INTRA.DIHEDRAL>
-5.19892

>  <SCORE.INTRA.DIHEDRAL.0>
10.0365

>  <SCORE.INTRA.POLAR>
0

>  <SCORE.INTRA.POLAR.0>
0

>  <SCORE.INTRA.REPUL>
0

>  <SCORE.INTRA.REPUL.0>
0

>  <SCORE.INTRA.SOLV>
-1.03931

>  <SCORE.INTRA.SOLV.lig_0>
-48.6728

>  <SCORE.INTRA.VDW>
-1.21487

>  <SCORE.INTRA.VDW.0>
-1.10662

>  <SCORE.INTRA.norm>
-0.160518

>  <SCORE.RESTR>
0

>  <SCORE.RESTR.CAVITY>
0

>  <SCORE.RESTR.norm>
0

>  <SCORE.SYSTEM>
0

>  <SCORE.SYSTEM.CONST>
0

>  <SCORE.SYSTEM.DIHEDRAL>
0

>  <SCORE.SYSTEM.SOLV>
0

>  <SCORE.SYSTEM.norm>
0

>  <SCORE.heavy>
27

>  <SCORE.norm>
-0.591366

>  <RMSD>
11.553

$$$$
ligand
 OpenBabel11021811483D
libRbt.so/2013.1/901 2013/11/27
 27 29  0  0  0  0  0  0  0  0999 V2000
   55.3488   46.2973   21.2464 N   0  0  0  0  0  0  0  0  0  0  0  0
   55.2789   47.5010   20.4076 C   0  0  2  0  0  0  0  0  0  0  0  0
   56.3453   47.4108   19.3578 C   0  0  0  0  0  0  0  0  0  0  0  0
   56.1501   47.8828   18.2490 O   0  0  0  0  0  0  0  0  0  0  0  0
   55.5057   48.7588   21.2596 C   0  0  0  0  0  0  0  0  0  0  0  0
   54.1536   49.2908   21.7254 C   0  0  0  0  0  0  0  0  0  0  0  0
   54.2829   50.7313   22.8324 S   0  0  2  0  0  0  0  0  0  0  0  0
   54.7916   50.0328   24.4336 C   0  0  0  0  0  0  0  0  0  0  0  0
   52.6241   51.3328   23.3143 C   0  0  0  0  0  0  0  0  0  0  0  0
   52.0851   51.9156   22.0309 C   0  0  1  0  0  0  0  0  0  0  0  0
   50.9580   52.6216   22.4333 O   0  0  0  0  0  0  0  0  0  0  0  0
   52.8455   52.9862   21.2470 C   0  0  1  0  0  0  0  0  0  0  0  0
   53.7046   52.4407   20.2872 O   0  0  0  0  0  0  0  0  0  0  0  0
   51.5883   53.7668   20.6296 C   0  0  1  0  0  0  0  0  0  0  0  0
   50.6869   52.9430   19.8757 O   0  0  0  0  0  0  0  0  0  0  0  0
   51.1456   54.0403   22.0486 C   0  0  1  0  0  0  0  0  0  0  0  0
   57.4120   46.8787   19.6222 O   0  0  0  0  0  0  0  0  0  0  0  0
   49.8458   55.2170   26.7597 N   0  0  0  0  0  0  0  0  0  0  0  0
   50.9491   54.6510   26.2679 C   0  0  0  0  0  0  0  0  0  0  0  0
   51.1228   54.4694   24.9594 N   0  0  0  0  0  0  0  0  0  0  0  0
   50.1394   54.7344   24.0890 C   0  0  0  0  0  0  0  0  0  0  0  0
   48.9131   55.2809   24.5850 C   0  0  0  0  0  0  0  0  0  0  0  0
   48.8142   55.5220   25.9829 C   0  0  0  0  0  0  0  0  0  0  0  0
   47.6845   56.0583   26.5342 N   0  0  0  0  0  0  0  0  0  0  0  0
   48.0975   55.4497   23.5259 N   0  0  0  0  0  0  0  0  0  0  0  0
   48.7115   55.0519   22.4334 C   0  0  0  0  0  0  0  0  0  0  0  0
   49.9837   54.6117   22.7046 N   0  0  0  0  0  0  0  0  0  0  0  0
  2  1  1  1  0  0  0
  2  3  1  0  0  0  0
  2  5  1  0  0  0  0
  3  4  1  0  0  0  0
  3 17  1  0  0  0  0
  5  6  1  0  0  0  0
  7  6  1  6  0  0  0
  7  8  1  0  0  0  0
  7  9  1  0  0  0  0
 10  9  1  1  0  0  0
 10 11  1  0  0  0  0
 10 12  1  0  0  0  0
 11 16  1  0  0  0  0
 12 13  1  6  0  0  0
 12 14  1  0  0  0  0
 14 15  1  6  0  0  0
 14 16  1  0  0  0  0
 16 27  1  6  0  0  0
 18 19  2  0  0  0  0
 18 23  1  0  0  0  0
 19 20  1  0  0  0  0
 20 21  2  0  0  0  0
 21 22  1  0  0  0  0
 21 27  1  0  0  0  0
 22 23  2  0  0  0  0
 22 25  1  0  0  0  0
 23 24  1  0  0  0  0
 25 26  2  0  0  0  0
 26 27  1  0  0  0  0
M  END
>  <CHROM.1>
146.45455904,-92.65296294,176.56566310,-76.11917796,-69.57887614,-167.92623867
75.91371437,52.37830186,51.98302861,22.48323266,-0.44400026,-0.82445240,1.54014178

>  <Name>
ligand

>  <RI>
0

>  <Rbt.Current_Directory>
/home/itssahil/PROJECTS/Mol_Feturizer/New_Systems/rnas/3IQN

>  <Rbt.Executable>
rbdock ($Id: //depot/dev/client3/rdock/2013.1/src/exe/rbdock.cxx#4 $)

>  <Rbt.Library>
libRbt.so (2013.1, Build901 2013/11/27)

>  <Rbt.Parameter_File>
/export/apps/rDock/src/rDock_2013.1_src/data/scripts/dock_solv.prm

>  <Rbt.Receptor>
prm/blind_docking_100.prm

>  <SCORE>
-15.9127

>  <SCORE.INTER>
-12.6991

>  <SCORE.INTER.CONST>
1

>  <SCORE.INTER.POLAR>
0

>  <SCORE.INTER.ROT>
7

>  <SCORE.INTER.SOLV>
14.0568

>  <SCORE.INTER.VDW>
-21.4183

>  <SCORE.INTER.norm>
-0.470337

>  <SCORE.INTRA>
-3.31817

>  <SCORE.INTRA.DIHEDRAL>
-2.9272

>  <SCORE.INTRA.DIHEDRAL.0>
10.0365

>  <SCORE.INTRA.POLAR>
0

>  <SCORE.INTRA.POLAR.0>
0

>  <SCORE.INTRA.REPUL>
0

>  <SCORE.INTRA.REPUL.0>
0

>  <SCORE.INTRA.SOLV>
-0.362057

>  <SCORE.INTRA.SOLV.lig_0>
-48.6728

>  <SCORE.INTRA.VDW>
-1.67355

>  <SCORE.INTRA.VDW.0>
-1.10662

>  <SCORE.INTRA.norm>
-0.122895

>  <SCORE.RESTR>
0.104566

>  <SCORE.RESTR.CAVITY>
0.104566

>  <SCORE.RESTR.norm>
0.00387281

>  <SCORE.SYSTEM>
0

>  <SCORE.SYSTEM.CONST>
0

>  <SCORE.SYSTEM.DIHEDRAL>
0

>  <SCORE.SYSTEM.SOLV>
0

>  <SCORE.SYSTEM.norm>
0

>  <SCORE.heavy>
27

>  <SCORE.norm>
-0.589359

>  <RMSD>
11.579

$$$$
ligand
 OpenBabel11021811483D
libRbt.so/2013.1/901 2013/11/27
 27 29  0  0  0  0  0  0  0  0999 V2000
   48.5779   52.5371   19.7064 N   0  0  0  0  0  0  0  0  0  0  0  0
   48.8604   53.9050   20.1607 C   0  0  2  0  0  0  0  0  0  0  0  0
   49.8415   54.5271   19.2131 C   0  0  0  0  0  0  0  0  0  0  0  0
   50.8904   53.9560   18.9603 O   0  0  0  0  0  0  0  0  0  0  0  0
   49.4590   53.8844   21.5751 C   0  0  0  0  0  0  0  0  0  0  0  0
   48.5185   53.1160   22.4989 C   0  0  0  0  0  0  0  0  0  0  0  0
   48.6589   53.6056   24.2476 S   0  0  2  0  0  0  0  0  0  0  0  0
   48.2393   55.3759   24.2615 C   0  0  0  0  0  0  0  0  0  0  0  0
   50.4135   53.7393   24.7470 C   0  0  0  0  0  0  0  0  0  0  0  0
   50.7445   52.3425   25.2121 C   0  0  1  0  0  0  0  0  0  0  0  0
   51.2906   51.7374   24.0868 O   0  0  0  0  0  0  0  0  0  0  0  0
   51.8311   52.0734   26.2542 C   0  0  1  0  0  0  0  0  0  0  0  0
   51.3324   52.0677   27.5612 O   0  0  0  0  0  0  0  0  0  0  0  0
   52.3105   50.6353   25.7321 C   0  0  1  0  0  0  0  0  0  0  0  0
   51.2644   49.6578   25.6336 O   0  0  0  0  0  0  0  0  0  0  0  0
   52.6666   51.3027   24.4237 C   0  0  1  0  0  0  0  0  0  0  0  0
   49.5793   55.5966   18.6856 O   0  0  0  0  0  0  0  0  0  0  0  0
   55.4906   47.5943   22.5416 N   0  0  0  0  0  0  0  0  0  0  0  0
   55.1794   47.9099   23.7998 C   0  0  0  0  0  0  0  0  0  0  0  0
   54.3588   48.9190   24.0892 N   0  0  0  0  0  0  0  0  0  0  0  0
   53.9095   49.7402   23.1308 C   0  0  0  0  0  0  0  0  0  0  0  0
   54.2759   49.4751   21.7729 C   0  0  0  0  0  0  0  0  0  0  0  0
   55.0936   48.3398   21.5183 C   0  0  0  0  0  0  0  0  0  0  0  0
   55.4732   48.0069   20.2483 N   0  0  0  0  0  0  0  0  0  0  0  0
   53.7090   50.4340   21.0150 N   0  0  0  0  0  0  0  0  0  0  0  0
   53.0367   51.2602   21.7859 C   0  0  0  0  0  0  0  0  0  0  0  0
   53.1042   50.8833   23.1047 N   0  0  0  0  0  0  0  0  0  0  0  0
  2  1  1  6  0  0  0
  2  3  1  0  0  0  0
  2  5  1  0  0  0  0
  3  4  1  0  0  0  0
  3 17  1  0  0  0  0
  5  6  1  0  0  0  0
  7  6  1  6  0  0  0
  7  8  1  0  0  0  0
  7  9  1  0  0  0  0
 10  9  1  6  0  0  0
 10 11  1  0  0  0  0
 10 12  1  0  0  0  0
 11 16  1  0  0  0  0
 12 13  1  1  0  0  0
 12 14  1  0  0  0  0
 14 15  1  6  0  0  0
 14 16  1  0  0  0  0
 16 27  1  6  0  0  0
 18 19  2  0  0  0  0
 18 23  1  0  0  0  0
 19 20  1  0  0  0  0
 20 21  2  0  0  0  0
 21 22  1  0  0  0  0
 21 27  1  0  0  0  0
 22 23  2  0  0  0  0
 22 25  1  0  0  0  0
 23 24  1  0  0  0  0
 25 26  2  0  0  0  0
 26 27  1  0  0  0  0
M  END
>  <CHROM.1>
-53.18107417,-54.68994464,-154.23601548,60.05430950,-88.95343330,94.22606619
-142.10858568,51.55638617,51.74484270,22.89752759,-2.87105892,-0.75893710
1.71820226

>  <Name>
ligand

>  <RI>
0

>  <Rbt.Current_Directory>
/home/itssahil/PROJECTS/Mol_Feturizer/New_Systems/rnas/3IQN

>  <Rbt.Executable>
rbdock ($Id: //depot/dev/client3/rdock/2013.1/src/exe/rbdock.cxx#4 $)

>  <Rbt.Library>
libRbt.so (2013.1, Build901 2013/11/27)

>  <Rbt.Parameter_File>
/export/apps/rDock/src/rDock_2013.1_src/data/scripts/dock_solv.prm

>  <Rbt.Receptor>
prm/blind_docking_80.prm

>  <SCORE>
-13.66

>  <SCORE.INTER>
-12.2392

>  <SCORE.INTER.CONST>
1

>  <SCORE.INTER.POLAR>
0

>  <SCORE.INTER.ROT>
7

>  <SCORE.INTER.SOLV>
17.1208

>  <SCORE.INTER.VDW>
-22.1331

>  <SCORE.INTER.norm>
-0.453305

>  <SCORE.INTRA>
-1.42079

>  <SCORE.INTRA.DIHEDRAL>
0.0213457

>  <SCORE.INTRA.DIHEDRAL.0>
10.0365

>  <SCORE.INTRA.POLAR>
0

>  <SCORE.INTRA.POLAR.0>
0

>  <SCORE.INTRA.REPUL>
0

>  <SCORE.INTRA.REPUL.0>
0

>  <SCORE.INTRA.SOLV>
-0.32825

>  <SCORE.INTRA.SOLV.lig_0>
-48.6728

>  <SCORE.INTRA.VDW>
-1.26734

>  <SCORE.INTRA.VDW.0>
-1.10662

>  <SCORE.INTRA.norm>
-0.052622

>  <SCORE.RESTR>
0

>  <SCORE.RESTR.CAVITY>
0

>  <SCORE.RESTR.norm>
0

>  <SCORE.SYSTEM>
0

>  <SCORE.SYSTEM.CONST>
0

>  <SCORE.SYSTEM.DIHEDRAL>
0

>  <SCORE.SYSTEM.SOLV>
0

>  <SCORE.SYSTEM.norm>
0

>  <SCORE.heavy>
27

>  <SCORE.norm>
-0.505927

>  <RMSD>
11.592

$$$$
ligand
 OpenBabel11021811483D
libRbt.so/2013.1/901 2013/11/27
 27 29  0  0  0  0  0  0  0  0999 V2000
   55.1502   55.1842   14.2827 N   0  0  0  0  0  0  0  0  0  0  0  0
   54.0044   54.8223   15.1274 C   0  0  2  0  0  0  0  0  0  0  0  0
   53.1895   56.0558   15.3763 C   0  0  0  0  0  0  0  0  0  0  0  0
   51.9814   55.9675   15.5277 O   0  0  0  0  0  0  0  0  0  0  0  0
   54.4895   54.2513   16.4683 C   0  0  0  0  0  0  0  0  0  0  0  0
   53.2858   53.7320   17.2490 C   0  0  0  0  0  0  0  0  0  0  0  0
   53.6821   53.2568   18.9621 S   0  0  2  0  0  0  0  0  0  0  0  0
   54.4254   51.6025   18.8169 C   0  0  0  0  0  0  0  0  0  0  0  0
   52.1669   52.7935   19.8760 C   0  0  0  0  0  0  0  0  0  0  0  0
   52.6368   52.7310   21.3086 C   0  0  1  0  0  0  0  0  0  0  0  0
   51.5433   53.1818   22.0378 O   0  0  0  0  0  0  0  0  0  0  0  0
   52.9341   51.4021   22.0049 C   0  0  1  0  0  0  0  0  0  0  0  0
   54.2693   51.0090   21.8644 O   0  0  0  0  0  0  0  0  0  0  0  0
   52.5306   51.8209   23.4990 C   0  0  1  0  0  0  0  0  0  0  0  0
   53.2215   52.9737   24.0021 O   0  0  0  0  0  0  0  0  0  0  0  0
   51.1423   52.1050   22.9735 C   0  0  1  0  0  0  0  0  0  0  0  0
   53.7412   57.1430   15.4419 O   0  0  0  0  0  0  0  0  0  0  0  0
   48.4673   51.8076   27.2191 N   0  0  0  0  0  0  0  0  0  0  0  0
   49.5839   51.1847   26.8385 C   0  0  0  0  0  0  0  0  0  0  0  0
   50.1729   51.4471   25.6726 N   0  0  0  0  0  0  0  0  0  0  0  0
   49.5976   52.2592   24.7756 C   0  0  0  0  0  0  0  0  0  0  0  0
   48.3627   52.8959   25.1195 C   0  0  0  0  0  0  0  0  0  0  0  0
   47.8203   52.6346   26.4078 C   0  0  0  0  0  0  0  0  0  0  0  0
   46.6546   53.2165   26.8203 N   0  0  0  0  0  0  0  0  0  0  0  0
   47.9952   53.6451   24.0617 N   0  0  0  0  0  0  0  0  0  0  0  0
   48.8885   53.5192   23.1052 C   0  0  0  0  0  0  0  0  0  0  0  0
   49.9152   52.6891   23.4834 N   0  0  0  0  0  0  0  0  0  0  0  0
  2  1  1  6  0  0  0
  2  3  1  0  0  0  0
  2  5  1  0  0  0  0
  3  4  1  0  0  0  0
  3 17  1  0  0  0  0
  5  6  1  0  0  0  0
  7  6  1  6  0  0  0
  7  8  1  0  0  0  0
  7  9  1  0  0  0  0
 10  9  1  6  0  0  0
 10 11  1  0  0  0  0
 10 12  1  0  0  0  0
 11 16  1  0  0  0  0
 12 13  1  1  0  0  0
 12 14  1  0  0  0  0
 14 15  1  6  0  0  0
 14 16  1  0  0  0  0
 16 27  1  1  0  0  0
 18 19  2  0  0  0  0
 18 23  1  0  0  0  0
 19 20  1  0  0  0  0
 20 21  2  0  0  0  0
 21 22  1  0  0  0  0
 21 27  1  0  0  0  0
 22 23  2  0  0  0  0
 22 25  1  0  0  0  0
 23 24  1  0  0  0  0
 25 26  2  0  0  0  0
 26 27  1  0  0  0  0
M  END
>  <CHROM.1>
148.80308974,-173.24340795,-171.26382822,-80.03039097,-168.13515252,145.32190779
-152.61051567,51.73901216,53.19318851,21.19483403,1.03879426,0.52034432,-1.02397176

>  <Name>
ligand

>  <RI>
0

>  <Rbt.Current_Directory>
/home/itssahil/PROJECTS/Mol_Feturizer/New_Systems/rnas/3IQN

>  <Rbt.Executable>
rbdock ($Id: //depot/dev/client3/rdock/2013.1/src/exe/rbdock.cxx#4 $)

>  <Rbt.Library>
libRbt.so (2013.1, Build901 2013/11/27)

>  <Rbt.Parameter_File>
/export/apps/rDock/src/rDock_2013.1_src/data/scripts/dock_solv.prm

>  <Rbt.Receptor>
prm/blind_docking_100.prm

>  <SCORE>
-10.2011

>  <SCORE.INTER>
-7.66252

>  <SCORE.INTER.CONST>
1

>  <SCORE.INTER.POLAR>
0

>  <SCORE.INTER.ROT>
7

>  <SCORE.INTER.SOLV>
9.31851

>  <SCORE.INTER.VDW>
-16.4812

>  <SCORE.INTER.norm>
-0.283797

>  <SCORE.INTRA>
-2.53856

>  <SCORE.INTRA.DIHEDRAL>
-2.21482

>  <SCORE.INTRA.DIHEDRAL.0>
10.0365

>  <SCORE.INTRA.POLAR>
0

>  <SCORE.INTRA.POLAR.0>
0

>  <SCORE.INTRA.REPUL>
0

>  <SCORE.INTRA.REPUL.0>
0

>  <SCORE.INTRA.SOLV>
-0.929251

>  <SCORE.INTRA.SOLV.lig_0>
-48.6728

>  <SCORE.INTRA.VDW>
-0.966523

>  <SCORE.INTRA.VDW.0>
-1.10662

>  <SCORE.INTRA.norm>
-0.0940206

>  <SCORE.RESTR>
0

>  <SCORE.RESTR.CAVITY>
0

>  <SCORE.RESTR.norm>
0

>  <SCORE.SYSTEM>
0

>  <SCORE.SYSTEM.CONST>
0

>  <SCORE.SYSTEM.DIHEDRAL>
0

>  <SCORE.SYSTEM.SOLV>
0

>  <SCORE.SYSTEM.norm>
0

>  <SCORE.heavy>
27

>  <SCORE.norm>
-0.377818

>  <RMSD>
11.627

$$$$
ligand
 OpenBabel11021811483D
libRbt.so/2013.1/901 2013/11/27
 27 29  0  0  0  0  0  0  0  0999 V2000
   52.3473   52.9105   27.1799 N   0  0  0  0  0  0  0  0  0  0  0  0
   51.2903   51.9711   26.7831 C   0  0  2  0  0  0  0  0  0  0  0  0
   51.8759   50.9716   25.8315 C   0  0  0  0  0  0  0  0  0  0  0  0
   53.0562   51.0392   25.5271 O   0  0  0  0  0  0  0  0  0  0  0  0
   50.1414   52.7213   26.0929 C   0  0  0  0  0  0  0  0  0  0  0  0
   50.7131   53.5633   24.9561 C   0  0  0  0  0  0  0  0  0  0  0  0
   49.5747   54.8581   24.3686 S   0  0  2  0  0  0  0  0  0  0  0  0
   48.9855   55.6711   25.8859 C   0  0  0  0  0  0  0  0  0  0  0  0
   47.9894   54.1301   23.8186 C   0  0  0  0  0  0  0  0  0  0  0  0
   48.3076   53.6239   22.4331 C   0  0  1  0  0  0  0  0  0  0  0  0
   47.0740   53.6056   21.7938 O   0  0  0  0  0  0  0  0  0  0  0  0
   49.1444   54.4397   21.4465 C   0  0  1  0  0  0  0  0  0  0  0  0
   50.5111   54.1562   21.5386 O   0  0  0  0  0  0  0  0  0  0  0  0
   48.4636   53.9370   20.0847 C   0  0  1  0  0  0  0  0  0  0  0  0
   48.4720   52.5133   19.9042 O   0  0  0  0  0  0  0  0  0  0  0  0
   47.1595   54.4922   20.6095 C   0  0  1  0  0  0  0  0  0  0  0  0
   51.1719   50.0837   25.3767 O   0  0  0  0  0  0  0  0  0  0  0  0
   44.3360   56.8465   17.1811 N   0  0  0  0  0  0  0  0  0  0  0  0
   45.6281   56.9689   17.4894 C   0  0  0  0  0  0  0  0  0  0  0  0
   46.2066   56.2010   18.4119 N   0  0  0  0  0  0  0  0  0  0  0  0
   45.4837   55.3565   19.1596 C   0  0  0  0  0  0  0  0  0  0  0  0
   44.0796   55.2447   18.9051 C   0  0  0  0  0  0  0  0  0  0  0  0
   43.5325   56.0358   17.8577 C   0  0  0  0  0  0  0  0  0  0  0  0
   42.2049   55.9746   17.5392 N   0  0  0  0  0  0  0  0  0  0  0  0
   43.5883   54.3473   19.7817 N   0  0  0  0  0  0  0  0  0  0  0  0
   44.5613   53.9071   20.5486 C   0  0  0  0  0  0  0  0  0  0  0  0
   45.7641   54.4768   20.2100 N   0  0  0  0  0  0  0  0  0  0  0  0
  2  1  1  6  0  0  0
  2  3  1  0  0  0  0
  2  5  1  0  0  0  0
  3  4  1  0  0  0  0
  3 17  1  0  0  0  0
  5  6  1  0  0  0  0
  7  6  1  1  0  0  0
  7  8  1  0  0  0  0
  7  9  1  0  0  0  0
 10  9  1  1  0  0  0
 10 11  1  0  0  0  0
 10 12  1  0  0  0  0
 11 16  1  0  0  0  0
 12 13  1  6  0  0  0
 12 14  1  0  0  0  0
 14 15  1  1  0  0  0
 14 16  1  0  0  0  0
 16 27  1  6  0  0  0
 18 19  2  0  0  0  0
 18 23  1  0  0  0  0
 19 20  1  0  0  0  0
 20 21  2  0  0  0  0
 21 22  1  0  0  0  0
 21 27  1  0  0  0  0
 22 23  2  0  0  0  0
 22 25  1  0  0  0  0
 23 24  1  0  0  0  0
 25 26  2  0  0  0  0
 26 27  1  0  0  0  0
M  END
>  <CHROM.1>
0.37507654,53.00394496,-163.17338439,47.82533948,-80.20729368,-155.24439777
173.90166075,48.02715768,54.05449680,22.08247578,0.46492876,-0.75775318,1.04913084

>  <Name>
ligand

>  <RI>
0

>  <Rbt.Current_Directory>
/home/itssahil/PROJECTS/Mol_Feturizer/New_Systems/rnas/3IQN

>  <Rbt.Executable>
rbdock ($Id: //depot/dev/client3/rdock/2013.1/src/exe/rbdock.cxx#4 $)

>  <Rbt.Library>
libRbt.so (2013.1, Build901 2013/11/27)

>  <Rbt.Parameter_File>
/export/apps/rDock/src/rDock_2013.1_src/data/scripts/dock_solv.prm

>  <Rbt.Receptor>
prm/blind_docking_100.prm

>  <SCORE>
-13.1164

>  <SCORE.INTER>
-12.3122

>  <SCORE.INTER.CONST>
1

>  <SCORE.INTER.POLAR>
0

>  <SCORE.INTER.ROT>
7

>  <SCORE.INTER.SOLV>
18.1921

>  <SCORE.INTER.VDW>
-22.5389

>  <SCORE.INTER.norm>
-0.456009

>  <SCORE.INTRA>
-0.804154

>  <SCORE.INTRA.DIHEDRAL>
-3.18028

>  <SCORE.INTRA.DIHEDRAL.0>
10.0365

>  <SCORE.INTRA.POLAR>
0

>  <SCORE.INTRA.POLAR.0>
0

>  <SCORE.INTRA.REPUL>
0

>  <SCORE.INTRA.REPUL.0>
0

>  <SCORE.INTRA.SOLV>
0.253812

>  <SCORE.INTRA.SOLV.lig_0>
-48.6728

>  <SCORE.INTRA.VDW>
0.65908

>  <SCORE.INTRA.VDW.0>
-1.10662

>  <SCORE.INTRA.norm>
-0.0297835

>  <SCORE.RESTR>
0

>  <SCORE.RESTR.CAVITY>
0

>  <SCORE.RESTR.norm>
0

>  <SCORE.SYSTEM>
0

>  <SCORE.SYSTEM.CONST>
0

>  <SCORE.SYSTEM.DIHEDRAL>
0

>  <SCORE.SYSTEM.SOLV>
0

>  <SCORE.SYSTEM.norm>
0

>  <SCORE.heavy>
27

>  <SCORE.norm>
-0.485792

>  <RMSD>
11.650

$$$$
ligand
 OpenBabel11021811483D
libRbt.so/2013.1/901 2013/11/27
 27 29  0  0  0  0  0  0  0  0999 V2000
   55.8861   48.6036   22.0979 N   0  0  0  0  0  0  0  0  0  0  0  0
   55.3066   49.6177   22.9885 C   0  0  2  0  0  0  0  0  0  0  0  0
   54.9270   48.9554   24.2788 C   0  0  0  0  0  0  0  0  0  0  0  0
   54.6692   49.6349   25.2595 O   0  0  0  0  0  0  0  0  0  0  0  0
   54.0575   50.2401   22.3469 C   0  0  0  0  0  0  0  0  0  0  0  0
   54.4864   51.0962   21.1588 C   0  0  0  0  0  0  0  0  0  0  0  0
   53.0877   51.8130   20.2385 S   0  0  2  0  0  0  0  0  0  0  0  0
   53.8550   53.0000   19.0928 C   0  0  0  0  0  0  0  0  0  0  0  0
   52.1637   53.0000   21.2793 C   0  0  0  0  0  0  0  0  0  0  0  0
   50.7951   53.0192   20.6440 C   0  0  1  0  0  0  0  0  0  0  0  0
   49.9465   52.6196   21.6692 O   0  0  0  0  0  0  0  0  0  0  0  0
   50.1302   54.3213   20.1950 C   0  0  1  0  0  0  0  0  0  0  0  0
   50.4225   54.6430   18.8654 O   0  0  0  0  0  0  0  0  0  0  0  0
   48.6018   53.9067   20.4456 C   0  0  1  0  0  0  0  0  0  0  0  0
   48.1893   52.7119   19.7661 O   0  0  0  0  0  0  0  0  0  0  0  0
   48.9642   53.7049   21.8990 C   0  0  1  0  0  0  0  0  0  0  0  0
   54.8621   47.7376   24.3382 O   0  0  0  0  0  0  0  0  0  0  0  0
   44.3006   52.3641   23.2111 N   0  0  0  0  0  0  0  0  0  0  0  0
   44.7813   52.8767   22.0773 C   0  0  0  0  0  0  0  0  0  0  0  0
   46.0810   53.1177   21.9101 N   0  0  0  0  0  0  0  0  0  0  0  0
   46.9461   52.9720   22.9226 C   0  0  0  0  0  0  0  0  0  0  0  0
   46.4579   52.4874   24.1778 C   0  0  0  0  0  0  0  0  0  0  0  0
   45.0735   52.1767   24.2733 C   0  0  0  0  0  0  0  0  0  0  0  0
   44.5313   51.6923   25.4305 N   0  0  0  0  0  0  0  0  0  0  0  0
   47.5093   52.4360   25.0188 N   0  0  0  0  0  0  0  0  0  0  0  0
   48.5898   52.8492   24.3937 C   0  0  0  0  0  0  0  0  0  0  0  0
   48.3186   53.1821   23.0893 N   0  0  0  0  0  0  0  0  0  0  0  0
  2  1  1  6  0  0  0
  2  3  1  0  0  0  0
  2  5  1  0  0  0  0
  3  4  1  0  0  0  0
  3 17  1  0  0  0  0
  5  6  1  0  0  0  0
  7  6  1  1  0  0  0
  7  8  1  0  0  0  0
  7  9  1  0  0  0  0
 10  9  1  1  0  0  0
 10 11  1  0  0  0  0
 10 12  1  0  0  0  0
 11 16  1  0  0  0  0
 12 13  1  6  0  0  0
 12 14  1  0  0  0  0
 14 15  1  6  0  0  0
 14 16  1  0  0  0  0
 16 27  1  1  0  0  0
 18 19  2  0  0  0  0
 18 23  1  0  0  0  0
 19 20  1  0  0  0  0
 20 21  2  0  0  0  0
 21 22  1  0  0  0  0
 21 27  1  0  0  0  0
 22 23  2  0  0  0  0
 22 25  1  0  0  0  0
 23 24  1  0  0  0  0
 25 26  2  0  0  0  0
 26 27  1  0  0  0  0
M  END
>  <CHROM.1>
165.77643695,-69.67361946,176.36473929,170.18018491,-156.31952591,121.02132529
-120.43282195,50.35828761,51.99513334,22.19358353,0.11373432,-0.30210943
2.16216769

>  <Name>
ligand

>  <RI>
0

>  <Rbt.Current_Directory>
/home/itssahil/PROJECTS/Mol_Feturizer/New_Systems/rnas/3IQN

>  <Rbt.Executable>
rbdock ($Id: //depot/dev/client3/rdock/2013.1/src/exe/rbdock.cxx#4 $)

>  <Rbt.Library>
libRbt.so (2013.1, Build901 2013/11/27)

>  <Rbt.Parameter_File>
/export/apps/rDock/src/rDock_2013.1_src/data/scripts/dock_solv.prm

>  <Rbt.Receptor>
prm/blind_docking_100.prm

>  <SCORE>
-17.1406

>  <SCORE.INTER>
-15.8153

>  <SCORE.INTER.CONST>
1

>  <SCORE.INTER.POLAR>
0

>  <SCORE.INTER.ROT>
7

>  <SCORE.INTER.SOLV>
18.608

>  <SCORE.INTER.VDW>
-25.0129

>  <SCORE.INTER.norm>
-0.585753

>  <SCORE.INTRA>
-1.32526

>  <SCORE.INTRA.DIHEDRAL>
0.645181

>  <SCORE.INTRA.DIHEDRAL.0>
10.0365

>  <SCORE.INTRA.POLAR>
0

>  <SCORE.INTRA.POLAR.0>
0

>  <SCORE.INTRA.REPUL>
0

>  <SCORE.INTRA.REPUL.0>
0

>  <SCORE.INTRA.SOLV>
-0.324977

>  <SCORE.INTRA.SOLV.lig_0>
-48.6728

>  <SCORE.INTRA.VDW>
-1.48536

>  <SCORE.INTRA.VDW.0>
-1.10662

>  <SCORE.INTRA.norm>
-0.0490838

>  <SCORE.RESTR>
0

>  <SCORE.RESTR.CAVITY>
0

>  <SCORE.RESTR.norm>
0

>  <SCORE.SYSTEM>
0

>  <SCORE.SYSTEM.CONST>
0

>  <SCORE.SYSTEM.DIHEDRAL>
0

>  <SCORE.SYSTEM.SOLV>
0

>  <SCORE.SYSTEM.norm>
0

>  <SCORE.heavy>
27

>  <SCORE.norm>
-0.634837

>  <RMSD>
11.677

$$$$
ligand
 OpenBabel11021811483D
libRbt.so/2013.1/901 2013/11/27
 27 29  0  0  0  0  0  0  0  0999 V2000
   47.9405   53.5243   26.5623 N   0  0  0  0  0  0  0  0  0  0  0  0
   47.5976   52.7633   25.3537 C   0  0  2  0  0  0  0  0  0  0  0  0
   46.2971   52.0563   25.5907 C   0  0  0  0  0  0  0  0  0  0  0  0
   45.4718   51.9823   24.6943 O   0  0  0  0  0  0  0  0  0  0  0  0
   48.6919   51.7305   25.0454 C   0  0  0  0  0  0  0  0  0  0  0  0
   50.0092   52.4623   24.8055 C   0  0  0  0  0  0  0  0  0  0  0  0
   50.0044   53.4909   23.3024 S   0  0  2  0  0  0  0  0  0  0  0  0
   51.5689   54.4168   23.3774 C   0  0  0  0  0  0  0  0  0  0  0  0
   48.8486   54.8975   23.4799 C   0  0  0  0  0  0  0  0  0  0  0  0
   47.9515   54.7577   22.2747 C   0  0  1  0  0  0  0  0  0  0  0  0
   48.7671   55.1177   21.2089 O   0  0  0  0  0  0  0  0  0  0  0  0
   47.4309   53.3976   21.8076 C   0  0  1  0  0  0  0  0  0  0  0  0
   46.2018   53.0650   22.3870 O   0  0  0  0  0  0  0  0  0  0  0  0
   47.3507   53.7007   20.2353 C   0  0  1  0  0  0  0  0  0  0  0  0
   46.5538   54.8428   19.8884 O   0  0  0  0  0  0  0  0  0  0  0  0
   48.8378   53.9668   20.2781 C   0  0  1  0  0  0  0  0  0  0  0  0
   46.0757   51.5432   26.6763 O   0  0  0  0  0  0  0  0  0  0  0  0
   53.6096   52.8371   19.1724 N   0  0  0  0  0  0  0  0  0  0  0  0
   52.7699   52.3206   20.0711 C   0  0  0  0  0  0  0  0  0  0  0  0
   51.5072   52.7335   20.1722 N   0  0  0  0  0  0  0  0  0  0  0  0
   51.0621   53.7756   19.4574 C   0  0  0  0  0  0  0  0  0  0  0  0
   51.9536   54.4015   18.5289 C   0  0  0  0  0  0  0  0  0  0  0  0
   53.2669   53.8689   18.4117 C   0  0  0  0  0  0  0  0  0  0  0  0
   54.1733   54.3973   17.5359 N   0  0  0  0  0  0  0  0  0  0  0  0
   51.2764   55.4113   17.9485 N   0  0  0  0  0  0  0  0  0  0  0  0
   50.0584   55.4611   18.4413 C   0  0  0  0  0  0  0  0  0  0  0  0
   49.8511   54.4693   19.3683 N   0  0  0  0  0  0  0  0  0  0  0  0
  2  1  1  1  0  0  0
  2  3  1  0  0  0  0
  2  5  1  0  0  0  0
  3  4  1  0  0  0  0
  3 17  1  0  0  0  0
  5  6  1  0  0  0  0
  7  6  1  1  0  0  0
  7  8  1  0  0  0  0
  7  9  1  0  0  0  0
 10  9  1  1  0  0  0
 10 11  1  0  0  0  0
 10 12  1  0  0  0  0
 11 16  1  0  0  0  0
 12 13  1  1  0  0  0
 12 14  1  0  0  0  0
 14 15  1  1  0  0  0
 14 16  1  0  0  0  0
 16 27  1  6  0  0  0
 18 19  2  0  0  0  0
 18 23  1  0  0  0  0
 19 20  1  0  0  0  0
 20 21  2  0  0  0  0
 21 22  1  0  0  0  0
 21 27  1  0  0  0  0
 22 23  2  0  0  0  0
 22 25  1  0  0  0  0
 23 24  1  0  0  0  0
 25 26  2  0  0  0  0
 26 27  1  0  0  0  0
M  END
>  <CHROM.1>
140.61990258,-60.77358731,-66.57162077,172.30457155,-125.43145579,-71.46989783
110.93622003,49.38392261,53.59357271,21.86360536,-2.23653028,0.13836203,-1.22277209

>  <Name>
ligand

>  <RI>
0

>  <Rbt.Current_Directory>
/home/itssahil/PROJECTS/Mol_Feturizer/New_Systems/rnas/3IQN

>  <Rbt.Executable>
rbdock ($Id: //depot/dev/client3/rdock/2013.1/src/exe/rbdock.cxx#4 $)

>  <Rbt.Library>
libRbt.so (2013.1, Build901 2013/11/27)

>  <Rbt.Parameter_File>
/export/apps/rDock/src/rDock_2013.1_src/data/scripts/dock_solv.prm

>  <Rbt.Receptor>
prm/blind_docking_80.prm

>  <SCORE>
-16.0561

>  <SCORE.INTER>
-13.2374

>  <SCORE.INTER.CONST>
1

>  <SCORE.INTER.POLAR>
0

>  <SCORE.INTER.ROT>
7

>  <SCORE.INTER.SOLV>
9.703

>  <SCORE.INTER.VDW>
-20.3259

>  <SCORE.INTER.norm>
-0.490273

>  <SCORE.INTRA>
-2.81869

>  <SCORE.INTRA.DIHEDRAL>
-1.8754

>  <SCORE.INTRA.DIHEDRAL.0>
10.0365

>  <SCORE.INTRA.POLAR>
0

>  <SCORE.INTRA.POLAR.0>
0

>  <SCORE.INTRA.REPUL>
0

>  <SCORE.INTRA.REPUL.0>
0

>  <SCORE.INTRA.SOLV>
1.96557

>  <SCORE.INTRA.SOLV.lig_0>
-48.6728

>  <SCORE.INTRA.VDW>
-2.86378

>  <SCORE.INTRA.VDW.0>
-1.10662

>  <SCORE.INTRA.norm>
-0.104396

>  <SCORE.RESTR>
0

>  <SCORE.RESTR.CAVITY>
0

>  <SCORE.RESTR.norm>
0

>  <SCORE.SYSTEM>
0

>  <SCORE.SYSTEM.CONST>
0

>  <SCORE.SYSTEM.DIHEDRAL>
0

>  <SCORE.SYSTEM.SOLV>
0

>  <SCORE.SYSTEM.norm>
0

>  <SCORE.heavy>
27

>  <SCORE.norm>
-0.594669

>  <RMSD>
11.822

$$$$
ligand
 OpenBabel11021811483D
libRbt.so/2013.1/901 2013/11/27
 27 29  0  0  0  0  0  0  0  0999 V2000
   51.2662   53.8575   28.5330 N   0  0  0  0  0  0  0  0  0  0  0  0
   50.6870   52.7760   27.7253 C   0  0  2  0  0  0  0  0  0  0  0  0
   51.7817   52.1504   26.9143 C   0  0  0  0  0  0  0  0  0  0  0  0
   52.7728   52.8013   26.6239 O   0  0  0  0  0  0  0  0  0  0  0  0
   49.6080   53.3324   26.7842 C   0  0  0  0  0  0  0  0  0  0  0  0
   50.2265   54.4206   25.9115 C   0  0  0  0  0  0  0  0  0  0  0  0
   49.0396   55.1946   24.7671 S   0  0  2  0  0  0  0  0  0  0  0  0
   47.7578   55.9017   25.8476 C   0  0  0  0  0  0  0  0  0  0  0  0
   48.0199   53.9267   23.9313 C   0  0  0  0  0  0  0  0  0  0  0  0
   47.9962   54.3970   22.4976 C   0  0  1  0  0  0  0  0  0  0  0  0
   49.2995   54.1959   22.0597 O   0  0  0  0  0  0  0  0  0  0  0  0
   47.2005   53.6613   21.4184 C   0  0  1  0  0  0  0  0  0  0  0  0
   45.8964   54.1498   21.2857 O   0  0  0  0  0  0  0  0  0  0  0  0
   48.1480   53.9807   20.1650 C   0  0  1  0  0  0  0  0  0  0  0  0
   48.3884   55.3776   19.9403 O   0  0  0  0  0  0  0  0  0  0  0  0
   49.2560   53.2677   20.9054 C   0  0  1  0  0  0  0  0  0  0  0  0
   51.6835   50.9859   26.5607 O   0  0  0  0  0  0  0  0  0  0  0  0
   52.4572   53.1198   17.0326 N   0  0  0  0  0  0  0  0  0  0  0  0
   51.1351   53.2923   17.0736 C   0  0  0  0  0  0  0  0  0  0  0  0
   50.4693   53.3525   18.2262 N   0  0  0  0  0  0  0  0  0  0  0  0
   51.0850   53.1162   19.3924 C   0  0  0  0  0  0  0  0  0  0  0  0
   52.4932   52.8600   19.3852 C   0  0  0  0  0  0  0  0  0  0  0  0
   53.1628   52.8821   18.1309 C   0  0  0  0  0  0  0  0  0  0  0  0
   54.5090   52.6651   18.0392 N   0  0  0  0  0  0  0  0  0  0  0  0
   52.8646   52.6516   20.6634 N   0  0  0  0  0  0  0  0  0  0  0  0
   51.8129   52.7519   21.4462 C   0  0  0  0  0  0  0  0  0  0  0  0
   50.6807   53.0530   20.7297 N   0  0  0  0  0  0  0  0  0  0  0  0
  2  1  1  6  0  0  0
  2  3  1  0  0  0  0
  2  5  1  0  0  0  0
  3  4  1  0  0  0  0
  3 17  1  0  0  0  0
  5  6  1  0  0  0  0
  7  6  1  1  0  0  0
  7  8  1  0  0  0  0
  7  9  1  0  0  0  0
 10  9  1  1  0  0  0
 10 11  1  0  0  0  0
 10 12  1  0  0  0  0
 11 16  1  0  0  0  0
 12 13  1  6  0  0  0
 12 14  1  0  0  0  0
 14 15  1  1  0  0  0
 14 16  1  0  0  0  0
 16 27  1  6  0  0  0
 18 19  2  0  0  0  0
 18 23  1  0  0  0  0
 19 20  1  0  0  0  0
 20 21  2  0  0  0  0
 21 22  1  0  0  0  0
 21 27  1  0  0  0  0
 22 23  2  0  0  0  0
 22 25  1  0  0  0  0
 23 24  1  0  0  0  0
 25 26  2  0  0  0  0
 26 27  1  0  0  0  0
M  END
>  <CHROM.1>
-25.80104821,57.02158034,-178.74407976,59.69153262,-136.37861243,69.38262559
-135.34319239,50.24587000,53.58993759,22.50088162,-1.73231775,0.39152561
-1.55325063

>  <Name>
ligand

>  <RI>
0

>  <Rbt.Current_Directory>
/home/itssahil/PROJECTS/Mol_Feturizer/New_Systems/rnas/3IQN

>  <Rbt.Executable>
rbdock ($Id: //depot/dev/client3/rdock/2013.1/src/exe/rbdock.cxx#4 $)

>  <Rbt.Library>
libRbt.so (2013.1, Build901 2013/11/27)

>  <Rbt.Parameter_File>
/export/apps/rDock/src/rDock_2013.1_src/data/scripts/dock_solv.prm

>  <Rbt.Receptor>
prm/blind_docking_100.prm

>  <SCORE>
-13.1394

>  <SCORE.INTER>
-11.5335

>  <SCORE.INTER.CONST>
1

>  <SCORE.INTER.POLAR>
0

>  <SCORE.INTER.ROT>
7

>  <SCORE.INTER.SOLV>
14.1771

>  <SCORE.INTER.VDW>
-20.6814

>  <SCORE.INTER.norm>
-0.427167

>  <SCORE.INTRA>
-1.60585

>  <SCORE.INTRA.DIHEDRAL>
-2.28126

>  <SCORE.INTRA.DIHEDRAL.0>
10.0365

>  <SCORE.INTRA.POLAR>
0

>  <SCORE.INTRA.POLAR.0>
0

>  <SCORE.INTRA.REPUL>
0

>  <SCORE.INTRA.REPUL.0>
0

>  <SCORE.INTRA.SOLV>
-0.329567

>  <SCORE.INTRA.SOLV.lig_0>
-48.6728

>  <SCORE.INTRA.VDW>
-0.300433

>  <SCORE.INTRA.VDW.0>
-1.10662

>  <SCORE.INTRA.norm>
-0.0594758

>  <SCORE.RESTR>
0

>  <SCORE.RESTR.CAVITY>
0

>  <SCORE.RESTR.norm>
0

>  <SCORE.SYSTEM>
0

>  <SCORE.SYSTEM.CONST>
0

>  <SCORE.SYSTEM.DIHEDRAL>
0

>  <SCORE.SYSTEM.SOLV>
0

>  <SCORE.SYSTEM.norm>
0

>  <SCORE.heavy>
27

>  <SCORE.norm>
-0.486643

>  <RMSD>
11.865

$$$$
ligand
 OpenBabel11021811483D
libRbt.so/2013.1/901 2013/11/27
 27 29  0  0  0  0  0  0  0  0999 V2000
   50.3681   51.5406   26.6386 N   0  0  0  0  0  0  0  0  0  0  0  0
   51.0224   52.1904   25.4954 C   0  0  2  0  0  0  0  0  0  0  0  0
   52.1758   51.3372   25.0604 C   0  0  0  0  0  0  0  0  0  0  0  0
   52.9291   50.8601   25.8941 O   0  0  0  0  0  0  0  0  0  0  0  0
   51.5379   53.5809   25.8955 C   0  0  0  0  0  0  0  0  0  0  0  0
   50.3513   54.4503   26.3010 C   0  0  0  0  0  0  0  0  0  0  0  0
   49.3686   55.0424   24.8864 S   0  0  2  0  0  0  0  0  0  0  0  0
   47.8965   55.8022   25.6388 C   0  0  0  0  0  0  0  0  0  0  0  0
   48.5477   53.6471   24.0348 C   0  0  0  0  0  0  0  0  0  0  0  0
   48.2581   54.2057   22.6633 C   0  0  1  0  0  0  0  0  0  0  0  0
   49.5114   54.3005   22.0709 O   0  0  0  0  0  0  0  0  0  0  0  0
   47.4886   53.4065   21.6105 C   0  0  1  0  0  0  0  0  0  0  0  0
   46.1094   53.6339   21.6657 O   0  0  0  0  0  0  0  0  0  0  0  0
   48.1959   53.9981   20.2989 C   0  0  1  0  0  0  0  0  0  0  0  0
   48.1379   55.4274   20.1837 O   0  0  0  0  0  0  0  0  0  0  0  0
   49.5018   53.4682   20.8449 C   0  0  1  0  0  0  0  0  0  0  0  0
   52.3473   51.1103   23.8730 O   0  0  0  0  0  0  0  0  0  0  0  0
   52.1713   54.8669   16.8217 N   0  0  0  0  0  0  0  0  0  0  0  0
   50.8543   54.7923   17.0197 C   0  0  0  0  0  0  0  0  0  0  0  0
   50.3391   54.4410   18.1972 N   0  0  0  0  0  0  0  0  0  0  0  0
   51.1258   54.0254   19.1988 C   0  0  0  0  0  0  0  0  0  0  0  0
   52.5437   54.0267   19.0032 C   0  0  0  0  0  0  0  0  0  0  0  0
   53.0379   54.4829   17.7502 C   0  0  0  0  0  0  0  0  0  0  0  0
   54.3785   54.5323   17.4896 N   0  0  0  0  0  0  0  0  0  0  0  0
   53.1010   53.5669   20.1404 N   0  0  0  0  0  0  0  0  0  0  0  0
   52.1542   53.2813   21.0069 C   0  0  0  0  0  0  0  0  0  0  0  0
   50.9085   53.5547   20.4976 N   0  0  0  0  0  0  0  0  0  0  0  0
  2  1  1  1  0  0  0
  2  3  1  0  0  0  0
  2  5  1  0  0  0  0
  3  4  1  0  0  0  0
  3 17  1  0  0  0  0
  5  6  1  0  0  0  0
  7  6  1  1  0  0  0
  7  8  1  0  0  0  0
  7  9  1  0  0  0  0
 10  9  1  1  0  0  0
 10 11  1  0  0  0  0
 10 12  1  0  0  0  0
 11 16  1  0  0  0  0
 12 13  1  6  0  0  0
 12 14  1  0  0  0  0
 14 15  1  1  0  0  0
 14 16  1  0  0  0  0
 16 27  1  6  0  0  0
 18 19  2  0  0  0  0
 18 23  1  0  0  0  0
 19 20  1  0  0  0  0
 20 21  2  0  0  0  0
 21 22  1  0  0  0  0
 21 27  1  0  0  0  0
 22 23  2  0  0  0  0
 22 25  1  0  0  0  0
 23 24  1  0  0  0  0
 25 26  2  0  0  0  0
 26 27  1  0  0  0  0
M  END
>  <CHROM.1>
-44.35956951,-62.19928408,-75.43582740,171.03199190,-158.88623358,70.68962010
-124.64985522,50.42888173,53.74411665,22.08933841,-1.77960186,0.36497335
-1.32742002

>  <Name>
ligand

>  <RI>
0

>  <Rbt.Current_Directory>
/home/itssahil/PROJECTS/Mol_Feturizer/New_Systems/rnas/3IQN

>  <Rbt.Executable>
rbdock ($Id: //depot/dev/client3/rdock/2013.1/src/exe/rbdock.cxx#4 $)

>  <Rbt.Library>
libRbt.so (2013.1, Build901 2013/11/27)

>  <Rbt.Parameter_File>
/export/apps/rDock/src/rDock_2013.1_src/data/scripts/dock_solv.prm

>  <Rbt.Receptor>
prm/blind_docking_80.prm

>  <SCORE>
-13.9184

>  <SCORE.INTER>
-10.4578

>  <SCORE.INTER.CONST>
1

>  <SCORE.INTER.POLAR>
0

>  <SCORE.INTER.ROT>
7

>  <SCORE.INTER.SOLV>
8.92914

>  <SCORE.INTER.VDW>
-18.2149

>  <SCORE.INTER.norm>
-0.387324

>  <SCORE.INTRA>
-3.46066

>  <SCORE.INTRA.DIHEDRAL>
-3.82093

>  <SCORE.INTRA.DIHEDRAL.0>
10.0365

>  <SCORE.INTRA.POLAR>
0

>  <SCORE.INTRA.POLAR.0>
0

>  <SCORE.INTRA.REPUL>
0

>  <SCORE.INTRA.REPUL.0>
0

>  <SCORE.INTRA.SOLV>
0.805156

>  <SCORE.INTRA.SOLV.lig_0>
-48.6728

>  <SCORE.INTRA.VDW>
-1.95277

>  <SCORE.INTRA.VDW.0>
-1.10662

>  <SCORE.INTRA.norm>
-0.128172

>  <SCORE.RESTR>
0

>  <SCORE.RESTR.CAVITY>
0

>  <SCORE.RESTR.norm>
0

>  <SCORE.SYSTEM>
0

>  <SCORE.SYSTEM.CONST>
0

>  <SCORE.SYSTEM.DIHEDRAL>
0

>  <SCORE.SYSTEM.SOLV>
0

>  <SCORE.SYSTEM.norm>
0

>  <SCORE.heavy>
27

>  <SCORE.norm>
-0.515497

>  <RMSD>
11.875

$$$$
ligand
 OpenBabel11021811483D
libRbt.so/2013.1/901 2013/11/27
 27 29  0  0  0  0  0  0  0  0999 V2000
   53.6200   52.1503   23.8245 N   0  0  0  0  0  0  0  0  0  0  0  0
   52.7682   52.8058   24.8255 C   0  0  2  0  0  0  0  0  0  0  0  0
   52.2302   51.7568   25.7515 C   0  0  0  0  0  0  0  0  0  0  0  0
   52.0857   52.0072   26.9375 O   0  0  0  0  0  0  0  0  0  0  0  0
   51.5999   53.5298   24.1398 C   0  0  0  0  0  0  0  0  0  0  0  0
   50.8059   54.2959   25.1939 C   0  0  0  0  0  0  0  0  0  0  0  0
   49.3454   55.1520   24.5220 S   0  0  2  0  0  0  0  0  0  0  0  0
   48.3761   55.6213   25.9885 C   0  0  0  0  0  0  0  0  0  0  0  0
   48.1693   53.9567   23.7913 C   0  0  0  0  0  0  0  0  0  0  0  0
   48.0122   54.4531   22.3750 C   0  0  1  0  0  0  0  0  0  0  0  0
   49.2901   54.3444   21.8404 O   0  0  0  0  0  0  0  0  0  0  0  0
   47.1874   53.6900   21.3375 C   0  0  1  0  0  0  0  0  0  0  0  0
   45.8492   54.0969   21.3102 O   0  0  0  0  0  0  0  0  0  0  0  0
   48.0195   54.0943   20.0280 C   0  0  1  0  0  0  0  0  0  0  0  0
   48.1556   55.5078   19.8211 O   0  0  0  0  0  0  0  0  0  0  0  0
   49.2206   53.4386   20.6697 C   0  0  1  0  0  0  0  0  0  0  0  0
   51.9239   50.6599   25.3113 O   0  0  0  0  0  0  0  0  0  0  0  0
   52.5220   55.6940   17.6230 N   0  0  0  0  0  0  0  0  0  0  0  0
   51.2078   55.8647   17.7750 C   0  0  0  0  0  0  0  0  0  0  0  0
   50.5125   55.1912   18.6906 N   0  0  0  0  0  0  0  0  0  0  0  0
   51.0840   54.2195   19.4146 C   0  0  0  0  0  0  0  0  0  0  0  0
   52.4796   53.9591   19.2330 C   0  0  0  0  0  0  0  0  0  0  0  0
   53.1852   54.7611   18.2943 C   0  0  0  0  0  0  0  0  0  0  0  0
   54.5230   54.5886   18.0747 N   0  0  0  0  0  0  0  0  0  0  0  0
   52.8051   52.9478   20.0616 N   0  0  0  0  0  0  0  0  0  0  0  0
   51.7368   52.5656   20.7259 C   0  0  0  0  0  0  0  0  0  0  0  0
   50.6394   53.3188   20.3876 N   0  0  0  0  0  0  0  0  0  0  0  0
  2  1  1  6  0  0  0
  2  3  1  0  0  0  0
  2  5  1  0  0  0  0
  3  4  1  0  0  0  0
  3 17  1  0  0  0  0
  5  6  1  0  0  0  0
  7  6  1  1  0  0  0
  7  8  1  0  0  0  0
  7  9  1  0  0  0  0
 10  9  1  1  0  0  0
 10 11  1  0  0  0  0
 10 12  1  0  0  0  0
 11 16  1  0  0  0  0
 12 13  1  6  0  0  0
 12 14  1  0  0  0  0
 14 15  1  1  0  0  0
 14 16  1  0  0  0  0
 16 27  1  6  0  0  0
 18 19  2  0  0  0  0
 18 23  1  0  0  0  0
 19 20  1  0  0  0  0
 20 21  2  0  0  0  0
 21 22  1  0  0  0  0
 21 27  1  0  0  0  0
 22 23  2  0  0  0  0
 22 25  1  0  0  0  0
 23 24  1  0  0  0  0
 25 26  2  0  0  0  0
 26 27  1  0  0  0  0
M  END
>  <CHROM.1>
143.91647766,-175.23198195,-177.73889804,166.54636699,-123.59535150,62.20452694
-94.98289068,50.52557816,53.92912447,21.99417851,-1.66544151,0.28950604,-1.31152352

>  <Name>
ligand

>  <RI>
0

>  <Rbt.Current_Directory>
/home/itssahil/PROJECTS/Mol_Feturizer/New_Systems/rnas/3IQN

>  <Rbt.Executable>
rbdock ($Id: //depot/dev/client3/rdock/2013.1/src/exe/rbdock.cxx#4 $)

>  <Rbt.Library>
libRbt.so (2013.1, Build901 2013/11/27)

>  <Rbt.Parameter_File>
/export/apps/rDock/src/rDock_2013.1_src/data/scripts/dock_solv.prm

>  <Rbt.Receptor>
prm/blind_docking_100.prm

>  <SCORE>
-15.7793

>  <SCORE.INTER>
-12.698

>  <SCORE.INTER.CONST>
1

>  <SCORE.INTER.POLAR>
0

>  <SCORE.INTER.ROT>
7

>  <SCORE.INTER.SOLV>
7.26554

>  <SCORE.INTER.VDW>
-19.1539

>  <SCORE.INTER.norm>
-0.470297

>  <SCORE.INTRA>
-3.08128

>  <SCORE.INTRA.DIHEDRAL>
-2.10425

>  <SCORE.INTRA.DIHEDRAL.0>
10.0365

>  <SCORE.INTRA.POLAR>
0

>  <SCORE.INTRA.POLAR.0>
0

>  <SCORE.INTRA.REPUL>
0

>  <SCORE.INTRA.REPUL.0>
0

>  <SCORE.INTRA.SOLV>
-0.562351

>  <SCORE.INTRA.SOLV.lig_0>
-48.6728

>  <SCORE.INTRA.VDW>
-1.74798

>  <SCORE.INTRA.VDW.0>
-1.10662

>  <SCORE.INTRA.norm>
-0.114121

>  <SCORE.RESTR>
0

>  <SCORE.RESTR.CAVITY>
0

>  <SCORE.RESTR.norm>
0

>  <SCORE.SYSTEM>
0

>  <SCORE.SYSTEM.CONST>
0

>  <SCORE.SYSTEM.DIHEDRAL>
0

>  <SCORE.SYSTEM.SOLV>
0

>  <SCORE.SYSTEM.norm>
0

>  <SCORE.heavy>
27

>  <SCORE.norm>
-0.584419

>  <RMSD>
11.880

$$$$
ligand
 OpenBabel11021811483D
libRbt.so/2013.1/901 2013/11/27
 27 29  0  0  0  0  0  0  0  0999 V2000
   55.8839   49.9839   24.2485 N   0  0  0  0  0  0  0  0  0  0  0  0
   54.6219   49.3543   23.8385 C   0  0  2  0  0  0  0  0  0  0  0  0
   54.8062   48.7672   22.4715 C   0  0  0  0  0  0  0  0  0  0  0  0
   54.8380   47.5553   22.3282 O   0  0  0  0  0  0  0  0  0  0  0  0
   53.4940   50.3963   23.7992 C   0  0  0  0  0  0  0  0  0  0  0  0
   53.2379   50.9013   25.2161 C   0  0  0  0  0  0  0  0  0  0  0  0
   52.0806   52.3060   25.2877 S   0  0  2  0  0  0  0  0  0  0  0  0
   51.8776   52.6406   27.0645 C   0  0  0  0  0  0  0  0  0  0  0  0
   50.3737   51.7623   24.9179 C   0  0  0  0  0  0  0  0  0  0  0  0
   49.7909   52.9424   24.1798 C   0  0  1  0  0  0  0  0  0  0  0  0
   50.6224   53.0887   23.0762 O   0  0  0  0  0  0  0  0  0  0  0  0
   48.4159   52.8803   23.5130 C   0  0  1  0  0  0  0  0  0  0  0  0
   47.3858   53.2877   24.3672 O   0  0  0  0  0  0  0  0  0  0  0  0
   48.6946   53.8894   22.2987 C   0  0  1  0  0  0  0  0  0  0  0  0
   49.1526   55.1897   22.6974 O   0  0  0  0  0  0  0  0  0  0  0  0
   49.7923   52.9492   21.8566 C   0  0  1  0  0  0  0  0  0  0  0  0
   54.9081   49.5051   21.5041 O   0  0  0  0  0  0  0  0  0  0  0  0
   50.8382   55.5206   17.6658 N   0  0  0  0  0  0  0  0  0  0  0  0
   49.7994   55.5852   18.5002 C   0  0  0  0  0  0  0  0  0  0  0  0
   49.7357   54.8398   19.6027 N   0  0  0  0  0  0  0  0  0  0  0  0
   50.6566   53.9000   19.8550 C   0  0  0  0  0  0  0  0  0  0  0  0
   51.7533   53.7530   18.9471 C   0  0  0  0  0  0  0  0  0  0  0  0
   51.8064   54.6278   17.8272 C   0  0  0  0  0  0  0  0  0  0  0  0
   52.8294   54.5648   16.9232 N   0  0  0  0  0  0  0  0  0  0  0  0
   52.5242   52.7523   19.4157 N   0  0  0  0  0  0  0  0  0  0  0  0
   51.9957   52.2738   20.5204 C   0  0  0  0  0  0  0  0  0  0  0  0
   50.8475   52.9464   20.8599 N   0  0  0  0  0  0  0  0  0  0  0  0
  2  1  1  6  0  0  0
  2  3  1  0  0  0  0
  2  5  1  0  0  0  0
  3  4  1  0  0  0  0
  3 17  1  0  0  0  0
  5  6  1  0  0  0  0
  7  6  1  1  0  0  0
  7  8  1  0  0  0  0
  7  9  1  0  0  0  0
 10  9  1  6  0  0  0
 10 11  1  0  0  0  0
 10 12  1  0  0  0  0
 11 16  1  0  0  0  0
 12 13  1  1  0  0  0
 12 14  1  0  0  0  0
 14 15  1  1  0  0  0
 14 16  1  0  0  0  0
 16 27  1  6  0  0  0
 18 19  2  0  0  0  0
 18 23  1  0  0  0  0
 19 20  1  0  0  0  0
 20 21  2  0  0  0  0
 21 22  1  0  0  0  0
 21 27  1  0  0  0  0
 22 23  2  0  0  0  0
 22 25  1  0  0  0  0
 23 24  1  0  0  0  0
 25 26  2  0  0  0  0
 26 27  1  0  0  0  0
M  END
>  <CHROM.1>
109.75821899,-65.39569565,172.15528397,176.76388415,-145.33198144,59.24776170
-126.61618979,51.61250151,52.47644368,22.19894093,-0.95968010,0.64774256
-1.22185770

>  <Name>
ligand

>  <RI>
0

>  <Rbt.Current_Directory>
/home/itssahil/PROJECTS/Mol_Feturizer/New_Systems/rnas/3IQN

>  <Rbt.Executable>
rbdock ($Id: //depot/dev/client3/rdock/2013.1/src/exe/rbdock.cxx#4 $)

>  <Rbt.Library>
libRbt.so (2013.1, Build901 2013/11/27)

>  <Rbt.Parameter_File>
/export/apps/rDock/src/rDock_2013.1_src/data/scripts/dock_solv.prm

>  <Rbt.Receptor>
prm/blind_docking_80.prm

>  <SCORE>
-17.5325

>  <SCORE.INTER>
-14.7009

>  <SCORE.INTER.CONST>
1

>  <SCORE.INTER.POLAR>
0

>  <SCORE.INTER.ROT>
7

>  <SCORE.INTER.SOLV>
9.23423

>  <SCORE.INTER.VDW>
-21.1453

>  <SCORE.INTER.norm>
-0.544476

>  <SCORE.INTRA>
-2.83166

>  <SCORE.INTRA.DIHEDRAL>
-3.1483

>  <SCORE.INTRA.DIHEDRAL.0>
10.0365

>  <SCORE.INTRA.POLAR>
0

>  <SCORE.INTRA.POLAR.0>
0

>  <SCORE.INTRA.REPUL>
0

>  <SCORE.INTRA.REPUL.0>
0

>  <SCORE.INTRA.SOLV>
-0.315259

>  <SCORE.INTRA.SOLV.lig_0>
-48.6728

>  <SCORE.INTRA.VDW>
-1.09987

>  <SCORE.INTRA.VDW.0>
-1.10662

>  <SCORE.INTRA.norm>
-0.104876

>  <SCORE.RESTR>
0

>  <SCORE.RESTR.CAVITY>
0

>  <SCORE.RESTR.norm>
0

>  <SCORE.SYSTEM>
0

>  <SCORE.SYSTEM.CONST>
0

>  <SCORE.SYSTEM.DIHEDRAL>
0

>  <SCORE.SYSTEM.SOLV>
0

>  <SCORE.SYSTEM.norm>
0

>  <SCORE.heavy>
27

>  <SCORE.norm>
-0.649352

>  <RMSD>
11.927

$$$$
ligand
 OpenBabel11021811483D
libRbt.so/2013.1/901 2013/11/27
 27 29  0  0  0  0  0  0  0  0999 V2000
   50.2792   51.7726   27.7889 N   0  0  0  0  0  0  0  0  0  0  0  0
   50.8074   52.0525   26.4473 C   0  0  2  0  0  0  0  0  0  0  0  0
   51.7467   50.9478   26.0668 C   0  0  0  0  0  0  0  0  0  0  0  0
   51.3776   50.0706   25.3022 O   0  0  0  0  0  0  0  0  0  0  0  0
   51.5622   53.3903   26.4396 C   0  0  0  0  0  0  0  0  0  0  0  0
   50.5537   54.5278   26.5710 C   0  0  0  0  0  0  0  0  0  0  0  0
   49.7553   54.9750   24.9962 S   0  0  2  0  0  0  0  0  0  0  0  0
   48.1397   55.6573   25.4807 C   0  0  0  0  0  0  0  0  0  0  0  0
   49.1664   53.4824   24.1181 C   0  0  0  0  0  0  0  0  0  0  0  0
   48.7303   54.0229   22.7785 C   0  0  1  0  0  0  0  0  0  0  0  0
   49.9166   54.1398   22.0644 O   0  0  0  0  0  0  0  0  0  0  0  0
   47.8788   53.1983   21.8121 C   0  0  1  0  0  0  0  0  0  0  0  0
   46.5070   53.3961   22.0019 O   0  0  0  0  0  0  0  0  0  0  0  0
   48.4396   53.7939   20.4332 C   0  0  1  0  0  0  0  0  0  0  0  0
   48.3384   55.2206   20.3153 O   0  0  0  0  0  0  0  0  0  0  0  0
   49.8046   53.2972   20.8506 C   0  0  1  0  0  0  0  0  0  0  0  0
   52.8836   50.9393   26.5119 O   0  0  0  0  0  0  0  0  0  0  0  0
   52.0274   54.5991   16.5340 N   0  0  0  0  0  0  0  0  0  0  0  0
   50.7387   54.4930   16.8617 C   0  0  0  0  0  0  0  0  0  0  0  0
   50.3508   54.1781   18.0969 N   0  0  0  0  0  0  0  0  0  0  0  0
   51.2436   53.8310   19.0335 C   0  0  0  0  0  0  0  0  0  0  0  0
   52.6354   53.8670   18.7015 C   0  0  0  0  0  0  0  0  0  0  0  0
   52.9915   54.2827   17.3891 C   0  0  0  0  0  0  0  0  0  0  0  0
   54.2986   54.3615   16.9979 N   0  0  0  0  0  0  0  0  0  0  0  0
   53.3144   53.4747   19.7971 N   0  0  0  0  0  0  0  0  0  0  0  0
   52.4653   53.1985   20.7622 C   0  0  0  0  0  0  0  0  0  0  0  0
   51.1679   53.4113   20.3654 N   0  0  0  0  0  0  0  0  0  0  0  0
  2  1  1  1  0  0  0
  2  3  1  0  0  0  0
  2  5  1  0  0  0  0
  3  4  1  0  0  0  0
  3 17  1  0  0  0  0
  5  6  1  0  0  0  0
  7  6  1  1  0  0  0
  7  8  1  0  0  0  0
  7  9  1  0  0  0  0
 10  9  1  1  0  0  0
 10 11  1  0  0  0  0
 10 12  1  0  0  0  0
 11 16  1  0  0  0  0
 12 13  1  1  0  0  0
 12 14  1  0  0  0  0
 14 15  1  1  0  0  0
 14 16  1  0  0  0  0
 16 27  1  6  0  0  0
 18 19  2  0  0  0  0
 18 23  1  0  0  0  0
 19 20  1  0  0  0  0
 20 21  2  0  0  0  0
 21 22  1  0  0  0  0
 21 27  1  0  0  0  0
 22 23  2  0  0  0  0
 22 25  1  0  0  0  0
 23 24  1  0  0  0  0
 25 26  2  0  0  0  0
 26 27  1  0  0  0  0
M  END
>  <CHROM.1>
101.81572477,-71.13844106,-81.63168502,152.75514799,-172.07776389,80.80022673
-126.74302187,50.54371537,53.56260933,22.26005557,-1.73124042,0.40382276
-1.33148607

>  <Name>
ligand

>  <RI>
0

>  <Rbt.Current_Directory>
/home/itssahil/PROJECTS/Mol_Feturizer/New_Systems/rnas/3IQN

>  <Rbt.Executable>
rbdock ($Id: //depot/dev/client3/rdock/2013.1/src/exe/rbdock.cxx#4 $)

>  <Rbt.Library>
libRbt.so (2013.1, Build901 2013/11/27)

>  <Rbt.Parameter_File>
/export/apps/rDock/src/rDock_2013.1_src/data/scripts/dock_solv.prm

>  <Rbt.Receptor>
prm/blind_docking_80.prm

>  <SCORE>
-12.5972

>  <SCORE.INTER>
-10.6434

>  <SCORE.INTER.CONST>
1

>  <SCORE.INTER.POLAR>
0

>  <SCORE.INTER.ROT>
7

>  <SCORE.INTER.SOLV>
11.3547

>  <SCORE.INTER.VDW>
-19.1472

>  <SCORE.INTER.norm>
-0.3942

>  <SCORE.INTRA>
-1.95382

>  <SCORE.INTRA.DIHEDRAL>
-1.90353

>  <SCORE.INTRA.DIHEDRAL.0>
10.0365

>  <SCORE.INTRA.POLAR>
0

>  <SCORE.INTRA.POLAR.0>
0

>  <SCORE.INTRA.REPUL>
0

>  <SCORE.INTRA.REPUL.0>
0

>  <SCORE.INTRA.SOLV>
0.228765

>  <SCORE.INTRA.SOLV.lig_0>
-48.6728

>  <SCORE.INTRA.VDW>
-1.11644

>  <SCORE.INTRA.VDW.0>
-1.10662

>  <SCORE.INTRA.norm>
-0.0723638

>  <SCORE.RESTR>
0

>  <SCORE.RESTR.CAVITY>
0

>  <SCORE.RESTR.norm>
0

>  <SCORE.SYSTEM>
0

>  <SCORE.SYSTEM.CONST>
0

>  <SCORE.SYSTEM.DIHEDRAL>
0

>  <SCORE.SYSTEM.SOLV>
0

>  <SCORE.SYSTEM.norm>
0

>  <SCORE.heavy>
27

>  <SCORE.norm>
-0.466563

>  <RMSD>
11.935

$$$$
ligand
 OpenBabel11021811483D
libRbt.so/2013.1/901 2013/11/27
 27 29  0  0  0  0  0  0  0  0999 V2000
   55.1172   47.4647   19.5463 N   0  0  0  0  0  0  0  0  0  0  0  0
   55.6688   47.4996   20.9071 C   0  0  2  0  0  0  0  0  0  0  0  0
   55.5641   46.1256   21.4974 C   0  0  0  0  0  0  0  0  0  0  0  0
   56.1447   45.8642   22.5389 O   0  0  0  0  0  0  0  0  0  0  0  0
   54.8810   48.4907   21.7767 C   0  0  0  0  0  0  0  0  0  0  0  0
   54.9667   49.8779   21.1468 C   0  0  0  0  0  0  0  0  0  0  0  0
   54.5127   51.2225   22.2884 S   0  0  2  0  0  0  0  0  0  0  0  0
   55.0093   50.6152   23.9301 C   0  0  0  0  0  0  0  0  0  0  0  0
   52.7033   51.2686   22.5528 C   0  0  0  0  0  0  0  0  0  0  0  0
   52.1858   51.8785   21.2732 C   0  0  1  0  0  0  0  0  0  0  0  0
   51.0354   52.5513   21.6665 O   0  0  0  0  0  0  0  0  0  0  0  0
   52.9448   52.9856   20.5403 C   0  0  1  0  0  0  0  0  0  0  0  0
   53.8384   52.4845   19.5878 O   0  0  0  0  0  0  0  0  0  0  0  0
   51.6888   53.7603   19.9134 C   0  0  1  0  0  0  0  0  0  0  0  0
   50.8230   52.9422   19.1130 O   0  0  0  0  0  0  0  0  0  0  0  0
   51.2051   53.9838   21.3277 C   0  0  1  0  0  0  0  0  0  0  0  0
   54.8846   45.2775   20.9408 O   0  0  0  0  0  0  0  0  0  0  0  0
   49.8213   55.1478   26.0180 N   0  0  0  0  0  0  0  0  0  0  0  0
   50.9502   54.6221   25.5398 C   0  0  0  0  0  0  0  0  0  0  0  0
   51.1416   54.4365   24.2343 N   0  0  0  0  0  0  0  0  0  0  0  0
   50.1555   54.6546   23.3540 C   0  0  0  0  0  0  0  0  0  0  0  0
   48.9044   55.1560   23.8356 C   0  0  0  0  0  0  0  0  0  0  0  0
   48.7847   55.4048   25.2306 C   0  0  0  0  0  0  0  0  0  0  0  0
   47.6301   55.9003   25.7683 N   0  0  0  0  0  0  0  0  0  0  0  0
   48.0914   55.2831   22.7688 N   0  0  0  0  0  0  0  0  0  0  0  0
   48.7295   54.9008   21.6846 C   0  0  0  0  0  0  0  0  0  0  0  0
   50.0161   54.5140   21.9696 N   0  0  0  0  0  0  0  0  0  0  0  0
  2  1  1  6  0  0  0
  2  3  1  0  0  0  0
  2  5  1  0  0  0  0
  3  4  1  0  0  0  0
  3 17  1  0  0  0  0
  5  6  1  0  0  0  0
  7  6  1  6  0  0  0
  7  8  1  0  0  0  0
  7  9  1  0  0  0  0
 10  9  1  1  0  0  0
 10 11  1  0  0  0  0
 10 12  1  0  0  0  0
 11 16  1  0  0  0  0
 12 13  1  6  0  0  0
 12 14  1  0  0  0  0
 14 15  1  6  0  0  0
 14 16  1  0  0  0  0
 16 27  1  6  0  0  0
 18 19  2  0  0  0  0
 18 23  1  0  0  0  0
 19 20  1  0  0  0  0
 20 21  2  0  0  0  0
 21 22  1  0  0  0  0
 21 27  1  0  0  0  0
 22 23  2  0  0  0  0
 22 25  1  0  0  0  0
 23 24  1  0  0  0  0
 25 26  2  0  0  0  0
 26 27  1  0  0  0  0
M  END
>  <CHROM.1>
168.66255897,-59.35108247,-163.04076707,31.05530765,-75.47152701,-149.85741824
78.58077316,52.31694544,51.87015032,22.20491557,0.18206086,0.91189070,-1.48473822

>  <Name>
ligand

>  <RI>
0

>  <Rbt.Current_Directory>
/home/itssahil/PROJECTS/Mol_Feturizer/New_Systems/rnas/3IQN

>  <Rbt.Executable>
rbdock ($Id: //depot/dev/client3/rdock/2013.1/src/exe/rbdock.cxx#4 $)

>  <Rbt.Library>
libRbt.so (2013.1, Build901 2013/11/27)

>  <Rbt.Parameter_File>
/export/apps/rDock/src/rDock_2013.1_src/data/scripts/dock_solv.prm

>  <Rbt.Receptor>
prm/blind_docking_80.prm

>  <SCORE>
-12.5872

>  <SCORE.INTER>
-12.355

>  <SCORE.INTER.CONST>
1

>  <SCORE.INTER.POLAR>
0

>  <SCORE.INTER.ROT>
7

>  <SCORE.INTER.SOLV>
14.9278

>  <SCORE.INTER.VDW>
-21.4793

>  <SCORE.INTER.norm>
-0.457594

>  <SCORE.INTRA>
-0.238769

>  <SCORE.INTRA.DIHEDRAL>
-1.9119

>  <SCORE.INTRA.DIHEDRAL.0>
10.0365

>  <SCORE.INTRA.POLAR>
0

>  <SCORE.INTRA.POLAR.0>
0

>  <SCORE.INTRA.REPUL>
0

>  <SCORE.INTRA.REPUL.0>
0

>  <SCORE.INTRA.SOLV>
-0.0233112

>  <SCORE.INTRA.SOLV.lig_0>
-48.6728

>  <SCORE.INTRA.VDW>
0.728837

>  <SCORE.INTRA.VDW.0>
-1.10662

>  <SCORE.INTRA.norm>
-0.00884328

>  <SCORE.RESTR>
0.00662372

>  <SCORE.RESTR.CAVITY>
0.00662372

>  <SCORE.RESTR.norm>
0.000245323

>  <SCORE.SYSTEM>
0

>  <SCORE.SYSTEM.CONST>
0

>  <SCORE.SYSTEM.DIHEDRAL>
0

>  <SCORE.SYSTEM.SOLV>
0

>  <SCORE.SYSTEM.norm>
0

>  <SCORE.heavy>
27

>  <SCORE.norm>
-0.466192

>  <RMSD>
11.935

$$$$
ligand
 OpenBabel11021811483D
libRbt.so/2013.1/901 2013/11/27
 27 29  0  0  0  0  0  0  0  0999 V2000
   46.6703   54.1899   26.4549 N   0  0  0  0  0  0  0  0  0  0  0  0
   48.0869   53.8234   26.5815 C   0  0  2  0  0  0  0  0  0  0  0  0
   48.9027   55.0809   26.6041 C   0  0  0  0  0  0  0  0  0  0  0  0
   48.5122   56.0712   26.0066 O   0  0  0  0  0  0  0  0  0  0  0  0
   48.5212   52.9539   25.3920 C   0  0  0  0  0  0  0  0  0  0  0  0
   49.9809   52.5513   25.5808 C   0  0  0  0  0  0  0  0  0  0  0  0
   50.7597   51.9133   24.0629 S   0  0  2  0  0  0  0  0  0  0  0  0
   52.3837   51.2987   24.6064 C   0  0  0  0  0  0  0  0  0  0  0  0
   51.3322   53.2864   22.9987 C   0  0  0  0  0  0  0  0  0  0  0  0
   50.0517   53.8083   22.3947 C   0  0  1  0  0  0  0  0  0  0  0  0
   50.4744   54.5087   21.2716 O   0  0  0  0  0  0  0  0  0  0  0  0
   49.0039   52.8737   21.7883 C   0  0  1  0  0  0  0  0  0  0  0  0
   48.0451   52.4643   22.7210 O   0  0  0  0  0  0  0  0  0  0  0  0
   48.4354   53.8564   20.6561 C   0  0  1  0  0  0  0  0  0  0  0  0
   47.9582   55.1178   21.1465 O   0  0  0  0  0  0  0  0  0  0  0  0
   49.8335   53.8976   20.0835 C   0  0  1  0  0  0  0  0  0  0  0  0
   49.9481   55.1134   27.2341 O   0  0  0  0  0  0  0  0  0  0  0  0
   54.0036   53.2471   17.3530 N   0  0  0  0  0  0  0  0  0  0  0  0
   53.4671   52.5100   18.3267 C   0  0  0  0  0  0  0  0  0  0  0  0
   52.3077   52.8352   18.8972 N   0  0  0  0  0  0  0  0  0  0  0  0
   51.6925   53.9882   18.6024 C   0  0  0  0  0  0  0  0  0  0  0  0
   52.2721   54.8408   17.6095 C   0  0  0  0  0  0  0  0  0  0  0  0
   53.4714   54.4046   16.9821 C   0  0  0  0  0  0  0  0  0  0  0  0
   54.0788   55.1512   16.0118 N   0  0  0  0  0  0  0  0  0  0  0  0
   51.4764   55.9228   17.5029 N   0  0  0  0  0  0  0  0  0  0  0  0
   50.4703   55.8101   18.3418 C   0  0  0  0  0  0  0  0  0  0  0  0
   50.5315   54.6311   19.0434 N   0  0  0  0  0  0  0  0  0  0  0  0
  2  1  1  6  0  0  0
  2  3  1  0  0  0  0
  2  5  1  0  0  0  0
  3  4  1  0  0  0  0
  3 17  1  0  0  0  0
  5  6  1  0  0  0  0
  7  6  1  1  0  0  0
  7  8  1  0  0  0  0
  7  9  1  0  0  0  0
 10  9  1  6  0  0  0
 10 11  1  0  0  0  0
 10 12  1  0  0  0  0
 11 16  1  0  0  0  0
 12 13  1  1  0  0  0
 12 14  1  0  0  0  0
 14 15  1  1  0  0  0
 14 16  1  0  0  0  0
 16 27  1  6  0  0  0
 18 19  2  0  0  0  0
 18 23  1  0  0  0  0
 19 20  1  0  0  0  0
 20 21  2  0  0  0  0
 21 22  1  0  0  0  0
 21 27  1  0  0  0  0
 22 23  2  0  0  0  0
 22 25  1  0  0  0  0
 23 24  1  0  0  0  0
 25 26  2  0  0  0  0
 26 27  1  0  0  0  0
M  END
>  <CHROM.1>
-30.07214404,-178.01173912,-164.31199834,-172.32303114,-75.28506748,-160.18202454
91.34050553,50.42929444,53.83751173,21.87139884,2.09905714,-0.63266383,1.96672522

>  <Name>
ligand

>  <RI>
0

>  <Rbt.Current_Directory>
/home/itssahil/PROJECTS/Mol_Feturizer/New_Systems/rnas/3IQN

>  <Rbt.Executable>
rbdock ($Id: //depot/dev/client3/rdock/2013.1/src/exe/rbdock.cxx#4 $)

>  <Rbt.Library>
libRbt.so (2013.1, Build901 2013/11/27)

>  <Rbt.Parameter_File>
/export/apps/rDock/src/rDock_2013.1_src/data/scripts/dock_solv.prm

>  <Rbt.Receptor>
prm/blind_docking_80.prm

>  <SCORE>
-9.93573

>  <SCORE.INTER>
-6.87284

>  <SCORE.INTER.CONST>
1

>  <SCORE.INTER.POLAR>
0

>  <SCORE.INTER.ROT>
7

>  <SCORE.INTER.SOLV>
9.01726

>  <SCORE.INTER.VDW>
-15.8543

>  <SCORE.INTER.norm>
-0.25455

>  <SCORE.INTRA>
-3.07627

>  <SCORE.INTRA.DIHEDRAL>
-3.9269

>  <SCORE.INTRA.DIHEDRAL.0>
10.0365

>  <SCORE.INTRA.POLAR>
0

>  <SCORE.INTRA.POLAR.0>
0

>  <SCORE.INTRA.REPUL>
0

>  <SCORE.INTRA.REPUL.0>
0

>  <SCORE.INTRA.SOLV>
-0.503719

>  <SCORE.INTRA.SOLV.lig_0>
-48.6728

>  <SCORE.INTRA.VDW>
-0.860956

>  <SCORE.INTRA.VDW.0>
-1.10662

>  <SCORE.INTRA.norm>
-0.113936

>  <SCORE.RESTR>
0.0133762

>  <SCORE.RESTR.CAVITY>
0.0133762

>  <SCORE.RESTR.norm>
0.000495415

>  <SCORE.SYSTEM>
0

>  <SCORE.SYSTEM.CONST>
0

>  <SCORE.SYSTEM.DIHEDRAL>
0

>  <SCORE.SYSTEM.SOLV>
0

>  <SCORE.SYSTEM.norm>
0

>  <SCORE.heavy>
27

>  <SCORE.norm>
-0.36799

>  <RMSD>
11.999

$$$$
ligand
 OpenBabel11021811483D
libRbt.so/2013.1/901 2013/11/27
 27 29  0  0  0  0  0  0  0  0999 V2000
   55.1934   54.6175   13.3297 N   0  0  0  0  0  0  0  0  0  0  0  0
   54.3537   55.1227   14.4238 C   0  0  2  0  0  0  0  0  0  0  0  0
   55.0738   56.2558   15.0908 C   0  0  0  0  0  0  0  0  0  0  0  0
   56.2589   56.1481   15.3635 O   0  0  0  0  0  0  0  0  0  0  0  0
   54.0889   54.0109   15.4500 C   0  0  0  0  0  0  0  0  0  0  0  0
   53.1050   54.5273   16.4957 C   0  0  0  0  0  0  0  0  0  0  0  0
   52.8305   53.3644   17.8704 S   0  0  2  0  0  0  0  0  0  0  0  0
   51.9897   51.9436   17.1059 C   0  0  0  0  0  0  0  0  0  0  0  0
   51.4673   53.9389   18.9463 C   0  0  0  0  0  0  0  0  0  0  0  0
   51.9562   53.5946   20.3317 C   0  0  1  0  0  0  0  0  0  0  0  0
   51.0972   54.2932   21.1712 O   0  0  0  0  0  0  0  0  0  0  0  0
   51.8451   52.1790   20.8999 C   0  0  1  0  0  0  0  0  0  0  0  0
   52.9774   51.4024   20.6326 O   0  0  0  0  0  0  0  0  0  0  0  0
   51.6632   52.5574   22.4473 C   0  0  1  0  0  0  0  0  0  0  0  0
   52.7074   53.3814   22.9860 O   0  0  0  0  0  0  0  0  0  0  0  0
   50.4160   53.3118   22.0478 C   0  0  1  0  0  0  0  0  0  0  0  0
   54.4743   57.2887   15.3446 O   0  0  0  0  0  0  0  0  0  0  0  0
   49.1793   54.5132   26.7697 N   0  0  0  0  0  0  0  0  0  0  0  0
   50.0643   53.6387   26.2885 C   0  0  0  0  0  0  0  0  0  0  0  0
   50.2816   53.5056   24.9807 N   0  0  0  0  0  0  0  0  0  0  0  0
   49.5278   54.1579   24.0856 C   0  0  0  0  0  0  0  0  0  0  0  0
   48.5205   55.0564   24.5618 C   0  0  0  0  0  0  0  0  0  0  0  0
   48.3855   55.2127   25.9688 C   0  0  0  0  0  0  0  0  0  0  0  0
   47.4605   56.0641   26.5045 N   0  0  0  0  0  0  0  0  0  0  0  0
   47.9080   55.5746   23.4794 N   0  0  0  0  0  0  0  0  0  0  0  0
   48.4452   55.0711   22.3901 C   0  0  0  0  0  0  0  0  0  0  0  0
   49.4633   54.1994   22.6892 N   0  0  0  0  0  0  0  0  0  0  0  0
  2  1  1  6  0  0  0
  2  3  1  0  0  0  0
  2  5  1  0  0  0  0
  3  4  1  0  0  0  0
  3 17  1  0  0  0  0
  5  6  1  0  0  0  0
  7  6  1  6  0  0  0
  7  8  1  0  0  0  0
  7  9  1  0  0  0  0
 10  9  1  6  0  0  0
 10 11  1  0  0  0  0
 10 12  1  0  0  0  0
 11 16  1  0  0  0  0
 12 13  1  1  0  0  0
 12 14  1  0  0  0  0
 14 15  1  6  0  0  0
 14 16  1  0  0  0  0
 16 27  1  1  0  0  0
 18 19  2  0  0  0  0
 18 23  1  0  0  0  0
 19 20  1  0  0  0  0
 20 21  2  0  0  0  0
 21 22  1  0  0  0  0
 21 27  1  0  0  0  0
 22 23  2  0  0  0  0
 22 25  1  0  0  0  0
 23 24  1  0  0  0  0
 25 26  2  0  0  0  0
 26 27  1  0  0  0  0
M  END
>  <CHROM.1>
-45.41066760,-174.44748044,-174.18802300,-66.48129779,-141.17362451,166.55122973
-125.47663027,51.66156959,54.20736788,20.40954476,0.49019663,0.99029017,-0.52477928

>  <Name>
ligand

>  <RI>
0

>  <Rbt.Current_Directory>
/home/itssahil/PROJECTS/Mol_Feturizer/New_Systems/rnas/3IQN

>  <Rbt.Executable>
rbdock ($Id: //depot/dev/client3/rdock/2013.1/src/exe/rbdock.cxx#4 $)

>  <Rbt.Library>
libRbt.so (2013.1, Build901 2013/11/27)

>  <Rbt.Parameter_File>
/export/apps/rDock/src/rDock_2013.1_src/data/scripts/dock_solv.prm

>  <Rbt.Receptor>
prm/blind_docking_100.prm

>  <SCORE>
-9.61847

>  <SCORE.INTER>
-6.69568

>  <SCORE.INTER.CONST>
1

>  <SCORE.INTER.POLAR>
0

>  <SCORE.INTER.ROT>
7

>  <SCORE.INTER.SOLV>
14.8275

>  <SCORE.INTER.VDW>
-17.6729

>  <SCORE.INTER.norm>
-0.247988

>  <SCORE.INTRA>
-3.03828

>  <SCORE.INTRA.DIHEDRAL>
-2.30592

>  <SCORE.INTRA.DIHEDRAL.0>
10.0365

>  <SCORE.INTRA.POLAR>
0

>  <SCORE.INTRA.POLAR.0>
0

>  <SCORE.INTRA.REPUL>
0

>  <SCORE.INTRA.REPUL.0>
0

>  <SCORE.INTRA.SOLV>
-0.859539

>  <SCORE.INTRA.SOLV.lig_0>
-48.6728

>  <SCORE.INTRA.VDW>
-1.45555

>  <SCORE.INTRA.VDW.0>
-1.10662

>  <SCORE.INTRA.norm>
-0.112529

>  <SCORE.RESTR>
0.115492

>  <SCORE.RESTR.CAVITY>
0.115492

>  <SCORE.RESTR.norm>
0.00427749

>  <SCORE.SYSTEM>
0

>  <SCORE.SYSTEM.CONST>
0

>  <SCORE.SYSTEM.DIHEDRAL>
0

>  <SCORE.SYSTEM.SOLV>
0

>  <SCORE.SYSTEM.norm>
0

>  <SCORE.heavy>
27

>  <SCORE.norm>
-0.35624

>  <RMSD>
12.001

$$$$
ligand
 OpenBabel11021811483D
libRbt.so/2013.1/901 2013/11/27
 27 29  0  0  0  0  0  0  0  0999 V2000
   53.4077   51.8794   24.4034 N   0  0  0  0  0  0  0  0  0  0  0  0
   52.4455   52.5391   25.2958 C   0  0  2  0  0  0  0  0  0  0  0  0
   51.6890   51.4822   26.0430 C   0  0  0  0  0  0  0  0  0  0  0  0
   51.3703   51.6689   27.2065 O   0  0  0  0  0  0  0  0  0  0  0  0
   51.4615   53.3925   24.4817 C   0  0  0  0  0  0  0  0  0  0  0  0
   50.6016   54.2079   25.4430 C   0  0  0  0  0  0  0  0  0  0  0  0
   49.2651   55.1296   24.6174 S   0  0  2  0  0  0  0  0  0  0  0  0
   48.2348   55.7580   25.9790 C   0  0  0  0  0  0  0  0  0  0  0  0
   48.0524   53.9845   23.8665 C   0  0  0  0  0  0  0  0  0  0  0  0
   48.0217   54.4177   22.4214 C   0  0  1  0  0  0  0  0  0  0  0  0
   49.3052   54.1444   21.9645 O   0  0  0  0  0  0  0  0  0  0  0  0
   47.1712   53.6923   21.3776 C   0  0  1  0  0  0  0  0  0  0  0  0
   45.8888   54.2378   21.2564 O   0  0  0  0  0  0  0  0  0  0  0  0
   48.1071   53.9341   20.0984 C   0  0  1  0  0  0  0  0  0  0  0  0
   48.4075   55.3118   19.8316 O   0  0  0  0  0  0  0  0  0  0  0  0
   49.1954   53.1894   20.8368 C   0  0  1  0  0  0  0  0  0  0  0  0
   51.3812   50.4443   25.4784 O   0  0  0  0  0  0  0  0  0  0  0  0
   52.4450   53.3993   17.0073 N   0  0  0  0  0  0  0  0  0  0  0  0
   51.1374   53.6566   17.0652 C   0  0  0  0  0  0  0  0  0  0  0  0
   50.4576   53.5898   18.2092 N   0  0  0  0  0  0  0  0  0  0  0  0
   51.0354   53.1382   19.3304 C   0  0  0  0  0  0  0  0  0  0  0  0
   52.4226   52.7873   19.2939 C   0  0  0  0  0  0  0  0  0  0  0  0
   53.1136   52.9502   18.0617 C   0  0  0  0  0  0  0  0  0  0  0  0
   54.4431   52.6550   17.9473 N   0  0  0  0  0  0  0  0  0  0  0  0
   52.7568   52.3636   20.5284 N   0  0  0  0  0  0  0  0  0  0  0  0
   51.7012   52.4191   21.3104 C   0  0  0  0  0  0  0  0  0  0  0  0
   50.6049   52.9035   20.6401 N   0  0  0  0  0  0  0  0  0  0  0  0
  2  1  1  6  0  0  0
  2  3  1  0  0  0  0
  2  5  1  0  0  0  0
  3  4  1  0  0  0  0
  3 17  1  0  0  0  0
  5  6  1  0  0  0  0
  7  6  1  1  0  0  0
  7  8  1  0  0  0  0
  7  9  1  0  0  0  0
 10  9  1  1  0  0  0
 10 11  1  0  0  0  0
 10 12  1  0  0  0  0
 11 16  1  0  0  0  0
 12 13  1  6  0  0  0
 12 14  1  0  0  0  0
 14 15  1  1  0  0  0
 14 16  1  0  0  0  0
 16 27  1  6  0  0  0
 18 19  2  0  0  0  0
 18 23  1  0  0  0  0
 19 20  1  0  0  0  0
 20 21  2  0  0  0  0
 21 22  1  0  0  0  0
 21 27  1  0  0  0  0
 22 23  2  0  0  0  0
 22 25  1  0  0  0  0
 23 24  1  0  0  0  0
 25 26  2  0  0  0  0
 26 27  1  0  0  0  0
M  END
>  <CHROM.1>
143.49576166,-172.40406459,-173.64337982,170.28003668,-124.34955216,64.39473439
-124.90867493,50.40556616,53.40796235,22.07313729,-1.77267717,0.45617943
-1.47842763

>  <Name>
ligand

>  <RI>
0

>  <Rbt.Current_Directory>
/home/itssahil/PROJECTS/Mol_Feturizer/New_Systems/rnas/3IQN

>  <Rbt.Executable>
rbdock ($Id: //depot/dev/client3/rdock/2013.1/src/exe/rbdock.cxx#4 $)

>  <Rbt.Library>
libRbt.so (2013.1, Build901 2013/11/27)

>  <Rbt.Parameter_File>
/export/apps/rDock/src/rDock_2013.1_src/data/scripts/dock_solv.prm

>  <Rbt.Receptor>
prm/blind_docking_80.prm

>  <SCORE>
-15.6972

>  <SCORE.INTER>
-12.3225

>  <SCORE.INTER.CONST>
1

>  <SCORE.INTER.POLAR>
0

>  <SCORE.INTER.ROT>
7

>  <SCORE.INTER.SOLV>
12.7236

>  <SCORE.INTER.VDW>
-20.7229

>  <SCORE.INTER.norm>
-0.45639

>  <SCORE.INTRA>
-3.3747

>  <SCORE.INTRA.DIHEDRAL>
-1.96786

>  <SCORE.INTRA.DIHEDRAL.0>
10.0365

>  <SCORE.INTRA.POLAR>
0

>  <SCORE.INTRA.POLAR.0>
0

>  <SCORE.INTRA.REPUL>
0

>  <SCORE.INTRA.REPUL.0>
0

>  <SCORE.INTRA.SOLV>
-0.65579

>  <SCORE.INTRA.SOLV.lig_0>
-48.6728

>  <SCORE.INTRA.VDW>
-2.06288

>  <SCORE.INTRA.VDW.0>
-1.10662

>  <SCORE.INTRA.norm>
-0.124989

>  <SCORE.RESTR>
0

>  <SCORE.RESTR.CAVITY>
0

>  <SCORE.RESTR.norm>
0

>  <SCORE.SYSTEM>
0

>  <SCORE.SYSTEM.CONST>
0

>  <SCORE.SYSTEM.DIHEDRAL>
0

>  <SCORE.SYSTEM.SOLV>
0

>  <SCORE.SYSTEM.norm>
0

>  <SCORE.heavy>
27

>  <SCORE.norm>
-0.581379

>  <RMSD>
12.063

$$$$
ligand
 OpenBabel11021811483D
libRbt.so/2013.1/901 2013/11/27
 27 29  0  0  0  0  0  0  0  0999 V2000
   44.4224   56.8079   17.0820 N   0  0  0  0  0  0  0  0  0  0  0  0
   43.3129   55.9127   17.4356 C   0  0  2  0  0  0  0  0  0  0  0  0
   42.1406   56.2408   16.5607 C   0  0  0  0  0  0  0  0  0  0  0  0
   42.0982   57.3111   15.9752 O   0  0  0  0  0  0  0  0  0  0  0  0
   42.9211   56.1049   18.9083 C   0  0  0  0  0  0  0  0  0  0  0  0
   44.0501   55.5835   19.7924 C   0  0  0  0  0  0  0  0  0  0  0  0
   44.2285   53.7714   19.7482 S   0  0  2  0  0  0  0  0  0  0  0  0
   42.5980   53.1394   20.2507 C   0  0  0  0  0  0  0  0  0  0  0  0
   45.2014   53.1781   21.1790 C   0  0  0  0  0  0  0  0  0  0  0  0
   46.3354   54.1706   21.2571 C   0  0  1  0  0  0  0  0  0  0  0  0
   47.1076   53.7112   22.3170 O   0  0  0  0  0  0  0  0  0  0  0  0
   47.3847   54.2882   20.1507 C   0  0  1  0  0  0  0  0  0  0  0  0
   47.0311   55.2233   19.1722 O   0  0  0  0  0  0  0  0  0  0  0  0
   48.6342   54.7287   21.0536 C   0  0  1  0  0  0  0  0  0  0  0  0
   48.4106   55.9023   21.8487 O   0  0  0  0  0  0  0  0  0  0  0  0
   48.4676   53.4264   21.8022 C   0  0  1  0  0  0  0  0  0  0  0  0
   41.2396   55.4280   16.4255 O   0  0  0  0  0  0  0  0  0  0  0  0
   52.9310   51.5270   23.1210 N   0  0  0  0  0  0  0  0  0  0  0  0
   52.5044   52.0515   21.9711 C   0  0  0  0  0  0  0  0  0  0  0  0
   51.2778   52.5552   21.8402 N   0  0  0  0  0  0  0  0  0  0  0  0
   50.3763   52.4420   22.8248 C   0  0  0  0  0  0  0  0  0  0  0  0
   50.7752   51.8242   24.0527 C   0  0  0  0  0  0  0  0  0  0  0  0
   52.1195   51.3727   24.1594 C   0  0  0  0  0  0  0  0  0  0  0  0
   52.5849   50.7884   25.3038 N   0  0  0  0  0  0  0  0  0  0  0  0
   49.7010   51.8288   24.8659 N   0  0  0  0  0  0  0  0  0  0  0  0
   48.6850   52.3867   24.2452 C   0  0  0  0  0  0  0  0  0  0  0  0
   49.0348   52.8035   22.9843 N   0  0  0  0  0  0  0  0  0  0  0  0
  2  1  1  6  0  0  0
  2  3  1  0  0  0  0
  2  5  1  0  0  0  0
  3  4  1  0  0  0  0
  3 17  1  0  0  0  0
  5  6  1  0  0  0  0
  7  6  1  1  0  0  0
  7  8  1  0  0  0  0
  7  9  1  0  0  0  0
 10  9  1  6  0  0  0
 10 11  1  0  0  0  0
 10 12  1  0  0  0  0
 11 16  1  0  0  0  0
 12 13  1  6  0  0  0
 12 14  1  0  0  0  0
 14 15  1  1  0  0  0
 14 16  1  0  0  0  0
 16 27  1  1  0  0  0
 18 19  2  0  0  0  0
 18 23  1  0  0  0  0
 19 20  1  0  0  0  0
 20 21  2  0  0  0  0
 21 22  1  0  0  0  0
 21 27  1  0  0  0  0
 22 23  2  0  0  0  0
 22 25  1  0  0  0  0
 23 24  1  0  0  0  0
 25 26  2  0  0  0  0
 26 27  1  0  0  0  0
M  END
>  <CHROM.1>
-18.00975241,-68.60334364,-69.64379310,-56.93679512,-43.27233424,-178.31980665
-178.19862569,46.97666537,53.93359523,20.83696535,-2.44623253,0.08133260
2.23520485

>  <Name>
ligand

>  <RI>
0

>  <Rbt.Current_Directory>
/home/itssahil/PROJECTS/Mol_Feturizer/New_Systems/rnas/3IQN

>  <Rbt.Executable>
rbdock ($Id: //depot/dev/client3/rdock/2013.1/src/exe/rbdock.cxx#4 $)

>  <Rbt.Library>
libRbt.so (2013.1, Build901 2013/11/27)

>  <Rbt.Parameter_File>
/export/apps/rDock/src/rDock_2013.1_src/data/scripts/dock_solv.prm

>  <Rbt.Receptor>
prm/blind_docking_80.prm

>  <SCORE>
-13.1476

>  <SCORE.INTER>
-10.2288

>  <SCORE.INTER.CONST>
1

>  <SCORE.INTER.POLAR>
0

>  <SCORE.INTER.ROT>
7

>  <SCORE.INTER.SOLV>
19.3434

>  <SCORE.INTER.VDW>
-21.5337

>  <SCORE.INTER.norm>
-0.378845

>  <SCORE.INTRA>
-2.91874

>  <SCORE.INTRA.DIHEDRAL>
-4.63764

>  <SCORE.INTRA.DIHEDRAL.0>
10.0365

>  <SCORE.INTRA.POLAR>
0

>  <SCORE.INTRA.POLAR.0>
0

>  <SCORE.INTRA.REPUL>
0

>  <SCORE.INTRA.REPUL.0>
0

>  <SCORE.INTRA.SOLV>
0.833432

>  <SCORE.INTRA.SOLV.lig_0>
-48.6728

>  <SCORE.INTRA.VDW>
-1.01664

>  <SCORE.INTRA.VDW.0>
-1.10662

>  <SCORE.INTRA.norm>
-0.108102

>  <SCORE.RESTR>
0

>  <SCORE.RESTR.CAVITY>
0

>  <SCORE.RESTR.norm>
0

>  <SCORE.SYSTEM>
0

>  <SCORE.SYSTEM.CONST>
0

>  <SCORE.SYSTEM.DIHEDRAL>
0

>  <SCORE.SYSTEM.SOLV>
0

>  <SCORE.SYSTEM.norm>
0

>  <SCORE.heavy>
27

>  <SCORE.norm>
-0.486947

>  <RMSD>
12.078

$$$$
ligand
 OpenBabel11021811483D
libRbt.so/2013.1/901 2013/11/27
 27 29  0  0  0  0  0  0  0  0999 V2000
   55.9252   50.4507   23.9404 N   0  0  0  0  0  0  0  0  0  0  0  0
   55.0073   49.4615   24.5203 C   0  0  2  0  0  0  0  0  0  0  0  0
   55.1678   48.1706   23.7752 C   0  0  0  0  0  0  0  0  0  0  0  0
   55.5815   47.1795   24.3556 O   0  0  0  0  0  0  0  0  0  0  0  0
   53.5547   49.9452   24.3971 C   0  0  0  0  0  0  0  0  0  0  0  0
   53.3465   51.1292   25.3369 C   0  0  0  0  0  0  0  0  0  0  0  0
   51.7358   51.9519   25.1217 S   0  0  2  0  0  0  0  0  0  0  0  0
   50.5098   50.6413   25.4210 C   0  0  0  0  0  0  0  0  0  0  0  0
   51.3881   52.2485   23.3506 C   0  0  0  0  0  0  0  0  0  0  0  0
   50.2435   53.2313   23.3863 C   0  0  1  0  0  0  0  0  0  0  0  0
   50.3645   53.9270   22.1897 O   0  0  0  0  0  0  0  0  0  0  0  0
   48.7848   52.7763   23.3223 C   0  0  1  0  0  0  0  0  0  0  0  0
   48.2364   52.5503   24.5893 O   0  0  0  0  0  0  0  0  0  0  0  0
   48.1718   54.0486   22.5631 C   0  0  1  0  0  0  0  0  0  0  0  0
   48.4208   55.3054   23.2096 O   0  0  0  0  0  0  0  0  0  0  0  0
   49.1118   53.7367   21.4214 C   0  0  1  0  0  0  0  0  0  0  0  0
   54.8687   48.1125   22.5928 O   0  0  0  0  0  0  0  0  0  0  0  0
   52.7681   53.0905   18.0328 N   0  0  0  0  0  0  0  0  0  0  0  0
   52.5162   52.4650   19.1838 C   0  0  0  0  0  0  0  0  0  0  0  0
   51.4469   52.7568   19.9233 N   0  0  0  0  0  0  0  0  0  0  0  0
   50.6448   53.7811   19.6033 C   0  0  0  0  0  0  0  0  0  0  0  0
   50.9204   54.5214   18.4097 C   0  0  0  0  0  0  0  0  0  0  0  0
   52.0327   54.1157   17.6220 C   0  0  0  0  0  0  0  0  0  0  0  0
   52.3531   54.7582   16.4592 N   0  0  0  0  0  0  0  0  0  0  0  0
   49.9856   55.4873   18.3178 N   0  0  0  0  0  0  0  0  0  0  0  0
   49.1708   55.4066   19.3466 C   0  0  0  0  0  0  0  0  0  0  0  0
   49.5095   54.3646   20.1746 N   0  0  0  0  0  0  0  0  0  0  0  0
  2  1  1  6  0  0  0
  2  3  1  0  0  0  0
  2  5  1  0  0  0  0
  3  4  1  0  0  0  0
  3 17  1  0  0  0  0
  5  6  1  0  0  0  0
  7  6  1  6  0  0  0
  7  8  1  0  0  0  0
  7  9  1  0  0  0  0
 10  9  1  6  0  0  0
 10 11  1  0  0  0  0
 10 12  1  0  0  0  0
 11 16  1  0  0  0  0
 12 13  1  1  0  0  0
 12 14  1  0  0  0  0
 14 15  1  1  0  0  0
 14 16  1  0  0  0  0
 16 27  1  6  0  0  0
 18 19  2  0  0  0  0
 18 23  1  0  0  0  0
 19 20  1  0  0  0  0
 20 21  2  0  0  0  0
 21 22  1  0  0  0  0
 21 27  1  0  0  0  0
 22 23  2  0  0  0  0
 22 25  1  0  0  0  0
 23 24  1  0  0  0  0
 25 26  2  0  0  0  0
 26 27  1  0  0  0  0
M  END
>  <CHROM.1>
116.33796360,-69.77886610,171.84319506,58.36396540,-165.54667409,153.22598640
57.85925249,51.56202922,52.35455932,22.12463935,-0.93104028,0.60789077,-1.16364379

>  <Name>
ligand

>  <RI>
0

>  <Rbt.Current_Directory>
/home/itssahil/PROJECTS/Mol_Feturizer/New_Systems/rnas/3IQN

>  <Rbt.Executable>
rbdock ($Id: //depot/dev/client3/rdock/2013.1/src/exe/rbdock.cxx#4 $)

>  <Rbt.Library>
libRbt.so (2013.1, Build901 2013/11/27)

>  <Rbt.Parameter_File>
/export/apps/rDock/src/rDock_2013.1_src/data/scripts/dock_solv.prm

>  <Rbt.Receptor>
prm/blind_docking_80.prm

>  <SCORE>
-18.7403

>  <SCORE.INTER>
-16.6235

>  <SCORE.INTER.CONST>
1

>  <SCORE.INTER.POLAR>
0

>  <SCORE.INTER.ROT>
7

>  <SCORE.INTER.SOLV>
10.6748

>  <SCORE.INTER.VDW>
-22.9073

>  <SCORE.INTER.norm>
-0.615686

>  <SCORE.INTRA>
-2.11674

>  <SCORE.INTRA.DIHEDRAL>
-3.07877

>  <SCORE.INTRA.DIHEDRAL.0>
10.0365

>  <SCORE.INTRA.POLAR>
0

>  <SCORE.INTRA.POLAR.0>
0

>  <SCORE.INTRA.REPUL>
0

>  <SCORE.INTRA.REPUL.0>
0

>  <SCORE.INTRA.SOLV>
-0.253932

>  <SCORE.INTRA.SOLV.lig_0>
-48.6728

>  <SCORE.INTRA.VDW>
-0.45039

>  <SCORE.INTRA.VDW.0>
-1.10662

>  <SCORE.INTRA.norm>
-0.0783978

>  <SCORE.RESTR>
0

>  <SCORE.RESTR.CAVITY>
0

>  <SCORE.RESTR.norm>
0

>  <SCORE.SYSTEM>
0

>  <SCORE.SYSTEM.CONST>
0

>  <SCORE.SYSTEM.DIHEDRAL>
0

>  <SCORE.SYSTEM.SOLV>
0

>  <SCORE.SYSTEM.norm>
0

>  <SCORE.heavy>
27

>  <SCORE.norm>
-0.694084

>  <RMSD>
12.206

$$$$
ligand
 OpenBabel11021811483D
libRbt.so/2013.1/901 2013/11/27
 27 29  0  0  0  0  0  0  0  0999 V2000
   54.0005   55.7491   14.8395 N   0  0  0  0  0  0  0  0  0  0  0  0
   52.9004   56.6342   15.2440 C   0  0  2  0  0  0  0  0  0  0  0  0
   53.3350   58.0547   15.0422 C   0  0  0  0  0  0  0  0  0  0  0  0
   54.3047   58.4865   15.6451 O   0  0  0  0  0  0  0  0  0  0  0  0
   52.5530   56.4114   16.7235 C   0  0  0  0  0  0  0  0  0  0  0  0
   51.7843   55.1003   16.8589 C   0  0  0  0  0  0  0  0  0  0  0  0
   51.4469   54.6321   18.5865 S   0  0  2  0  0  0  0  0  0  0  0  0
   52.9618   53.7868   19.1349 C   0  0  0  0  0  0  0  0  0  0  0  0
   50.3000   53.2092   18.6629 C   0  0  0  0  0  0  0  0  0  0  0  0
   49.2694   53.6540   19.6715 C   0  0  1  0  0  0  0  0  0  0  0  0
   49.7977   53.2451   20.8898 O   0  0  0  0  0  0  0  0  0  0  0  0
   48.9923   55.1328   19.9461 C   0  0  1  0  0  0  0  0  0  0  0  0
   47.9802   55.6501   19.1307 O   0  0  0  0  0  0  0  0  0  0  0  0
   48.5884   55.0158   21.4933 C   0  0  1  0  0  0  0  0  0  0  0  0
   47.5128   54.1043   21.7612 O   0  0  0  0  0  0  0  0  0  0  0  0
   49.9661   54.4460   21.7414 C   0  0  1  0  0  0  0  0  0  0  0  0
   52.7253   58.7696   14.2626 O   0  0  0  0  0  0  0  0  0  0  0  0
   48.8379   51.3155   25.5091 N   0  0  0  0  0  0  0  0  0  0  0  0
   48.0783   51.8432   24.5478 C   0  0  0  0  0  0  0  0  0  0  0  0
   48.5896   52.6236   23.5965 N   0  0  0  0  0  0  0  0  0  0  0  0
   49.8706   53.0138   23.6380 C   0  0  0  0  0  0  0  0  0  0  0  0
   50.7036   52.5226   24.6932 C   0  0  0  0  0  0  0  0  0  0  0  0
   50.1197   51.6335   25.6370 C   0  0  0  0  0  0  0  0  0  0  0  0
   50.8509   51.1057   26.6640 N   0  0  0  0  0  0  0  0  0  0  0  0
   51.9266   53.0589   24.5149 N   0  0  0  0  0  0  0  0  0  0  0  0
   51.9135   53.8344   23.4532 C   0  0  0  0  0  0  0  0  0  0  0  0
   50.6786   53.8417   22.8523 N   0  0  0  0  0  0  0  0  0  0  0  0
  2  1  1  1  0  0  0
  2  3  1  0  0  0  0
  2  5  1  0  0  0  0
  3  4  1  0  0  0  0
  3 17  1  0  0  0  0
  5  6  1  0  0  0  0
  7  6  1  6  0  0  0
  7  8  1  0  0  0  0
  7  9  1  0  0  0  0
 10  9  1  6  0  0  0
 10 11  1  0  0  0  0
 10 12  1  0  0  0  0
 11 16  1  0  0  0  0
 12 13  1  6  0  0  0
 12 14  1  0  0  0  0
 14 15  1  6  0  0  0
 14 16  1  0  0  0  0
 16 27  1  1  0  0  0
 18 19  2  0  0  0  0
 18 23  1  0  0  0  0
 19 20  1  0  0  0  0
 20 21  2  0  0  0  0
 21 22  1  0  0  0  0
 21 27  1  0  0  0  0
 22 23  2  0  0  0  0
 22 25  1  0  0  0  0
 23 24  1  0  0  0  0
 25 26  2  0  0  0  0
 26 27  1  0  0  0  0
M  END
>  <CHROM.1>
-60.56937169,-75.07233425,174.46792640,-83.95395442,-131.57018897,-88.35373233
-71.72480953,50.78414348,54.40308140,20.33624546,-1.25783579,-0.00166768
2.05220773

>  <Name>
ligand

>  <RI>
0

>  <Rbt.Current_Directory>
/home/itssahil/PROJECTS/Mol_Feturizer/New_Systems/rnas/3IQN

>  <Rbt.Executable>
rbdock ($Id: //depot/dev/client3/rdock/2013.1/src/exe/rbdock.cxx#4 $)

>  <Rbt.Library>
libRbt.so (2013.1, Build901 2013/11/27)

>  <Rbt.Parameter_File>
/export/apps/rDock/src/rDock_2013.1_src/data/scripts/dock_solv.prm

>  <Rbt.Receptor>
prm/blind_docking_100.prm

>  <SCORE>
-8.74832

>  <SCORE.INTER>
-9.05299

>  <SCORE.INTER.CONST>
1

>  <SCORE.INTER.POLAR>
0

>  <SCORE.INTER.ROT>
7

>  <SCORE.INTER.SOLV>
15.4992

>  <SCORE.INTER.VDW>
-19.4684

>  <SCORE.INTER.norm>
-0.335296

>  <SCORE.INTRA>
0.304664

>  <SCORE.INTRA.DIHEDRAL>
1.55428

>  <SCORE.INTRA.DIHEDRAL.0>
10.0365

>  <SCORE.INTRA.POLAR>
0

>  <SCORE.INTRA.POLAR.0>
0

>  <SCORE.INTRA.REPUL>
0

>  <SCORE.INTRA.REPUL.0>
0

>  <SCORE.INTRA.SOLV>
0.0196463

>  <SCORE.INTRA.SOLV.lig_0>
-48.6728

>  <SCORE.INTRA.VDW>
-0.482297

>  <SCORE.INTRA.VDW.0>
-1.10662

>  <SCORE.INTRA.norm>
0.0112839

>  <SCORE.RESTR>
0

>  <SCORE.RESTR.CAVITY>
0

>  <SCORE.RESTR.norm>
0

>  <SCORE.SYSTEM>
0

>  <SCORE.SYSTEM.CONST>
0

>  <SCORE.SYSTEM.DIHEDRAL>
0

>  <SCORE.SYSTEM.SOLV>
0

>  <SCORE.SYSTEM.norm>
0

>  <SCORE.heavy>
27

>  <SCORE.norm>
-0.324012

>  <RMSD>
12.225

$$$$
ligand
 OpenBabel11021811483D
libRbt.so/2013.1/901 2013/11/27
 27 29  0  0  0  0  0  0  0  0999 V2000
   51.7175   51.7867   24.5037 N   0  0  0  0  0  0  0  0  0  0  0  0
   52.6493   51.2773   23.4890 C   0  0  2  0  0  0  0  0  0  0  0  0
   53.5595   50.2788   24.1386 C   0  0  0  0  0  0  0  0  0  0  0  0
   54.0815   49.4031   23.4671 O   0  0  0  0  0  0  0  0  0  0  0  0
   53.4849   52.4273   22.9069 C   0  0  0  0  0  0  0  0  0  0  0  0
   52.5660   53.3567   22.1195 C   0  0  0  0  0  0  0  0  0  0  0  0
   51.8332   52.5754   20.6464 S   0  0  2  0  0  0  0  0  0  0  0  0
   53.2228   52.3955   19.4857 C   0  0  0  0  0  0  0  0  0  0  0  0
   50.8407   53.7823   19.6954 C   0  0  0  0  0  0  0  0  0  0  0  0
   49.8413   54.2793   20.7108 C   0  0  1  0  0  0  0  0  0  0  0  0
   49.0334   55.1468   19.9858 O   0  0  0  0  0  0  0  0  0  0  0  0
   48.7987   53.3537   21.3395 C   0  0  1  0  0  0  0  0  0  0  0  0
   49.2521   52.7581   22.5213 O   0  0  0  0  0  0  0  0  0  0  0  0
   47.6277   54.4271   21.5569 C   0  0  1  0  0  0  0  0  0  0  0  0
   48.0083   55.5764   22.3273 O   0  0  0  0  0  0  0  0  0  0  0  0
   47.6409   54.6456   20.0614 C   0  0  1  0  0  0  0  0  0  0  0  0
   53.7870   50.3557   25.3357 O   0  0  0  0  0  0  0  0  0  0  0  0
   42.9572   55.6596   18.5439 N   0  0  0  0  0  0  0  0  0  0  0  0
   43.4248   54.7579   19.4086 C   0  0  0  0  0  0  0  0  0  0  0  0
   44.7191   54.6841   19.7163 N   0  0  0  0  0  0  0  0  0  0  0  0
   45.6255   55.4326   19.0735 C   0  0  0  0  0  0  0  0  0  0  0  0
   45.1701   56.3664   18.0889 C   0  0  0  0  0  0  0  0  0  0  0  0
   43.7698   56.4524   17.8570 C   0  0  0  0  0  0  0  0  0  0  0  0
   43.2521   57.3307   16.9468 N   0  0  0  0  0  0  0  0  0  0  0  0
   46.2608   56.9825   17.5929 N   0  0  0  0  0  0  0  0  0  0  0  0
   47.3368   56.5068   18.1800 C   0  0  0  0  0  0  0  0  0  0  0  0
   47.0178   55.5558   19.1180 N   0  0  0  0  0  0  0  0  0  0  0  0
  2  1  1  1  0  0  0
  2  3  1  0  0  0  0
  2  5  1  0  0  0  0
  3  4  1  0  0  0  0
  3 17  1  0  0  0  0
  5  6  1  0  0  0  0
  7  6  1  1  0  0  0
  7  8  1  0  0  0  0
  7  9  1  0  0  0  0
 10  9  1  6  0  0  0
 10 11  1  0  0  0  0
 10 12  1  0  0  0  0
 11 16  1  0  0  0  0
 12 13  1  1  0  0  0
 12 14  1  0  0  0  0
 14 15  1  1  0  0  0
 14 16  1  0  0  0  0
 16 27  1  1  0  0  0
 18 19  2  0  0  0  0
 18 23  1  0  0  0  0
 19 20  1  0  0  0  0
 20 21  2  0  0  0  0
 21 22  1  0  0  0  0
 21 27  1  0  0  0  0
 22 23  2  0  0  0  0
 22 25  1  0  0  0  0
 23 24  1  0  0  0  0
 25 26  2  0  0  0  0
 26 27  1  0  0  0  0
M  END
>  <CHROM.1>
154.51697902,-66.81515883,-65.29815017,-70.87059633,-56.69728239,-176.99509129
-173.17584061,49.06466291,53.85474760,20.77208121,0.64474811,-0.23002705
2.06963468

>  <Name>
ligand

>  <RI>
0

>  <Rbt.Current_Directory>
/home/itssahil/PROJECTS/Mol_Feturizer/New_Systems/rnas/3IQN

>  <Rbt.Executable>
rbdock ($Id: //depot/dev/client3/rdock/2013.1/src/exe/rbdock.cxx#4 $)

>  <Rbt.Library>
libRbt.so (2013.1, Build901 2013/11/27)

>  <Rbt.Parameter_File>
/export/apps/rDock/src/rDock_2013.1_src/data/scripts/dock_solv.prm

>  <Rbt.Receptor>
prm/blind_docking_80.prm

>  <SCORE>
-20.1574

>  <SCORE.INTER>
-15.8755

>  <SCORE.INTER.CONST>
1

>  <SCORE.INTER.POLAR>
0

>  <SCORE.INTER.ROT>
7

>  <SCORE.INTER.SOLV>
14.8028

>  <SCORE.INTER.VDW>
-23.7846

>  <SCORE.INTER.norm>
-0.587982

>  <SCORE.INTRA>
-4.28191

>  <SCORE.INTRA.DIHEDRAL>
-6.47466

>  <SCORE.INTRA.DIHEDRAL.0>
10.0365

>  <SCORE.INTRA.POLAR>
0

>  <SCORE.INTRA.POLAR.0>
0

>  <SCORE.INTRA.REPUL>
0

>  <SCORE.INTRA.REPUL.0>
0

>  <SCORE.INTRA.SOLV>
1.20731

>  <SCORE.INTRA.SOLV.lig_0>
-48.6728

>  <SCORE.INTRA.VDW>
-1.64824

>  <SCORE.INTRA.VDW.0>
-1.10662

>  <SCORE.INTRA.norm>
-0.158589

>  <SCORE.RESTR>
0

>  <SCORE.RESTR.CAVITY>
0

>  <SCORE.RESTR.norm>
0

>  <SCORE.SYSTEM>
0

>  <SCORE.SYSTEM.CONST>
0

>  <SCORE.SYSTEM.DIHEDRAL>
0

>  <SCORE.SYSTEM.SOLV>
0

>  <SCORE.SYSTEM.norm>
0

>  <SCORE.heavy>
27

>  <SCORE.norm>
-0.746571

>  <RMSD>
12.280

$$$$
ligand
 OpenBabel11021811483D
libRbt.so/2013.1/901 2013/11/27
 27 29  0  0  0  0  0  0  0  0999 V2000
   50.1254   54.6673   27.5468 N   0  0  0  0  0  0  0  0  0  0  0  0
   49.9492   54.5792   26.0913 C   0  0  2  0  0  0  0  0  0  0  0  0
   49.2294   53.3023   25.7765 C   0  0  0  0  0  0  0  0  0  0  0  0
   48.4110   53.2716   24.8713 O   0  0  0  0  0  0  0  0  0  0  0  0
   51.3145   54.5828   25.3875 C   0  0  0  0  0  0  0  0  0  0  0  0
   51.0962   54.7416   23.8857 C   0  0  0  0  0  0  0  0  0  0  0  0
   51.6061   53.2838   22.9203 S   0  0  2  0  0  0  0  0  0  0  0  0
   50.4953   53.2788   21.4793 C   0  0  0  0  0  0  0  0  0  0  0  0
   51.0257   51.7417   23.7147 C   0  0  0  0  0  0  0  0  0  0  0  0
   52.2815   51.1846   24.3390 C   0  0  1  0  0  0  0  0  0  0  0  0
   52.8592   50.4404   23.3177 O   0  0  0  0  0  0  0  0  0  0  0  0
   53.4477   52.0845   24.7507 C   0  0  1  0  0  0  0  0  0  0  0  0
   53.3444   52.5257   26.0742 O   0  0  0  0  0  0  0  0  0  0  0  0
   54.6466   51.0501   24.4990 C   0  0  1  0  0  0  0  0  0  0  0  0
   54.5194   49.8070   25.2047 O   0  0  0  0  0  0  0  0  0  0  0  0
   54.2076   50.9954   23.0538 C   0  0  1  0  0  0  0  0  0  0  0  0
   49.4772   52.2935   26.4180 O   0  0  0  0  0  0  0  0  0  0  0  0
   56.0759   46.4249   22.1114 N   0  0  0  0  0  0  0  0  0  0  0  0
   55.8356   47.0558   23.2619 C   0  0  0  0  0  0  0  0  0  0  0  0
   55.2792   48.2659   23.2973 N   0  0  0  0  0  0  0  0  0  0  0  0
   55.0520   48.9546   22.1708 C   0  0  0  0  0  0  0  0  0  0  0  0
   55.3591   48.3382   20.9161 C   0  0  0  0  0  0  0  0  0  0  0  0
   55.8820   47.0160   20.9394 C   0  0  0  0  0  0  0  0  0  0  0  0
   56.1846   46.3502   19.7850 N   0  0  0  0  0  0  0  0  0  0  0  0
   55.0487   49.2264   19.9517 N   0  0  0  0  0  0  0  0  0  0  0  0
   54.5866   50.3269   20.5031 C   0  0  0  0  0  0  0  0  0  0  0  0
   54.5463   50.2238   21.8720 N   0  0  0  0  0  0  0  0  0  0  0  0
  2  1  1  1  0  0  0
  2  3  1  0  0  0  0
  2  5  1  0  0  0  0
  3  4  1  0  0  0  0
  3 17  1  0  0  0  0
  5  6  1  0  0  0  0
  7  6  1  1  0  0  0
  7  8  1  0  0  0  0
  7  9  1  0  0  0  0
 10  9  1  6  0  0  0
 10 11  1  0  0  0  0
 10 12  1  0  0  0  0
 11 16  1  0  0  0  0
 12 13  1  1  0  0  0
 12 14  1  0  0  0  0
 14 15  1  1  0  0  0
 14 16  1  0  0  0  0
 16 27  1  6  0  0  0
 18 19  2  0  0  0  0
 18 23  1  0  0  0  0
 19 20  1  0  0  0  0
 20 21  2  0  0  0  0
 21 22  1  0  0  0  0
 21 27  1  0  0  0  0
 22 23  2  0  0  0  0
 22 25  1  0  0  0  0
 23 24  1  0  0  0  0
 25 26  2  0  0  0  0
 26 27  1  0  0  0  0
M  END
>  <CHROM.1>
143.25832613,-170.01033467,-114.55877946,149.69649432,-104.53290597,-86.72948386
-82.97602269,52.88840859,51.13754645,23.52261704,-2.67611724,0.82561053,-1.59290253

>  <Name>
ligand

>  <RI>
0

>  <Rbt.Current_Directory>
/home/itssahil/PROJECTS/Mol_Feturizer/New_Systems/rnas/3IQN

>  <Rbt.Executable>
rbdock ($Id: //depot/dev/client3/rdock/2013.1/src/exe/rbdock.cxx#4 $)

>  <Rbt.Library>
libRbt.so (2013.1, Build901 2013/11/27)

>  <Rbt.Parameter_File>
/export/apps/rDock/src/rDock_2013.1_src/data/scripts/dock_solv.prm

>  <Rbt.Receptor>
prm/blind_docking_80.prm

>  <SCORE>
-8.43727

>  <SCORE.INTER>
-9.61681

>  <SCORE.INTER.CONST>
1

>  <SCORE.INTER.POLAR>
0

>  <SCORE.INTER.ROT>
7

>  <SCORE.INTER.SOLV>
11.2021

>  <SCORE.INTER.VDW>
-18.4119

>  <SCORE.INTER.norm>
-0.356178

>  <SCORE.INTRA>
1.17954

>  <SCORE.INTRA.DIHEDRAL>
5.68093

>  <SCORE.INTRA.DIHEDRAL.0>
10.0365

>  <SCORE.INTRA.POLAR>
0

>  <SCORE.INTRA.POLAR.0>
0

>  <SCORE.INTRA.REPUL>
0

>  <SCORE.INTRA.REPUL.0>
0

>  <SCORE.INTRA.SOLV>
0.0444009

>  <SCORE.INTRA.SOLV.lig_0>
-48.6728

>  <SCORE.INTRA.VDW>
-1.68313

>  <SCORE.INTRA.VDW.0>
-1.10662

>  <SCORE.INTRA.norm>
0.0436865

>  <SCORE.RESTR>
0

>  <SCORE.RESTR.CAVITY>
0

>  <SCORE.RESTR.norm>
0

>  <SCORE.SYSTEM>
0

>  <SCORE.SYSTEM.CONST>
0

>  <SCORE.SYSTEM.DIHEDRAL>
0

>  <SCORE.SYSTEM.SOLV>
0

>  <SCORE.SYSTEM.norm>
0

>  <SCORE.heavy>
27

>  <SCORE.norm>
-0.312492

>  <RMSD>
12.312

$$$$
ligand
 OpenBabel11021811483D
libRbt.so/2013.1/901 2013/11/27
 27 29  0  0  0  0  0  0  0  0999 V2000
   48.8933   54.3647   27.4933 N   0  0  0  0  0  0  0  0  0  0  0  0
   49.4893   54.9509   26.2857 C   0  0  2  0  0  0  0  0  0  0  0  0
   48.3854   55.4770   25.4185 C   0  0  0  0  0  0  0  0  0  0  0  0
   47.3749   55.9338   25.9289 O   0  0  0  0  0  0  0  0  0  0  0  0
   50.2834   53.8873   25.5127 C   0  0  0  0  0  0  0  0  0  0  0  0
   51.2197   54.5859   24.5309 C   0  0  0  0  0  0  0  0  0  0  0  0
   52.2199   53.4331   23.5368 S   0  0  2  0  0  0  0  0  0  0  0  0
   53.1148   54.4987   22.3647 C   0  0  0  0  0  0  0  0  0  0  0  0
   51.1735   52.5310   22.3379 C   0  0  0  0  0  0  0  0  0  0  0  0
   50.0664   53.5130   22.0429 C   0  0  1  0  0  0  0  0  0  0  0  0
   50.5468   54.2412   20.9614 O   0  0  0  0  0  0  0  0  0  0  0  0
   48.7030   53.0607   21.5179 C   0  0  1  0  0  0  0  0  0  0  0  0
   47.7909   52.8004   22.5461 O   0  0  0  0  0  0  0  0  0  0  0  0
   48.3454   54.3537   20.6398 C   0  0  1  0  0  0  0  0  0  0  0  0
   48.3717   55.5921   21.3643 O   0  0  0  0  0  0  0  0  0  0  0  0
   49.5954   54.0728   19.8379 C   0  0  1  0  0  0  0  0  0  0  0  0
   48.5091   55.4605   24.2040 O   0  0  0  0  0  0  0  0  0  0  0  0
   52.6629   52.6476   16.1193 N   0  0  0  0  0  0  0  0  0  0  0  0
   52.0370   51.9408   17.0617 C   0  0  0  0  0  0  0  0  0  0  0  0
   51.2123   52.5127   17.9381 N   0  0  0  0  0  0  0  0  0  0  0  0
   51.0739   53.8442   17.9888 C   0  0  0  0  0  0  0  0  0  0  0  0
   51.7821   54.6443   17.0364 C   0  0  0  0  0  0  0  0  0  0  0  0
   52.5892   53.9718   16.0780 C   0  0  0  0  0  0  0  0  0  0  0  0
   53.2833   54.6609   15.1235 N   0  0  0  0  0  0  0  0  0  0  0  0
   51.4822   55.9313   17.2990 N   0  0  0  0  0  0  0  0  0  0  0  0
   50.6623   55.9886   18.3253 C   0  0  0  0  0  0  0  0  0  0  0  0
   50.3549   54.7344   18.7927 N   0  0  0  0  0  0  0  0  0  0  0  0
  2  1  1  1  0  0  0
  2  3  1  0  0  0  0
  2  5  1  0  0  0  0
  3  4  1  0  0  0  0
  3 17  1  0  0  0  0
  5  6  1  0  0  0  0
  7  6  1  1  0  0  0
  7  8  1  0  0  0  0
  7  9  1  0  0  0  0
 10  9  1  6  0  0  0
 10 11  1  0  0  0  0
 10 12  1  0  0  0  0
 11 16  1  0  0  0  0
 12 13  1  1  0  0  0
 12 14  1  0  0  0  0
 14 15  1  1  0  0  0
 14 16  1  0  0  0  0
 16 27  1  6  0  0  0
 18 19  2  0  0  0  0
 18 23  1  0  0  0  0
 19 20  1  0  0  0  0
 20 21  2  0  0  0  0
 21 22  1  0  0  0  0
 21 27  1  0  0  0  0
 22 23  2  0  0  0  0
 22 25  1  0  0  0  0
 23 24  1  0  0  0  0
 25 26  2  0  0  0  0
 26 27  1  0  0  0  0
M  END
>  <CHROM.1>
33.11304022,-162.95149037,-179.66866441,174.95068718,29.94109860,89.97208390
97.33961522,50.45210367,54.18832178,21.27719797,-1.91278525,0.38201972,-1.52085448

>  <Name>
ligand

>  <RI>
0

>  <Rbt.Current_Directory>
/home/itssahil/PROJECTS/Mol_Feturizer/New_Systems/rnas/3IQN

>  <Rbt.Executable>
rbdock ($Id: //depot/dev/client3/rdock/2013.1/src/exe/rbdock.cxx#4 $)

>  <Rbt.Library>
libRbt.so (2013.1, Build901 2013/11/27)

>  <Rbt.Parameter_File>
/export/apps/rDock/src/rDock_2013.1_src/data/scripts/dock_solv.prm

>  <Rbt.Receptor>
prm/blind_docking_80.prm

>  <SCORE>
-14.7082

>  <SCORE.INTER>
-13.0839

>  <SCORE.INTER.CONST>
1

>  <SCORE.INTER.POLAR>
0

>  <SCORE.INTER.ROT>
7

>  <SCORE.INTER.SOLV>
11.1833

>  <SCORE.INTER.VDW>
-20.7171

>  <SCORE.INTER.norm>
-0.48459

>  <SCORE.INTRA>
-1.76387

>  <SCORE.INTRA.DIHEDRAL>
-1.76836

>  <SCORE.INTRA.DIHEDRAL.0>
10.0365

>  <SCORE.INTRA.POLAR>
0

>  <SCORE.INTRA.POLAR.0>
0

>  <SCORE.INTRA.REPUL>
0

>  <SCORE.INTRA.REPUL.0>
0

>  <SCORE.INTRA.SOLV>
-0.663183

>  <SCORE.INTRA.SOLV.lig_0>
-48.6728

>  <SCORE.INTRA.VDW>
-0.548098

>  <SCORE.INTRA.VDW.0>
-1.10662

>  <SCORE.INTRA.norm>
-0.0653284

>  <SCORE.RESTR>
0.139559

>  <SCORE.RESTR.CAVITY>
0.139559

>  <SCORE.RESTR.norm>
0.00516886

>  <SCORE.SYSTEM>
0

>  <SCORE.SYSTEM.CONST>
0

>  <SCORE.SYSTEM.DIHEDRAL>
0

>  <SCORE.SYSTEM.SOLV>
0

>  <SCORE.SYSTEM.norm>
0

>  <SCORE.heavy>
27

>  <SCORE.norm>
-0.54475

>  <RMSD>
12.327

$$$$
ligand
 OpenBabel11021811483D
libRbt.so/2013.1/901 2013/11/27
 27 29  0  0  0  0  0  0  0  0999 V2000
   53.8975   49.5723   24.7149 N   0  0  0  0  0  0  0  0  0  0  0  0
   53.9454   50.1606   23.3699 C   0  0  2  0  0  0  0  0  0  0  0  0
   55.3707   50.1681   22.9053 C   0  0  0  0  0  0  0  0  0  0  0  0
   55.6282   49.9834   21.7265 O   0  0  0  0  0  0  0  0  0  0  0  0
   53.4095   51.5998   23.3978 C   0  0  0  0  0  0  0  0  0  0  0  0
   51.8952   51.5600   23.5813 C   0  0  0  0  0  0  0  0  0  0  0  0
   51.1465   53.2069   23.7927 S   0  0  2  0  0  0  0  0  0  0  0  0
   50.7767   53.3158   25.5708 C   0  0  0  0  0  0  0  0  0  0  0  0
   49.4312   53.2282   23.1576 C   0  0  0  0  0  0  0  0  0  0  0  0
   49.6177   53.1196   21.6642 C   0  0  1  0  0  0  0  0  0  0  0  0
   48.3334   53.2728   21.1562 O   0  0  0  0  0  0  0  0  0  0  0  0
   50.3837   54.1756   20.8660 C   0  0  1  0  0  0  0  0  0  0  0  0
   51.7468   53.8814   20.7557 O   0  0  0  0  0  0  0  0  0  0  0  0
   49.5773   54.0612   19.4849 C   0  0  1  0  0  0  0  0  0  0  0  0
   49.5394   52.7405   18.9246 O   0  0  0  0  0  0  0  0  0  0  0  0
   48.3356   54.4487   20.2545 C   0  0  1  0  0  0  0  0  0  0  0  0
   56.2680   50.3750   23.7072 O   0  0  0  0  0  0  0  0  0  0  0  0
   45.3515   57.2396   17.3262 N   0  0  0  0  0  0  0  0  0  0  0  0
   46.6713   57.2691   17.5178 C   0  0  0  0  0  0  0  0  0  0  0  0
   47.2863   56.3935   18.3118 N   0  0  0  0  0  0  0  0  0  0  0  0
   46.5871   55.5224   19.0515 C   0  0  0  0  0  0  0  0  0  0  0  0
   45.1615   55.5042   18.9250 C   0  0  0  0  0  0  0  0  0  0  0  0
   44.5676   56.4125   18.0059 C   0  0  0  0  0  0  0  0  0  0  0  0
   43.2151   56.4465   17.8129 N   0  0  0  0  0  0  0  0  0  0  0  0
   44.7012   54.5572   19.7656 N   0  0  0  0  0  0  0  0  0  0  0  0
   45.7132   54.0019   20.3950 C   0  0  0  0  0  0  0  0  0  0  0  0
   46.9110   54.5391   19.9916 N   0  0  0  0  0  0  0  0  0  0  0  0
  2  1  1  1  0  0  0
  2  3  1  0  0  0  0
  2  5  1  0  0  0  0
  3  4  1  0  0  0  0
  3 17  1  0  0  0  0
  5  6  1  0  0  0  0
  7  6  1  1  0  0  0
  7  8  1  0  0  0  0
  7  9  1  0  0  0  0
 10  9  1  1  0  0  0
 10 11  1  0  0  0  0
 10 12  1  0  0  0  0
 11 16  1  0  0  0  0
 12 13  1  6  0  0  0
 12 14  1  0  0  0  0
 14 15  1  1  0  0  0
 14 16  1  0  0  0  0
 16 27  1  6  0  0  0
 18 19  2  0  0  0  0
 18 23  1  0  0  0  0
 19 20  1  0  0  0  0
 20 21  2  0  0  0  0
 21 22  1  0  0  0  0
 21 27  1  0  0  0  0
 22 23  2  0  0  0  0
 22 25  1  0  0  0  0
 23 24  1  0  0  0  0
 25 26  2  0  0  0  0
 26 27  1  0  0  0  0
M  END
>  <CHROM.1>
144.89991558,-72.58797221,174.43918294,-104.19255615,-69.98972003,-174.08363382
-175.01286169,49.66944427,53.49331027,21.16234824,0.57298287,-0.41078867
1.80311131

>  <Name>
ligand

>  <RI>
0

>  <Rbt.Current_Directory>
/home/itssahil/PROJECTS/Mol_Feturizer/New_Systems/rnas/3IQN

>  <Rbt.Executable>
rbdock ($Id: //depot/dev/client3/rdock/2013.1/src/exe/rbdock.cxx#4 $)

>  <Rbt.Library>
libRbt.so (2013.1, Build901 2013/11/27)

>  <Rbt.Parameter_File>
/export/apps/rDock/src/rDock_2013.1_src/data/scripts/dock_solv.prm

>  <Rbt.Receptor>
prm/blind_docking_80.prm

>  <SCORE>
-11.9129

>  <SCORE.INTER>
-8.69239

>  <SCORE.INTER.CONST>
1

>  <SCORE.INTER.POLAR>
0

>  <SCORE.INTER.ROT>
7

>  <SCORE.INTER.SOLV>
16.2793

>  <SCORE.INTER.VDW>
-19.488

>  <SCORE.INTER.norm>
-0.32194

>  <SCORE.INTRA>
-3.22051

>  <SCORE.INTRA.DIHEDRAL>
-3.14144

>  <SCORE.INTRA.DIHEDRAL.0>
10.0365

>  <SCORE.INTRA.POLAR>
0

>  <SCORE.INTRA.POLAR.0>
0

>  <SCORE.INTRA.REPUL>
0

>  <SCORE.INTRA.REPUL.0>
0

>  <SCORE.INTRA.SOLV>
-0.228016

>  <SCORE.INTRA.SOLV.lig_0>
-48.6728

>  <SCORE.INTRA.VDW>
-1.53578

>  <SCORE.INTRA.VDW.0>
-1.10662

>  <SCORE.INTRA.norm>
-0.119278

>  <SCORE.RESTR>
0

>  <SCORE.RESTR.CAVITY>
0

>  <SCORE.RESTR.norm>
0

>  <SCORE.SYSTEM>
0

>  <SCORE.SYSTEM.CONST>
0

>  <SCORE.SYSTEM.DIHEDRAL>
0

>  <SCORE.SYSTEM.SOLV>
0

>  <SCORE.SYSTEM.norm>
0

>  <SCORE.heavy>
27

>  <SCORE.norm>
-0.441219

>  <RMSD>
12.378

$$$$
ligand
 OpenBabel11021811483D
libRbt.so/2013.1/901 2013/11/27
 27 29  0  0  0  0  0  0  0  0999 V2000
   47.6408   52.6153   25.7836 N   0  0  0  0  0  0  0  0  0  0  0  0
   48.4907   53.8081   25.8945 C   0  0  2  0  0  0  0  0  0  0  0  0
   47.6181   55.0234   25.7991 C   0  0  0  0  0  0  0  0  0  0  0  0
   46.4347   54.9480   26.0890 O   0  0  0  0  0  0  0  0  0  0  0  0
   49.5263   53.8324   24.7604 C   0  0  0  0  0  0  0  0  0  0  0  0
   50.5172   52.6913   24.9711 C   0  0  0  0  0  0  0  0  0  0  0  0
   51.8982   52.7009   23.7836 S   0  0  2  0  0  0  0  0  0  0  0  0
   52.3027   54.4616   23.5675 C   0  0  0  0  0  0  0  0  0  0  0  0
   51.3026   52.3502   22.0900 C   0  0  0  0  0  0  0  0  0  0  0  0
   50.2241   53.3856   21.8851 C   0  0  1  0  0  0  0  0  0  0  0  0
   50.6975   54.1552   20.8295 O   0  0  0  0  0  0  0  0  0  0  0  0
   48.8293   53.0116   21.3814 C   0  0  1  0  0  0  0  0  0  0  0  0
   47.9403   52.7271   22.4233 O   0  0  0  0  0  0  0  0  0  0  0  0
   48.4930   54.3630   20.5869 C   0  0  1  0  0  0  0  0  0  0  0  0
   48.5876   55.5577   21.3763 O   0  0  0  0  0  0  0  0  0  0  0  0
   49.7064   54.0829   19.7304 C   0  0  1  0  0  0  0  0  0  0  0  0
   48.0997   56.0885   25.4461 O   0  0  0  0  0  0  0  0  0  0  0  0
   52.7522   52.7654   15.9547 N   0  0  0  0  0  0  0  0  0  0  0  0
   52.1343   52.0320   16.8820 C   0  0  0  0  0  0  0  0  0  0  0  0
   51.3142   52.5782   17.7789 N   0  0  0  0  0  0  0  0  0  0  0  0
   51.1730   53.9076   17.8660 C   0  0  0  0  0  0  0  0  0  0  0  0
   51.8729   54.7346   16.9307 C   0  0  0  0  0  0  0  0  0  0  0  0
   52.6752   54.0900   15.9493 C   0  0  0  0  0  0  0  0  0  0  0  0
   53.3613   54.8061   15.0090 N   0  0  0  0  0  0  0  0  0  0  0  0
   51.5718   56.0134   17.2296 N   0  0  0  0  0  0  0  0  0  0  0  0
   50.7587   56.0412   18.2625 C   0  0  0  0  0  0  0  0  0  0  0  0
   50.4573   54.7742   18.6983 N   0  0  0  0  0  0  0  0  0  0  0  0
  2  1  1  6  0  0  0
  2  3  1  0  0  0  0
  2  5  1  0  0  0  0
  3  4  1  0  0  0  0
  3 17  1  0  0  0  0
  5  6  1  0  0  0  0
  7  6  1  1  0  0  0
  7  8  1  0  0  0  0
  7  9  1  0  0  0  0
 10  9  1  6  0  0  0
 10 11  1  0  0  0  0
 10 12  1  0  0  0  0
 11 16  1  0  0  0  0
 12 13  1  1  0  0  0
 12 14  1  0  0  0  0
 14 15  1  1  0  0  0
 14 16  1  0  0  0  0
 16 27  1  6  0  0  0
 18 19  2  0  0  0  0
 18 23  1  0  0  0  0
 19 20  1  0  0  0  0
 20 21  2  0  0  0  0
 21 22  1  0  0  0  0
 21 27  1  0  0  0  0
 22 23  2  0  0  0  0
 22 25  1  0  0  0  0
 23 24  1  0  0  0  0
 25 26  2  0  0  0  0
 26 27  1  0  0  0  0
M  END
>  <CHROM.1>
23.93791053,-67.90477763,-174.40723261,38.40439711,54.35134643,117.17812319
94.24277873,50.25967250,53.93649245,21.25329129,-2.06274228,0.62671192,-1.25884744

>  <Name>
ligand

>  <RI>
0

>  <Rbt.Current_Directory>
/home/itssahil/PROJECTS/Mol_Feturizer/New_Systems/rnas/3IQN

>  <Rbt.Executable>
rbdock ($Id: //depot/dev/client3/rdock/2013.1/src/exe/rbdock.cxx#4 $)

>  <Rbt.Library>
libRbt.so (2013.1, Build901 2013/11/27)

>  <Rbt.Parameter_File>
/export/apps/rDock/src/rDock_2013.1_src/data/scripts/dock_solv.prm

>  <Rbt.Receptor>
prm/blind_docking_80.prm

>  <SCORE>
-10.1021

>  <SCORE.INTER>
-11.5305

>  <SCORE.INTER.CONST>
1

>  <SCORE.INTER.POLAR>
0

>  <SCORE.INTER.ROT>
7

>  <SCORE.INTER.SOLV>
11.6468

>  <SCORE.INTER.VDW>
-19.8359

>  <SCORE.INTER.norm>
-0.427055

>  <SCORE.INTRA>
1.42839

>  <SCORE.INTRA.DIHEDRAL>
-1.14574

>  <SCORE.INTRA.DIHEDRAL.0>
10.0365

>  <SCORE.INTRA.POLAR>
0

>  <SCORE.INTRA.POLAR.0>
0

>  <SCORE.INTRA.REPUL>
0

>  <SCORE.INTRA.REPUL.0>
0

>  <SCORE.INTRA.SOLV>
0.947003

>  <SCORE.INTRA.SOLV.lig_0>
-48.6728

>  <SCORE.INTRA.VDW>
1.52776

>  <SCORE.INTRA.VDW.0>
-1.10662

>  <SCORE.INTRA.norm>
0.0529032

>  <SCORE.RESTR>
0

>  <SCORE.RESTR.CAVITY>
0

>  <SCORE.RESTR.norm>
0

>  <SCORE.SYSTEM>
0

>  <SCORE.SYSTEM.CONST>
0

>  <SCORE.SYSTEM.DIHEDRAL>
0

>  <SCORE.SYSTEM.SOLV>
0

>  <SCORE.SYSTEM.norm>
0

>  <SCORE.heavy>
27

>  <SCORE.norm>
-0.374152

>  <RMSD>
12.416

$$$$
ligand
 OpenBabel11021811483D
libRbt.so/2013.1/901 2013/11/27
 27 29  0  0  0  0  0  0  0  0999 V2000
   48.4027   52.7874   25.8458 N   0  0  0  0  0  0  0  0  0  0  0  0
   48.7530   54.2032   26.0192 C   0  0  2  0  0  0  0  0  0  0  0  0
   47.5020   55.0203   25.8977 C   0  0  0  0  0  0  0  0  0  0  0  0
   47.5746   56.2099   25.6336 O   0  0  0  0  0  0  0  0  0  0  0  0
   49.7556   54.6406   24.9409 C   0  0  0  0  0  0  0  0  0  0  0  0
   51.0088   53.7771   25.0516 C   0  0  0  0  0  0  0  0  0  0  0  0
   50.9335   52.2571   24.0509 S   0  0  2  0  0  0  0  0  0  0  0  0
   52.4730   51.3723   24.4475 C   0  0  0  0  0  0  0  0  0  0  0  0
   51.2750   52.6192   22.2908 C   0  0  0  0  0  0  0  0  0  0  0  0
   50.1387   53.5330   21.9025 C   0  0  1  0  0  0  0  0  0  0  0  0
   50.6286   54.2238   20.8008 O   0  0  0  0  0  0  0  0  0  0  0  0
   48.8175   52.9923   21.3540 C   0  0  1  0  0  0  0  0  0  0  0  0
   47.8784   52.7459   22.3611 O   0  0  0  0  0  0  0  0  0  0  0  0
   48.4385   54.2192   20.3939 C   0  0  1  0  0  0  0  0  0  0  0  0
   48.3832   55.4943   21.0501 O   0  0  0  0  0  0  0  0  0  0  0  0
   49.7295   53.9530   19.6545 C   0  0  1  0  0  0  0  0  0  0  0  0
   46.4137   54.4876   26.0484 O   0  0  0  0  0  0  0  0  0  0  0  0
   52.7523   52.4400   15.9340 N   0  0  0  0  0  0  0  0  0  0  0  0
   52.1145   51.7524   16.8826 C   0  0  0  0  0  0  0  0  0  0  0  0
   51.3055   52.3471   17.7585 N   0  0  0  0  0  0  0  0  0  0  0  0
   51.1962   53.6817   17.8018 C   0  0  0  0  0  0  0  0  0  0  0  0
   51.9182   54.4606   16.8423 C   0  0  0  0  0  0  0  0  0  0  0  0
   52.7072   53.7652   15.8851 C   0  0  0  0  0  0  0  0  0  0  0  0
   53.4128   54.4335   14.9243 N   0  0  0  0  0  0  0  0  0  0  0  0
   51.6472   55.7553   17.0983 N   0  0  0  0  0  0  0  0  0  0  0  0
   50.8324   55.8364   18.1270 C   0  0  0  0  0  0  0  0  0  0  0  0
   50.4995   54.5919   18.6029 N   0  0  0  0  0  0  0  0  0  0  0  0
  2  1  1  6  0  0  0
  2  3  1  0  0  0  0
  2  5  1  0  0  0  0
  3  4  1  0  0  0  0
  3 17  1  0  0  0  0
  5  6  1  0  0  0  0
  7  6  1  1  0  0  0
  7  8  1  0  0  0  0
  7  9  1  0  0  0  0
 10  9  1  6  0  0  0
 10 11  1  0  0  0  0
 10 12  1  0  0  0  0
 11 16  1  0  0  0  0
 12 13  1  1  0  0  0
 12 14  1  0  0  0  0
 14 15  1  1  0  0  0
 14 16  1  0  0  0  0
 16 27  1  6  0  0  0
 18 19  2  0  0  0  0
 18 23  1  0  0  0  0
 19 20  1  0  0  0  0
 20 21  2  0  0  0  0
 21 22  1  0  0  0  0
 21 27  1  0  0  0  0
 22 23  2  0  0  0  0
 22 25  1  0  0  0  0
 23 24  1  0  0  0  0
 25 26  2  0  0  0  0
 26 27  1  0  0  0  0
M  END
>  <CHROM.1>
-159.50210939,-59.25468392,89.47189106,-176.24369865,-62.97756377,157.37436516
102.57407342,50.21453344,53.77084673,21.29131123,-2.07610510,0.72301286,-1.23734567

>  <Name>
ligand

>  <RI>
0

>  <Rbt.Current_Directory>
/home/itssahil/PROJECTS/Mol_Feturizer/New_Systems/rnas/3IQN

>  <Rbt.Executable>
rbdock ($Id: //depot/dev/client3/rdock/2013.1/src/exe/rbdock.cxx#4 $)

>  <Rbt.Library>
libRbt.so (2013.1, Build901 2013/11/27)

>  <Rbt.Parameter_File>
/export/apps/rDock/src/rDock_2013.1_src/data/scripts/dock_solv.prm

>  <Rbt.Receptor>
prm/blind_docking_80.prm

>  <SCORE>
-15.0384

>  <SCORE.INTER>
-13.1262

>  <SCORE.INTER.CONST>
1

>  <SCORE.INTER.POLAR>
0

>  <SCORE.INTER.ROT>
7

>  <SCORE.INTER.SOLV>
12.1914

>  <SCORE.INTER.VDW>
-21.0813

>  <SCORE.INTER.norm>
-0.486155

>  <SCORE.INTRA>
-1.91218

>  <SCORE.INTRA.DIHEDRAL>
-2.43523

>  <SCORE.INTRA.DIHEDRAL.0>
10.0365

>  <SCORE.INTRA.POLAR>
0

>  <SCORE.INTRA.POLAR.0>
0

>  <SCORE.INTRA.REPUL>
0

>  <SCORE.INTRA.REPUL.0>
0

>  <SCORE.INTRA.SOLV>
2.08467

>  <SCORE.INTRA.SOLV.lig_0>
-48.6728

>  <SCORE.INTRA.VDW>
-1.7369

>  <SCORE.INTRA.VDW.0>
-1.10662

>  <SCORE.INTRA.norm>
-0.0708213

>  <SCORE.RESTR>
0

>  <SCORE.RESTR.CAVITY>
0

>  <SCORE.RESTR.norm>
0

>  <SCORE.SYSTEM>
0

>  <SCORE.SYSTEM.CONST>
0

>  <SCORE.SYSTEM.DIHEDRAL>
0

>  <SCORE.SYSTEM.SOLV>
0

>  <SCORE.SYSTEM.norm>
0

>  <SCORE.heavy>
27

>  <SCORE.norm>
-0.556977

>  <RMSD>
12.467

$$$$
ligand
 OpenBabel11021811483D
libRbt.so/2013.1/901 2013/11/27
 27 29  0  0  0  0  0  0  0  0999 V2000
   52.1681   53.5966   17.5079 N   0  0  0  0  0  0  0  0  0  0  0  0
   50.9346   53.8211   18.2730 C   0  0  2  0  0  0  0  0  0  0  0  0
   50.5766   55.2740   18.1812 C   0  0  0  0  0  0  0  0  0  0  0  0
   49.4337   55.6355   18.4120 O   0  0  0  0  0  0  0  0  0  0  0  0
   51.1434   53.4384   19.7458 C   0  0  0  0  0  0  0  0  0  0  0  0
   49.8597   53.7274   20.5185 C   0  0  0  0  0  0  0  0  0  0  0  0
   49.8600   53.0449   22.2072 S   0  0  2  0  0  0  0  0  0  0  0  0
   48.4915   53.9013   23.0463 C   0  0  0  0  0  0  0  0  0  0  0  0
   51.2469   53.7280   23.1849 C   0  0  0  0  0  0  0  0  0  0  0  0
   51.6119   52.5882   24.1040 C   0  0  1  0  0  0  0  0  0  0  0  0
   52.1457   51.6302   23.2507 O   0  0  0  0  0  0  0  0  0  0  0  0
   52.7239   52.7142   25.1463 C   0  0  1  0  0  0  0  0  0  0  0  0
   52.2520   53.1652   26.3835 O   0  0  0  0  0  0  0  0  0  0  0  0
   53.2180   51.1889   25.1526 C   0  0  1  0  0  0  0  0  0  0  0  0
   52.1875   50.2298   25.4313 O   0  0  0  0  0  0  0  0  0  0  0  0
   53.5357   51.3552   23.6844 C   0  0  1  0  0  0  0  0  0  0  0  0
   51.4352   56.0921   17.8907 O   0  0  0  0  0  0  0  0  0  0  0  0
   55.9114   46.9507   23.2100 N   0  0  0  0  0  0  0  0  0  0  0  0
   55.6070   47.6731   24.2893 C   0  0  0  0  0  0  0  0  0  0  0  0
   54.9153   48.8086   24.2032 N   0  0  0  0  0  0  0  0  0  0  0  0
   54.6038   49.3388   23.0130 C   0  0  0  0  0  0  0  0  0  0  0  0
   54.9724   48.6269   21.8272 C   0  0  0  0  0  0  0  0  0  0  0  0
   55.6439   47.3833   21.9845 C   0  0  0  0  0  0  0  0  0  0  0  0
   56.0143   46.6332   20.9038 N   0  0  0  0  0  0  0  0  0  0  0  0
   54.5562   49.3625   20.7779 N   0  0  0  0  0  0  0  0  0  0  0  0
   53.9739   50.4573   21.2149 C   0  0  0  0  0  0  0  0  0  0  0  0
   53.9538   50.5016   22.5873 N   0  0  0  0  0  0  0  0  0  0  0  0
  2  1  1  6  0  0  0
  2  3  1  0  0  0  0
  2  5  1  0  0  0  0
  3  4  1  0  0  0  0
  3 17  1  0  0  0  0
  5  6  1  0  0  0  0
  7  6  1  6  0  0  0
  7  8  1  0  0  0  0
  7  9  1  0  0  0  0
 10  9  1  6  0  0  0
 10 11  1  0  0  0  0
 10 12  1  0  0  0  0
 11 16  1  0  0  0  0
 12 13  1  1  0  0  0
 12 14  1  0  0  0  0
 14 15  1  6  0  0  0
 14 16  1  0  0  0  0
 16 27  1  6  0  0  0
 18 19  2  0  0  0  0
 18 23  1  0  0  0  0
 19 20  1  0  0  0  0
 20 21  2  0  0  0  0
 21 22  1  0  0  0  0
 21 27  1  0  0  0  0
 22 23  2  0  0  0  0
 22 25  1  0  0  0  0
 23 24  1  0  0  0  0
 25 26  2  0  0  0  0
 26 27  1  0  0  0  0
M  END
>  <CHROM.1>
159.91174243,178.13586359,169.53792525,164.46695492,-147.43068600,68.35367923
-132.82623868,52.48597740,51.68033457,22.08718605,-2.56410231,-0.86121357
1.74345600

>  <Name>
ligand

>  <RI>
0

>  <Rbt.Current_Directory>
/home/itssahil/PROJECTS/Mol_Feturizer/New_Systems/rnas/3IQN

>  <Rbt.Executable>
rbdock ($Id: //depot/dev/client3/rdock/2013.1/src/exe/rbdock.cxx#4 $)

>  <Rbt.Library>
libRbt.so (2013.1, Build901 2013/11/27)

>  <Rbt.Parameter_File>
/export/apps/rDock/src/rDock_2013.1_src/data/scripts/dock_solv.prm

>  <Rbt.Receptor>
prm/blind_docking_80.prm

>  <SCORE>
-21.1327

>  <SCORE.INTER>
-18.5242

>  <SCORE.INTER.CONST>
1

>  <SCORE.INTER.POLAR>
0

>  <SCORE.INTER.ROT>
7

>  <SCORE.INTER.SOLV>
11.3577

>  <SCORE.INTER.VDW>
-24.402

>  <SCORE.INTER.norm>
-0.68608

>  <SCORE.INTRA>
-2.65391

>  <SCORE.INTRA.DIHEDRAL>
-2.97078

>  <SCORE.INTRA.DIHEDRAL.0>
10.0365

>  <SCORE.INTRA.POLAR>
0

>  <SCORE.INTRA.POLAR.0>
0

>  <SCORE.INTRA.REPUL>
0

>  <SCORE.INTRA.REPUL.0>
0

>  <SCORE.INTRA.SOLV>
-1.04026

>  <SCORE.INTRA.SOLV.lig_0>
-48.6728

>  <SCORE.INTRA.VDW>
-0.648395

>  <SCORE.INTRA.VDW.0>
-1.10662

>  <SCORE.INTRA.norm>
-0.098293

>  <SCORE.RESTR>
0.0453222

>  <SCORE.RESTR.CAVITY>
0.0453222

>  <SCORE.RESTR.norm>
0.0016786

>  <SCORE.SYSTEM>
0

>  <SCORE.SYSTEM.CONST>
0

>  <SCORE.SYSTEM.DIHEDRAL>
0

>  <SCORE.SYSTEM.SOLV>
0

>  <SCORE.SYSTEM.norm>
0

>  <SCORE.heavy>
27

>  <SCORE.norm>
-0.782694

>  <RMSD>
12.481

$$$$
ligand
 OpenBabel11021811483D
libRbt.so/2013.1/901 2013/11/27
 27 29  0  0  0  0  0  0  0  0999 V2000
   49.5041   51.2745   24.9075 N   0  0  0  0  0  0  0  0  0  0  0  0
   49.1245   52.6317   25.3211 C   0  0  2  0  0  0  0  0  0  0  0  0
   48.0793   52.5274   26.3907 C   0  0  0  0  0  0  0  0  0  0  0  0
   48.2578   53.0661   27.4715 O   0  0  0  0  0  0  0  0  0  0  0  0
   48.5574   53.4142   24.1271 C   0  0  0  0  0  0  0  0  0  0  0  0
   49.5284   53.3008   22.9555 C   0  0  0  0  0  0  0  0  0  0  0  0
   49.0085   54.2463   21.4881 S   0  0  2  0  0  0  0  0  0  0  0  0
   47.2005   54.0494   21.4348 C   0  0  0  0  0  0  0  0  0  0  0  0
   49.4244   53.3445   19.9520 C   0  0  0  0  0  0  0  0  0  0  0  0
   50.9047   53.5942   19.7986 C   0  0  1  0  0  0  0  0  0  0  0  0
   51.4609   53.0015   20.9256 O   0  0  0  0  0  0  0  0  0  0  0  0
   51.7232   52.9432   18.6827 C   0  0  1  0  0  0  0  0  0  0  0  0
   51.7754   53.7288   17.5264 O   0  0  0  0  0  0  0  0  0  0  0  0
   53.1236   52.8229   19.4540 C   0  0  1  0  0  0  0  0  0  0  0  0
   53.6259   54.0625   19.9742 O   0  0  0  0  0  0  0  0  0  0  0  0
   52.4132   51.9607   20.4720 C   0  0  1  0  0  0  0  0  0  0  0  0
   47.0456   51.9163   26.1698 O   0  0  0  0  0  0  0  0  0  0  0  0
   55.4500   48.3167   22.1355 N   0  0  0  0  0  0  0  0  0  0  0  0
   55.2118   48.7676   20.9029 C   0  0  0  0  0  0  0  0  0  0  0  0
   54.3951   49.7955   20.6758 N   0  0  0  0  0  0  0  0  0  0  0  0
   53.6792   50.3410   21.6682 C   0  0  0  0  0  0  0  0  0  0  0  0
   53.8562   49.8401   22.9973 C   0  0  0  0  0  0  0  0  0  0  0  0
   54.7971   48.7912   23.1888 C   0  0  0  0  0  0  0  0  0  0  0  0
   55.0381   48.2692   24.4286 N   0  0  0  0  0  0  0  0  0  0  0  0
   53.0309   50.5418   23.7984 N   0  0  0  0  0  0  0  0  0  0  0  0
   52.3650   51.4186   23.0797 C   0  0  0  0  0  0  0  0  0  0  0  0
   52.7266   51.3611   21.7562 N   0  0  0  0  0  0  0  0  0  0  0  0
  2  1  1  6  0  0  0
  2  3  1  0  0  0  0
  2  5  1  0  0  0  0
  3  4  1  0  0  0  0
  3 17  1  0  0  0  0
  5  6  1  0  0  0  0
  7  6  1  1  0  0  0
  7  8  1  0  0  0  0
  7  9  1  0  0  0  0
 10  9  1  6  0  0  0
 10 11  1  0  0  0  0
 10 12  1  0  0  0  0
 11 16  1  0  0  0  0
 12 13  1  6  0  0  0
 12 14  1  0  0  0  0
 14 15  1  1  0  0  0
 14 16  1  0  0  0  0
 16 27  1  1  0  0  0
 18 19  2  0  0  0  0
 18 23  1  0  0  0  0
 19 20  1  0  0  0  0
 20 21  2  0  0  0  0
 21 22  1  0  0  0  0
 21 27  1  0  0  0  0
 22 23  2  0  0  0  0
 22 25  1  0  0  0  0
 23 24  1  0  0  0  0
 25 26  2  0  0  0  0
 26 27  1  0  0  0  0
M  END
>  <CHROM.1>
124.12931063,-50.70398092,-177.57342692,-37.77318025,-77.76447357,62.66520599
-177.51825186,51.32941088,52.01405092,22.24514581,-2.93172746,0.58634502
-1.10407260

>  <Name>
ligand

>  <RI>
0

>  <Rbt.Current_Directory>
/home/itssahil/PROJECTS/Mol_Feturizer/New_Systems/rnas/3IQN

>  <Rbt.Executable>
rbdock ($Id: //depot/dev/client3/rdock/2013.1/src/exe/rbdock.cxx#4 $)

>  <Rbt.Library>
libRbt.so (2013.1, Build901 2013/11/27)

>  <Rbt.Parameter_File>
/export/apps/rDock/src/rDock_2013.1_src/data/scripts/dock_solv.prm

>  <Rbt.Receptor>
prm/blind_docking_80.prm

>  <SCORE>
-11.9962

>  <SCORE.INTER>
-10.8231

>  <SCORE.INTER.CONST>
1

>  <SCORE.INTER.POLAR>
0

>  <SCORE.INTER.ROT>
7

>  <SCORE.INTER.SOLV>
17.1347

>  <SCORE.INTER.VDW>
-21.1936

>  <SCORE.INTER.norm>
-0.400854

>  <SCORE.INTRA>
-1.66611

>  <SCORE.INTRA.DIHEDRAL>
-3.9872

>  <SCORE.INTRA.DIHEDRAL.0>
10.0365

>  <SCORE.INTRA.POLAR>
0

>  <SCORE.INTRA.POLAR.0>
0

>  <SCORE.INTRA.REPUL>
0

>  <SCORE.INTRA.REPUL.0>
0

>  <SCORE.INTRA.SOLV>
0.213837

>  <SCORE.INTRA.SOLV.lig_0>
-48.6728

>  <SCORE.INTRA.VDW>
0.220569

>  <SCORE.INTRA.VDW.0>
-1.10662

>  <SCORE.INTRA.norm>
-0.0617079

>  <SCORE.RESTR>
0.493019

>  <SCORE.RESTR.CAVITY>
0.493019

>  <SCORE.RESTR.norm>
0.01826

>  <SCORE.SYSTEM>
0

>  <SCORE.SYSTEM.CONST>
0

>  <SCORE.SYSTEM.DIHEDRAL>
0

>  <SCORE.SYSTEM.SOLV>
0

>  <SCORE.SYSTEM.norm>
0

>  <SCORE.heavy>
27

>  <SCORE.norm>
-0.444302

>  <RMSD>
12.559

$$$$
ligand
 OpenBabel11021811483D
libRbt.so/2013.1/901 2013/11/27
 27 29  0  0  0  0  0  0  0  0999 V2000
   47.1867   52.6661   26.3856 N   0  0  0  0  0  0  0  0  0  0  0  0
   47.9813   51.7779   25.5271 C   0  0  2  0  0  0  0  0  0  0  0  0
   49.1709   51.3035   26.3065 C   0  0  0  0  0  0  0  0  0  0  0  0
   49.9892   50.5660   25.7805 O   0  0  0  0  0  0  0  0  0  0  0  0
   48.4576   52.5310   24.2760 C   0  0  0  0  0  0  0  0  0  0  0  0
   47.2586   52.7899   23.3685 C   0  0  0  0  0  0  0  0  0  0  0  0
   47.6323   53.8956   21.9701 S   0  0  2  0  0  0  0  0  0  0  0  0
   46.1374   53.8436   20.9344 C   0  0  0  0  0  0  0  0  0  0  0  0
   48.7967   53.1003   20.8049 C   0  0  0  0  0  0  0  0  0  0  0  0
   50.0880   53.0611   21.5846 C   0  0  1  0  0  0  0  0  0  0  0  0
   51.0465   52.7550   20.6263 O   0  0  0  0  0  0  0  0  0  0  0  0
   50.6883   54.3168   22.2185 C   0  0  1  0  0  0  0  0  0  0  0  0
   50.2505   54.5173   23.5319 O   0  0  0  0  0  0  0  0  0  0  0  0
   52.2386   53.9254   22.0997 C   0  0  1  0  0  0  0  0  0  0  0  0
   52.5858   52.6737   22.7100 O   0  0  0  0  0  0  0  0  0  0  0  0
   52.0380   53.8560   20.6033 C   0  0  1  0  0  0  0  0  0  0  0  0
   49.3240   51.6702   27.4610 O   0  0  0  0  0  0  0  0  0  0  0  0
   51.4763   53.9975   15.6100 N   0  0  0  0  0  0  0  0  0  0  0  0
   50.6651   54.3820   16.5967 C   0  0  0  0  0  0  0  0  0  0  0  0
   51.0293   54.3061   17.8762 N   0  0  0  0  0  0  0  0  0  0  0  0
   52.1808   53.7217   18.2329 C   0  0  0  0  0  0  0  0  0  0  0  0
   53.0501   53.2347   17.2053 C   0  0  0  0  0  0  0  0  0  0  0  0
   52.6411   53.4110   15.8548 C   0  0  0  0  0  0  0  0  0  0  0  0
   53.4213   52.9905   14.8145 N   0  0  0  0  0  0  0  0  0  0  0  0
   54.1227   52.6950   17.8165 N   0  0  0  0  0  0  0  0  0  0  0  0
   53.9842   52.8036   19.1195 C   0  0  0  0  0  0  0  0  0  0  0  0
   52.8137   53.4423   19.4482 N   0  0  0  0  0  0  0  0  0  0  0  0
  2  1  1  1  0  0  0
  2  3  1  0  0  0  0
  2  5  1  0  0  0  0
  3  4  1  0  0  0  0
  3 17  1  0  0  0  0
  5  6  1  0  0  0  0
  7  6  1  1  0  0  0
  7  8  1  0  0  0  0
  7  9  1  0  0  0  0
 10  9  1  6  0  0  0
 10 11  1  0  0  0  0
 10 12  1  0  0  0  0
 11 16  1  0  0  0  0
 12 13  1  1  0  0  0
 12 14  1  0  0  0  0
 14 15  1  1  0  0  0
 14 16  1  0  0  0  0
 16 27  1  6  0  0  0
 18 19  2  0  0  0  0
 18 23  1  0  0  0  0
 19 20  1  0  0  0  0
 20 21  2  0  0  0  0
 21 22  1  0  0  0  0
 21 27  1  0  0  0  0
 22 23  2  0  0  0  0
 22 25  1  0  0  0  0
 23 24  1  0  0  0  0
 25 26  2  0  0  0  0
 26 27  1  0  0  0  0
M  END
>  <CHROM.1>
-178.76836749,-70.74303857,171.19734822,172.07633121,-69.57911887,-166.60510199
77.07853305,50.41214274,53.13596302,21.23244277,2.03919451,-0.20483436,1.81735482

>  <Name>
ligand

>  <RI>
0

>  <Rbt.Current_Directory>
/home/itssahil/PROJECTS/Mol_Feturizer/New_Systems/rnas/3IQN

>  <Rbt.Executable>
rbdock ($Id: //depot/dev/client3/rdock/2013.1/src/exe/rbdock.cxx#4 $)

>  <Rbt.Library>
libRbt.so (2013.1, Build901 2013/11/27)

>  <Rbt.Parameter_File>
/export/apps/rDock/src/rDock_2013.1_src/data/scripts/dock_solv.prm

>  <Rbt.Receptor>
prm/blind_docking_80.prm

>  <SCORE>
-14.3164

>  <SCORE.INTER>
-10.7523

>  <SCORE.INTER.CONST>
1

>  <SCORE.INTER.POLAR>
0

>  <SCORE.INTER.ROT>
7

>  <SCORE.INTER.SOLV>
19.3768

>  <SCORE.INTER.VDW>
-21.8938

>  <SCORE.INTER.norm>
-0.398235

>  <SCORE.INTRA>
-3.56409

>  <SCORE.INTRA.DIHEDRAL>
-5.66021

>  <SCORE.INTRA.DIHEDRAL.0>
10.0365

>  <SCORE.INTRA.POLAR>
0

>  <SCORE.INTRA.POLAR.0>
0

>  <SCORE.INTRA.REPUL>
0

>  <SCORE.INTRA.REPUL.0>
0

>  <SCORE.INTRA.SOLV>
0.167522

>  <SCORE.INTRA.SOLV.lig_0>
-48.6728

>  <SCORE.INTRA.VDW>
-0.817748

>  <SCORE.INTRA.VDW.0>
-1.10662

>  <SCORE.INTRA.norm>
-0.132003

>  <SCORE.RESTR>
0

>  <SCORE.RESTR.CAVITY>
0

>  <SCORE.RESTR.norm>
0

>  <SCORE.SYSTEM>
0

>  <SCORE.SYSTEM.CONST>
0

>  <SCORE.SYSTEM.DIHEDRAL>
0

>  <SCORE.SYSTEM.SOLV>
0

>  <SCORE.SYSTEM.norm>
0

>  <SCORE.heavy>
27

>  <SCORE.norm>
-0.530238

>  <RMSD>
12.642

$$$$
ligand
 OpenBabel11021811483D
libRbt.so/2013.1/901 2013/11/27
 27 29  0  0  0  0  0  0  0  0999 V2000
   51.0667   52.3237   25.6715 N   0  0  0  0  0  0  0  0  0  0  0  0
   50.4519   53.6127   25.3282 C   0  0  2  0  0  0  0  0  0  0  0  0
   50.4889   54.4943   26.5402 C   0  0  0  0  0  0  0  0  0  0  0  0
   51.0409   54.1078   27.5580 O   0  0  0  0  0  0  0  0  0  0  0  0
   48.9941   53.4083   24.8895 C   0  0  0  0  0  0  0  0  0  0  0  0
   48.9794   52.8202   23.4816 C   0  0  0  0  0  0  0  0  0  0  0  0
   49.5633   53.9801   22.2045 S   0  0  2  0  0  0  0  0  0  0  0  0
   48.1087   55.0015   21.8154 C   0  0  0  0  0  0  0  0  0  0  0  0
   49.7410   53.1365   20.5913 C   0  0  0  0  0  0  0  0  0  0  0  0
   51.1994   53.3364   20.2592 C   0  0  1  0  0  0  0  0  0  0  0  0
   51.8676   52.6697   21.2789 O   0  0  0  0  0  0  0  0  0  0  0  0
   51.8401   52.7086   19.0205 C   0  0  1  0  0  0  0  0  0  0  0  0
   51.7796   53.5460   17.9016 O   0  0  0  0  0  0  0  0  0  0  0  0
   53.3205   52.4981   19.5991 C   0  0  1  0  0  0  0  0  0  0  0  0
   53.9389   53.6913   20.1025 O   0  0  0  0  0  0  0  0  0  0  0  0
   52.7078   51.6161   20.6626 C   0  0  1  0  0  0  0  0  0  0  0  0
   49.9794   55.6031   26.4982 O   0  0  0  0  0  0  0  0  0  0  0  0
   55.7660   47.7818   21.7645 N   0  0  0  0  0  0  0  0  0  0  0  0
   55.3933   48.2999   20.5931 C   0  0  0  0  0  0  0  0  0  0  0  0
   54.6010   49.3684   20.5171 N   0  0  0  0  0  0  0  0  0  0  0  0
   54.0423   49.8933   21.6158 C   0  0  0  0  0  0  0  0  0  0  0  0
   54.3644   49.3231   22.8885 C   0  0  0  0  0  0  0  0  0  0  0  0
   55.2743   48.2306   22.9123 C   0  0  0  0  0  0  0  0  0  0  0  0
   55.6476   47.6411   24.0874 N   0  0  0  0  0  0  0  0  0  0  0  0
   53.6798   50.0173   23.8184 N   0  0  0  0  0  0  0  0  0  0  0  0
   52.9677   50.9526   23.2295 C   0  0  0  0  0  0  0  0  0  0  0  0
   53.1550   50.9442   21.8690 N   0  0  0  0  0  0  0  0  0  0  0  0
  2  1  1  1  0  0  0
  2  3  1  0  0  0  0
  2  5  1  0  0  0  0
  3  4  1  0  0  0  0
  3 17  1  0  0  0  0
  5  6  1  0  0  0  0
  7  6  1  1  0  0  0
  7  8  1  0  0  0  0
  7  9  1  0  0  0  0
 10  9  1  6  0  0  0
 10 11  1  0  0  0  0
 10 12  1  0  0  0  0
 11 16  1  0  0  0  0
 12 13  1  6  0  0  0
 12 14  1  0  0  0  0
 14 15  1  1  0  0  0
 14 16  1  0  0  0  0
 16 27  1  1  0  0  0
 18 19  2  0  0  0  0
 18 23  1  0  0  0  0
 19 20  1  0  0  0  0
 20 21  2  0  0  0  0
 21 22  1  0  0  0  0
 21 27  1  0  0  0  0
 22 23  2  0  0  0  0
 22 25  1  0  0  0  0
 23 24  1  0  0  0  0
 25 26  2  0  0  0  0
 26 27  1  0  0  0  0
M  END
>  <CHROM.1>
3.78954911,-74.90537635,-68.51231877,-82.79655121,-120.93159791,62.70808216
-177.55521132,52.03073193,52.08706040,22.46523306,-2.84252699,0.80760060
-1.45873889

>  <Name>
ligand

>  <RI>
0

>  <Rbt.Current_Directory>
/home/itssahil/PROJECTS/Mol_Feturizer/New_Systems/rnas/3IQN

>  <Rbt.Executable>
rbdock ($Id: //depot/dev/client3/rdock/2013.1/src/exe/rbdock.cxx#4 $)

>  <Rbt.Library>
libRbt.so (2013.1, Build901 2013/11/27)

>  <Rbt.Parameter_File>
/export/apps/rDock/src/rDock_2013.1_src/data/scripts/dock_solv.prm

>  <Rbt.Receptor>
prm/blind_docking_80.prm

>  <SCORE>
-11.5386

>  <SCORE.INTER>
-10.6228

>  <SCORE.INTER.CONST>
1

>  <SCORE.INTER.POLAR>
0

>  <SCORE.INTER.ROT>
7

>  <SCORE.INTER.SOLV>
14.137

>  <SCORE.INTER.VDW>
-20.0609

>  <SCORE.INTER.norm>
-0.393439

>  <SCORE.INTRA>
-1.41388

>  <SCORE.INTRA.DIHEDRAL>
-0.651293

>  <SCORE.INTRA.DIHEDRAL.0>
10.0365

>  <SCORE.INTRA.POLAR>
0

>  <SCORE.INTRA.POLAR.0>
0

>  <SCORE.INTRA.REPUL>
0

>  <SCORE.INTRA.REPUL.0>
0

>  <SCORE.INTRA.SOLV>
0.242567

>  <SCORE.INTRA.SOLV.lig_0>
-48.6728

>  <SCORE.INTRA.VDW>
-1.20951

>  <SCORE.INTRA.VDW.0>
-1.10662

>  <SCORE.INTRA.norm>
-0.0523658

>  <SCORE.RESTR>
0.498169

>  <SCORE.RESTR.CAVITY>
0.498169

>  <SCORE.RESTR.norm>
0.0184507

>  <SCORE.SYSTEM>
0

>  <SCORE.SYSTEM.CONST>
0

>  <SCORE.SYSTEM.DIHEDRAL>
0

>  <SCORE.SYSTEM.SOLV>
0

>  <SCORE.SYSTEM.norm>
0

>  <SCORE.heavy>
27

>  <SCORE.norm>
-0.427354

>  <RMSD>
12.658

$$$$
ligand
 OpenBabel11021811483D
libRbt.so/2013.1/901 2013/11/27
 27 29  0  0  0  0  0  0  0  0999 V2000
   50.8836   52.0385   24.7058 N   0  0  0  0  0  0  0  0  0  0  0  0
   50.0773   52.9838   23.9225 C   0  0  2  0  0  0  0  0  0  0  0  0
   50.6921   54.3458   24.0426 C   0  0  0  0  0  0  0  0  0  0  0  0
   50.6150   54.9582   25.0957 O   0  0  0  0  0  0  0  0  0  0  0  0
   48.6369   53.0247   24.4545 C   0  0  0  0  0  0  0  0  0  0  0  0
   47.8213   53.9901   23.5995 C   0  0  0  0  0  0  0  0  0  0  0  0
   47.2061   53.2484   22.0539 S   0  0  2  0  0  0  0  0  0  0  0  0
   48.6977   52.9960   21.0430 C   0  0  0  0  0  0  0  0  0  0  0  0
   46.3822   54.5056   21.0116 C   0  0  0  0  0  0  0  0  0  0  0  0
   44.9446   54.0473   20.9944 C   0  0  1  0  0  0  0  0  0  0  0  0
   44.3123   54.9655   20.1651 O   0  0  0  0  0  0  0  0  0  0  0  0
   44.5252   52.7244   20.3517 C   0  0  1  0  0  0  0  0  0  0  0  0
   44.5407   51.6584   21.2574 O   0  0  0  0  0  0  0  0  0  0  0  0
   43.0567   53.1495   19.8687 C   0  0  1  0  0  0  0  0  0  0  0  0
   42.2077   53.6498   20.9120 O   0  0  0  0  0  0  0  0  0  0  0  0
   43.7148   54.2218   19.0312 C   0  0  1  0  0  0  0  0  0  0  0  0
   51.2816   54.8303   23.0894 O   0  0  0  0  0  0  0  0  0  0  0  0
   45.8920   58.2521   16.9611 N   0  0  0  0  0  0  0  0  0  0  0  0
   46.3888   57.2841   17.7329 C   0  0  0  0  0  0  0  0  0  0  0  0
   45.6431   56.2586   18.1421 N   0  0  0  0  0  0  0  0  0  0  0  0
   44.3263   56.2217   17.8982 C   0  0  0  0  0  0  0  0  0  0  0  0
   43.7411   57.2777   17.1293 C   0  0  0  0  0  0  0  0  0  0  0  0
   44.6015   58.3067   16.6569 C   0  0  0  0  0  0  0  0  0  0  0  0
   44.1254   59.3412   15.9013 N   0  0  0  0  0  0  0  0  0  0  0  0
   42.4237   57.0133   17.0309 N   0  0  0  0  0  0  0  0  0  0  0  0
   42.1525   55.8982   17.6727 C   0  0  0  0  0  0  0  0  0  0  0  0
   43.2844   55.3463   18.2204 N   0  0  0  0  0  0  0  0  0  0  0  0
  2  1  1  1  0  0  0
  2  3  1  0  0  0  0
  2  5  1  0  0  0  0
  3  4  1  0  0  0  0
  3 17  1  0  0  0  0
  5  6  1  0  0  0  0
  7  6  1  1  0  0  0
  7  8  1  0  0  0  0
  7  9  1  0  0  0  0
 10  9  1  6  0  0  0
 10 11  1  0  0  0  0
 10 12  1  0  0  0  0
 11 16  1  0  0  0  0
 12 13  1  1  0  0  0
 12 14  1  0  0  0  0
 14 15  1  1  0  0  0
 14 16  1  0  0  0  0
 16 27  1  1  0  0  0
 18 19  2  0  0  0  0
 18 23  1  0  0  0  0
 19 20  1  0  0  0  0
 20 21  2  0  0  0  0
 21 22  1  0  0  0  0
 21 27  1  0  0  0  0
 22 23  2  0  0  0  0
 22 25  1  0  0  0  0
 23 24  1  0  0  0  0
 25 26  2  0  0  0  0
 26 27  1  0  0  0  0
M  END
>  <CHROM.1>
-71.51119186,-178.70874256,82.24034384,-69.24391962,-114.28902096,-177.88924300
56.56049272,46.11476364,54.77219354,20.50763834,-0.78640370,-0.41498019,-0.71276980

>  <Name>
ligand

>  <RI>
0

>  <Rbt.Current_Directory>
/home/itssahil/PROJECTS/Mol_Feturizer/New_Systems/rnas/3IQN

>  <Rbt.Executable>
rbdock ($Id: //depot/dev/client3/rdock/2013.1/src/exe/rbdock.cxx#4 $)

>  <Rbt.Library>
libRbt.so (2013.1, Build901 2013/11/27)

>  <Rbt.Parameter_File>
/export/apps/rDock/src/rDock_2013.1_src/data/scripts/dock_solv.prm

>  <Rbt.Receptor>
prm/blind_docking_80.prm

>  <SCORE>
-7.65909

>  <SCORE.INTER>
-6.49147

>  <SCORE.INTER.CONST>
1

>  <SCORE.INTER.POLAR>
0

>  <SCORE.INTER.ROT>
7

>  <SCORE.INTER.SOLV>
16.7338

>  <SCORE.INTER.VDW>
-18.1722

>  <SCORE.INTER.norm>
-0.240425

>  <SCORE.INTRA>
-1.42126

>  <SCORE.INTRA.DIHEDRAL>
-1.07805

>  <SCORE.INTRA.DIHEDRAL.0>
10.0365

>  <SCORE.INTRA.POLAR>
0

>  <SCORE.INTRA.POLAR.0>
0

>  <SCORE.INTRA.REPUL>
0

>  <SCORE.INTRA.REPUL.0>
0

>  <SCORE.INTRA.SOLV>
-0.584056

>  <SCORE.INTRA.SOLV.lig_0>
-48.6728

>  <SCORE.INTRA.VDW>
-0.590206

>  <SCORE.INTRA.VDW.0>
-1.10662

>  <SCORE.INTRA.norm>
-0.0526393

>  <SCORE.RESTR>
0.253648

>  <SCORE.RESTR.CAVITY>
0.253648

>  <SCORE.RESTR.norm>
0.00939437

>  <SCORE.SYSTEM>
0

>  <SCORE.SYSTEM.CONST>
0

>  <SCORE.SYSTEM.DIHEDRAL>
0

>  <SCORE.SYSTEM.SOLV>
0

>  <SCORE.SYSTEM.norm>
0

>  <SCORE.heavy>
27

>  <SCORE.norm>
-0.28367

>  <RMSD>
12.762

$$$$
ligand
 OpenBabel11021811483D
libRbt.so/2013.1/901 2013/11/27
 27 29  0  0  0  0  0  0  0  0999 V2000
   47.9230   55.0124   20.2566 N   0  0  0  0  0  0  0  0  0  0  0  0
   48.4294   54.0157   21.2092 C   0  0  2  0  0  0  0  0  0  0  0  0
   48.0297   54.4344   22.5920 C   0  0  0  0  0  0  0  0  0  0  0  0
   48.0616   55.6141   22.9045 O   0  0  0  0  0  0  0  0  0  0  0  0
   49.9605   53.9269   21.1247 C   0  0  0  0  0  0  0  0  0  0  0  0
   50.3534   53.4874   19.7173 C   0  0  0  0  0  0  0  0  0  0  0  0
   52.1537   53.4552   19.4432 S   0  0  2  0  0  0  0  0  0  0  0  0
   52.3405   53.0270   17.6848 C   0  0  0  0  0  0  0  0  0  0  0  0
   52.8956   51.9489   20.1689 C   0  0  0  0  0  0  0  0  0  0  0  0
   52.6038   52.0990   21.6418 C   0  0  1  0  0  0  0  0  0  0  0  0
   53.0232   50.8926   22.1890 O   0  0  0  0  0  0  0  0  0  0  0  0
   53.3560   53.1027   22.5169 C   0  0  1  0  0  0  0  0  0  0  0  0
   52.7230   54.3490   22.5706 O   0  0  0  0  0  0  0  0  0  0  0  0
   53.3162   52.2902   23.8986 C   0  0  1  0  0  0  0  0  0  0  0  0
   51.9998   51.9225   24.3361 O   0  0  0  0  0  0  0  0  0  0  0  0
   54.0712   51.1863   23.1945 C   0  0  1  0  0  0  0  0  0  0  0  0
   47.6586   53.5937   23.3959 O   0  0  0  0  0  0  0  0  0  0  0  0
   55.6479   47.2035   20.5639 N   0  0  0  0  0  0  0  0  0  0  0  0
   55.2489   48.4142   20.1709 C   0  0  0  0  0  0  0  0  0  0  0  0
   54.9139   49.3623   21.0450 N   0  0  0  0  0  0  0  0  0  0  0  0
   54.8435   49.0985   22.3566 C   0  0  0  0  0  0  0  0  0  0  0  0
   55.1994   47.7895   22.8132 C   0  0  0  0  0  0  0  0  0  0  0  0
   55.6203   46.8416   21.8402 C   0  0  0  0  0  0  0  0  0  0  0  0
   55.9940   45.5759   22.1952 N   0  0  0  0  0  0  0  0  0  0  0  0
   55.0415   47.7799   24.1512 N   0  0  0  0  0  0  0  0  0  0  0  0
   54.6179   48.9591   24.5499 C   0  0  0  0  0  0  0  0  0  0  0  0
   54.4879   49.8287   23.4951 N   0  0  0  0  0  0  0  0  0  0  0  0
  2  1  1  6  0  0  0
  2  3  1  0  0  0  0
  2  5  1  0  0  0  0
  3  4  1  0  0  0  0
  3 17  1  0  0  0  0
  5  6  1  0  0  0  0
  7  6  1  1  0  0  0
  7  8  1  0  0  0  0
  7  9  1  0  0  0  0
 10  9  1  6  0  0  0
 10 11  1  0  0  0  0
 10 12  1  0  0  0  0
 11 16  1  0  0  0  0
 12 13  1  1  0  0  0
 12 14  1  0  0  0  0
 14 15  1  6  0  0  0
 14 16  1  0  0  0  0
 16 27  1  1  0  0  0
 18 19  2  0  0  0  0
 18 23  1  0  0  0  0
 19 20  1  0  0  0  0
 20 21  2  0  0  0  0
 21 22  1  0  0  0  0
 21 27  1  0  0  0  0
 22 23  2  0  0  0  0
 22 25  1  0  0  0  0
 23 24  1  0  0  0  0
 25 26  2  0  0  0  0
 26 27  1  0  0  0  0
M  END
>  <CHROM.1>
-38.98890020,-61.26717621,175.90152205,-175.96019779,-62.48724814,173.37947577
53.65148941,52.50345761,51.50590580,21.80874400,-2.86450039,-0.78741051,1.81768200

>  <Name>
ligand

>  <RI>
0

>  <Rbt.Current_Directory>
/home/itssahil/PROJECTS/Mol_Feturizer/New_Systems/rnas/3IQN

>  <Rbt.Executable>
rbdock ($Id: //depot/dev/client3/rdock/2013.1/src/exe/rbdock.cxx#4 $)

>  <Rbt.Library>
libRbt.so (2013.1, Build901 2013/11/27)

>  <Rbt.Parameter_File>
/export/apps/rDock/src/rDock_2013.1_src/data/scripts/dock_solv.prm

>  <Rbt.Receptor>
prm/blind_docking_80.prm

>  <SCORE>
-18.0141

>  <SCORE.INTER>
-13.6944

>  <SCORE.INTER.CONST>
1

>  <SCORE.INTER.POLAR>
0

>  <SCORE.INTER.ROT>
7

>  <SCORE.INTER.SOLV>
16.6894

>  <SCORE.INTER.VDW>
-22.9594

>  <SCORE.INTER.norm>
-0.507201

>  <SCORE.INTRA>
-4.32238

>  <SCORE.INTRA.DIHEDRAL>
-6.33533

>  <SCORE.INTRA.DIHEDRAL.0>
10.0365

>  <SCORE.INTRA.POLAR>
0

>  <SCORE.INTRA.POLAR.0>
0

>  <SCORE.INTRA.REPUL>
0

>  <SCORE.INTRA.REPUL.0>
0

>  <SCORE.INTRA.SOLV>
0.095348

>  <SCORE.INTRA.SOLV.lig_0>
-48.6728

>  <SCORE.INTRA.VDW>
-1.20238

>  <SCORE.INTRA.VDW.0>
-1.10662

>  <SCORE.INTRA.norm>
-0.160088

>  <SCORE.RESTR>
0.00266933

>  <SCORE.RESTR.CAVITY>
0.00266933

>  <SCORE.RESTR.norm>
9.88641e-05

>  <SCORE.SYSTEM>
0

>  <SCORE.SYSTEM.CONST>
0

>  <SCORE.SYSTEM.DIHEDRAL>
0

>  <SCORE.SYSTEM.SOLV>
0

>  <SCORE.SYSTEM.norm>
0

>  <SCORE.heavy>
27

>  <SCORE.norm>
-0.66719

>  <RMSD>
12.902

$$$$
ligand
 OpenBabel11021811483D
libRbt.so/2013.1/901 2013/11/27
 27 29  0  0  0  0  0  0  0  0999 V2000
   52.8913   51.7214   16.4220 N   0  0  0  0  0  0  0  0  0  0  0  0
   52.4886   53.0904   16.0744 C   0  0  2  0  0  0  0  0  0  0  0  0
   53.7134   53.8608   15.6825 C   0  0  0  0  0  0  0  0  0  0  0  0
   53.8178   54.3042   14.5499 O   0  0  0  0  0  0  0  0  0  0  0  0
   51.8199   53.7715   17.2779 C   0  0  0  0  0  0  0  0  0  0  0  0
   50.6116   52.9439   17.7060 C   0  0  0  0  0  0  0  0  0  0  0  0
   49.9739   53.3891   19.3530 S   0  0  2  0  0  0  0  0  0  0  0  0
   49.5869   55.1626   19.2289 C   0  0  0  0  0  0  0  0  0  0  0  0
   51.3344   53.4935   20.5712 C   0  0  0  0  0  0  0  0  0  0  0  0
   50.6367   53.2441   21.8858 C   0  0  1  0  0  0  0  0  0  0  0  0
   51.2682   52.1132   22.3887 O   0  0  0  0  0  0  0  0  0  0  0  0
   50.7656   54.2089   23.0654 C   0  0  1  0  0  0  0  0  0  0  0  0
   49.7704   55.1920   23.0666 O   0  0  0  0  0  0  0  0  0  0  0  0
   50.6342   53.1454   24.2581 C   0  0  1  0  0  0  0  0  0  0  0  0
   49.4435   52.3455   24.2148 O   0  0  0  0  0  0  0  0  0  0  0  0
   51.8633   52.4664   23.6991 C   0  0  1  0  0  0  0  0  0  0  0  0
   54.5955   54.0549   16.5042 O   0  0  0  0  0  0  0  0  0  0  0  0
   55.0892   49.5833   21.1396 N   0  0  0  0  0  0  0  0  0  0  0  0
   54.4271   50.6867   20.7880 C   0  0  0  0  0  0  0  0  0  0  0  0
   53.6459   51.3415   21.6462 N   0  0  0  0  0  0  0  0  0  0  0  0
   53.3933   50.8472   22.8655 C   0  0  0  0  0  0  0  0  0  0  0  0
   54.0326   49.6281   23.2575 C   0  0  0  0  0  0  0  0  0  0  0  0
   54.9137   49.0141   22.3253 C   0  0  0  0  0  0  0  0  0  0  0  0
   55.5770   47.8583   22.6283 N   0  0  0  0  0  0  0  0  0  0  0  0
   53.6153   49.3458   24.5071 N   0  0  0  0  0  0  0  0  0  0  0  0
   52.7780   50.2765   24.9091 C   0  0  0  0  0  0  0  0  0  0  0  0
   52.6059   51.2448   23.9506 N   0  0  0  0  0  0  0  0  0  0  0  0
  2  1  1  1  0  0  0
  2  3  1  0  0  0  0
  2  5  1  0  0  0  0
  3  4  1  0  0  0  0
  3 17  1  0  0  0  0
  5  6  1  0  0  0  0
  7  6  1  6  0  0  0
  7  8  1  0  0  0  0
  7  9  1  0  0  0  0
 10  9  1  6  0  0  0
 10 11  1  0  0  0  0
 10 12  1  0  0  0  0
 11 16  1  0  0  0  0
 12 13  1  1  0  0  0
 12 14  1  0  0  0  0
 14 15  1  6  0  0  0
 14 16  1  0  0  0  0
 16 27  1  1  0  0  0
 18 19  2  0  0  0  0
 18 23  1  0  0  0  0
 19 20  1  0  0  0  0
 20 21  2  0  0  0  0
 21 22  1  0  0  0  0
 21 27  1  0  0  0  0
 22 23  2  0  0  0  0
 22 25  1  0  0  0  0
 23 24  1  0  0  0  0
 25 26  2  0  0  0  0
 26 27  1  0  0  0  0
M  END
>  <CHROM.1>
117.26624601,-58.21324043,165.52859859,57.31683612,-155.54093060,120.38608783
49.48020034,52.25098643,52.29289166,20.75843613,-1.62413733,-0.69701769,1.93245366

>  <Name>
ligand

>  <RI>
0

>  <Rbt.Current_Directory>
/home/itssahil/PROJECTS/Mol_Feturizer/New_Systems/rnas/3IQN

>  <Rbt.Executable>
rbdock ($Id: //depot/dev/client3/rdock/2013.1/src/exe/rbdock.cxx#4 $)

>  <Rbt.Library>
libRbt.so (2013.1, Build901 2013/11/27)

>  <Rbt.Parameter_File>
/export/apps/rDock/src/rDock_2013.1_src/data/scripts/dock_solv.prm

>  <Rbt.Receptor>
prm/blind_docking_80.prm

>  <SCORE>
-11.8893

>  <SCORE.INTER>
-12.4831

>  <SCORE.INTER.CONST>
1

>  <SCORE.INTER.POLAR>
0

>  <SCORE.INTER.ROT>
7

>  <SCORE.INTER.SOLV>
18.4198

>  <SCORE.INTER.VDW>
-22.7287

>  <SCORE.INTER.norm>
-0.462337

>  <SCORE.INTRA>
0.593838

>  <SCORE.INTRA.DIHEDRAL>
1.20876

>  <SCORE.INTRA.DIHEDRAL.0>
10.0365

>  <SCORE.INTRA.POLAR>
0

>  <SCORE.INTRA.POLAR.0>
0

>  <SCORE.INTRA.REPUL>
0

>  <SCORE.INTRA.REPUL.0>
0

>  <SCORE.INTRA.SOLV>
-0.228805

>  <SCORE.INTRA.SOLV.lig_0>
-48.6728

>  <SCORE.INTRA.VDW>
0.103862

>  <SCORE.INTRA.VDW.0>
-1.10662

>  <SCORE.INTRA.norm>
0.021994

>  <SCORE.RESTR>
0

>  <SCORE.RESTR.CAVITY>
0

>  <SCORE.RESTR.norm>
0

>  <SCORE.SYSTEM>
0

>  <SCORE.SYSTEM.CONST>
0

>  <SCORE.SYSTEM.DIHEDRAL>
0

>  <SCORE.SYSTEM.SOLV>
0

>  <SCORE.SYSTEM.norm>
0

>  <SCORE.heavy>
27

>  <SCORE.norm>
-0.440343

>  <RMSD>
12.924

$$$$
ligand
 OpenBabel11021811483D
libRbt.so/2013.1/901 2013/11/27
 27 29  0  0  0  0  0  0  0  0999 V2000
   46.1116   59.7244   14.7366 N   0  0  0  0  0  0  0  0  0  0  0  0
   44.8378   59.3411   15.3594 C   0  0  2  0  0  0  0  0  0  0  0  0
   44.3267   60.5068   16.1515 C   0  0  0  0  0  0  0  0  0  0  0  0
   45.1089   61.3347   16.5908 O   0  0  0  0  0  0  0  0  0  0  0  0
   45.0412   58.1387   16.2933 C   0  0  0  0  0  0  0  0  0  0  0  0
   43.6783   57.6540   16.7792 C   0  0  0  0  0  0  0  0  0  0  0  0
   43.6624   55.8976   17.2611 S   0  0  2  0  0  0  0  0  0  0  0  0
   42.0935   55.2565   16.5994 C   0  0  0  0  0  0  0  0  0  0  0  0
   43.2986   55.7154   19.0445 C   0  0  0  0  0  0  0  0  0  0  0  0
   43.6447   54.2725   19.3188 C   0  0  1  0  0  0  0  0  0  0  0  0
   45.0196   54.2921   19.5186 O   0  0  0  0  0  0  0  0  0  0  0  0
   43.1685   53.5527   20.5814 C   0  0  1  0  0  0  0  0  0  0  0  0
   41.9384   52.9112   20.4025 O   0  0  0  0  0  0  0  0  0  0  0  0
   44.4067   52.5508   20.7654 C   0  0  1  0  0  0  0  0  0  0  0  0
   44.6796   51.7247   19.6240 O   0  0  0  0  0  0  0  0  0  0  0  0
   45.2915   53.7709   20.8789 C   0  0  1  0  0  0  0  0  0  0  0  0
   43.1269   60.6313   16.3404 O   0  0  0  0  0  0  0  0  0  0  0  0
   49.0622   52.6208   23.9978 N   0  0  0  0  0  0  0  0  0  0  0  0
   47.7594   52.3395   24.0530 C   0  0  0  0  0  0  0  0  0  0  0  0
   46.9209   52.6983   23.0816 N   0  0  0  0  0  0  0  0  0  0  0  0
   47.3309   53.4686   22.0651 C   0  0  0  0  0  0  0  0  0  0  0  0
   48.7095   53.8487   22.0050 C   0  0  0  0  0  0  0  0  0  0  0  0
   49.5717   53.3734   23.0311 C   0  0  0  0  0  0  0  0  0  0  0  0
   50.9044   53.6760   23.0372 N   0  0  0  0  0  0  0  0  0  0  0  0
   48.8619   54.6145   20.9070 N   0  0  0  0  0  0  0  0  0  0  0  0
   47.7038   54.7398   20.2971 C   0  0  0  0  0  0  0  0  0  0  0  0
   46.7153   54.0445   20.9493 N   0  0  0  0  0  0  0  0  0  0  0  0
  2  1  1  1  0  0  0
  2  3  1  0  0  0  0
  2  5  1  0  0  0  0
  3  4  1  0  0  0  0
  3 17  1  0  0  0  0
  5  6  1  0  0  0  0
  7  6  1  1  0  0  0
  7  8  1  0  0  0  0
  7  9  1  0  0  0  0
 10  9  1  1  0  0  0
 10 11  1  0  0  0  0
 10 12  1  0  0  0  0
 11 16  1  0  0  0  0
 12 13  1  6  0  0  0
 12 14  1  0  0  0  0
 14 15  1  6  0  0  0
 14 16  1  0  0  0  0
 16 27  1  6  0  0  0
 18 19  2  0  0  0  0
 18 23  1  0  0  0  0
 19 20  1  0  0  0  0
 20 21  2  0  0  0  0
 21 22  1  0  0  0  0
 21 27  1  0  0  0  0
 22 23  2  0  0  0  0
 22 25  1  0  0  0  0
 23 24  1  0  0  0  0
 25 26  2  0  0  0  0
 26 27  1  0  0  0  0
M  END
>  <CHROM.1>
-26.10039040,-172.68722923,154.85849783,-138.62642129,-167.16973800,83.17358464
-170.62051743,45.47960982,55.36151266,19.42388966,-2.01360347,0.40998592
2.51587916

>  <Name>
ligand

>  <RI>
0

>  <Rbt.Current_Directory>
/home/itssahil/PROJECTS/Mol_Feturizer/New_Systems/rnas/3IQN

>  <Rbt.Executable>
rbdock ($Id: //depot/dev/client3/rdock/2013.1/src/exe/rbdock.cxx#4 $)

>  <Rbt.Library>
libRbt.so (2013.1, Build901 2013/11/27)

>  <Rbt.Parameter_File>
/export/apps/rDock/src/rDock_2013.1_src/data/scripts/dock_solv.prm

>  <Rbt.Receptor>
prm/blind_docking_80.prm

>  <SCORE>
-17.4695

>  <SCORE.INTER>
-16.9175

>  <SCORE.INTER.CONST>
1

>  <SCORE.INTER.POLAR>
0

>  <SCORE.INTER.ROT>
7

>  <SCORE.INTER.SOLV>
16.8818

>  <SCORE.INTER.VDW>
-25.1723

>  <SCORE.INTER.norm>
-0.626575

>  <SCORE.INTRA>
-0.552025

>  <SCORE.INTRA.DIHEDRAL>
1.98514

>  <SCORE.INTRA.DIHEDRAL.0>
10.0365

>  <SCORE.INTRA.POLAR>
0

>  <SCORE.INTRA.POLAR.0>
0

>  <SCORE.INTRA.REPUL>
0

>  <SCORE.INTRA.REPUL.0>
0

>  <SCORE.INTRA.SOLV>
-1.18896

>  <SCORE.INTRA.SOLV.lig_0>
-48.6728

>  <SCORE.INTRA.VDW>
-0.950115

>  <SCORE.INTRA.VDW.0>
-1.10662

>  <SCORE.INTRA.norm>
-0.0204454

>  <SCORE.RESTR>
0

>  <SCORE.RESTR.CAVITY>
0

>  <SCORE.RESTR.norm>
0

>  <SCORE.SYSTEM>
0

>  <SCORE.SYSTEM.CONST>
0

>  <SCORE.SYSTEM.DIHEDRAL>
0

>  <SCORE.SYSTEM.SOLV>
0

>  <SCORE.SYSTEM.norm>
0

>  <SCORE.heavy>
27

>  <SCORE.norm>
-0.64702

>  <RMSD>
13.068

$$$$
ligand
 OpenBabel11021811483D
libRbt.so/2013.1/901 2013/11/27
 27 29  0  0  0  0  0  0  0  0999 V2000
   43.4599   60.0862   15.0305 N   0  0  0  0  0  0  0  0  0  0  0  0
   44.6369   59.9439   15.8976 C   0  0  2  0  0  0  0  0  0  0  0  0
   45.8217   60.5295   15.1899 C   0  0  0  0  0  0  0  0  0  0  0  0
   46.1819   61.6677   15.4444 O   0  0  0  0  0  0  0  0  0  0  0  0
   44.9024   58.4610   16.1973 C   0  0  0  0  0  0  0  0  0  0  0  0
   43.7208   57.8955   16.9799 C   0  0  0  0  0  0  0  0  0  0  0  0
   43.9060   56.1331   17.4008 S   0  0  2  0  0  0  0  0  0  0  0  0
   42.5708   55.3022   16.4859 C   0  0  0  0  0  0  0  0  0  0  0  0
   43.3150   55.8043   19.1003 C   0  0  0  0  0  0  0  0  0  0  0  0
   43.6620   54.3506   19.3083 C   0  0  1  0  0  0  0  0  0  0  0  0
   45.0373   54.3616   19.5065 O   0  0  0  0  0  0  0  0  0  0  0  0
   43.1882   53.5740   20.5376 C   0  0  1  0  0  0  0  0  0  0  0  0
   41.9580   52.9407   20.3317 O   0  0  0  0  0  0  0  0  0  0  0  0
   44.4270   52.5653   20.6738 C   0  0  1  0  0  0  0  0  0  0  0  0
   44.6982   51.7920   19.4957 O   0  0  0  0  0  0  0  0  0  0  0  0
   45.3116   53.7793   20.8412 C   0  0  1  0  0  0  0  0  0  0  0  0
   46.4313   59.8583   14.3722 O   0  0  0  0  0  0  0  0  0  0  0  0
   49.0406   52.6984   24.0342 N   0  0  0  0  0  0  0  0  0  0  0  0
   47.7362   52.4229   24.0809 C   0  0  0  0  0  0  0  0  0  0  0  0
   46.9107   52.7590   23.0905 N   0  0  0  0  0  0  0  0  0  0  0  0
   47.3355   53.5013   22.0593 C   0  0  0  0  0  0  0  0  0  0  0  0
   48.7161   53.8752   22.0060 C   0  0  0  0  0  0  0  0  0  0  0  0
   49.5643   53.4240   23.0544 C   0  0  0  0  0  0  0  0  0  0  0  0
   50.8979   53.7223   23.0688 N   0  0  0  0  0  0  0  0  0  0  0  0
   48.8843   54.6118   20.8904 N   0  0  0  0  0  0  0  0  0  0  0  0
   47.7341   54.7249   20.2636 C   0  0  0  0  0  0  0  0  0  0  0  0
   46.7354   54.0500   20.9216 N   0  0  0  0  0  0  0  0  0  0  0  0
  2  1  1  6  0  0  0
  2  3  1  0  0  0  0
  2  5  1  0  0  0  0
  3  4  1  0  0  0  0
  3 17  1  0  0  0  0
  5  6  1  0  0  0  0
  7  6  1  6  0  0  0
  7  8  1  0  0  0  0
  7  9  1  0  0  0  0
 10  9  1  1  0  0  0
 10 11  1  0  0  0  0
 10 12  1  0  0  0  0
 11 16  1  0  0  0  0
 12 13  1  6  0  0  0
 12 14  1  0  0  0  0
 14 15  1  6  0  0  0
 14 16  1  0  0  0  0
 16 27  1  6  0  0  0
 18 19  2  0  0  0  0
 18 23  1  0  0  0  0
 19 20  1  0  0  0  0
 20 21  2  0  0  0  0
 21 22  1  0  0  0  0
 21 27  1  0  0  0  0
 22 23  2  0  0  0  0
 22 25  1  0  0  0  0
 23 24  1  0  0  0  0
 25 26  2  0  0  0  0
 26 27  1  0  0  0  0
M  END
>  <CHROM.1>
97.76567651,-63.61082781,179.90576178,-115.31112605,-174.96653680,75.10488333
-174.79385623,45.64403997,55.44491575,19.29480516,-1.91028015,0.38376057
2.44456396

>  <Name>
ligand

>  <RI>
0

>  <Rbt.Current_Directory>
/home/itssahil/PROJECTS/Mol_Feturizer/New_Systems/rnas/3IQN

>  <Rbt.Executable>
rbdock ($Id: //depot/dev/client3/rdock/2013.1/src/exe/rbdock.cxx#4 $)

>  <Rbt.Library>
libRbt.so (2013.1, Build901 2013/11/27)

>  <Rbt.Parameter_File>
/export/apps/rDock/src/rDock_2013.1_src/data/scripts/dock_solv.prm

>  <Rbt.Receptor>
prm/blind_docking_100.prm

>  <SCORE>
-19.5601

>  <SCORE.INTER>
-18.0727

>  <SCORE.INTER.CONST>
1

>  <SCORE.INTER.POLAR>
0

>  <SCORE.INTER.ROT>
7

>  <SCORE.INTER.SOLV>
15.188

>  <SCORE.INTER.VDW>
-25.3778

>  <SCORE.INTER.norm>
-0.669358

>  <SCORE.INTRA>
-1.56858

>  <SCORE.INTRA.DIHEDRAL>
-1.82439

>  <SCORE.INTRA.DIHEDRAL.0>
10.0365

>  <SCORE.INTRA.POLAR>
0

>  <SCORE.INTRA.POLAR.0>
0

>  <SCORE.INTRA.REPUL>
0

>  <SCORE.INTRA.REPUL.0>
0

>  <SCORE.INTRA.SOLV>
-0.516057

>  <SCORE.INTRA.SOLV.lig_0>
-48.6728

>  <SCORE.INTRA.VDW>
-0.39836

>  <SCORE.INTRA.VDW.0>
-1.10662

>  <SCORE.INTRA.norm>
-0.0580957

>  <SCORE.RESTR>
0.0811188

>  <SCORE.RESTR.CAVITY>
0.0811188

>  <SCORE.RESTR.norm>
0.0030044

>  <SCORE.SYSTEM>
0

>  <SCORE.SYSTEM.CONST>
0

>  <SCORE.SYSTEM.DIHEDRAL>
0

>  <SCORE.SYSTEM.SOLV>
0

>  <SCORE.SYSTEM.norm>
0

>  <SCORE.heavy>
27

>  <SCORE.norm>
-0.72445

>  <RMSD>
13.161

$$$$
ligand
 OpenBabel11021811483D
libRbt.so/2013.1/901 2013/11/27
 27 29  0  0  0  0  0  0  0  0999 V2000
   46.9121   53.4231   20.2573 N   0  0  0  0  0  0  0  0  0  0  0  0
   47.4728   53.9601   21.5041 C   0  0  2  0  0  0  0  0  0  0  0  0
   48.1755   55.2473   21.1932 C   0  0  0  0  0  0  0  0  0  0  0  0
   48.3859   56.0567   22.0824 O   0  0  0  0  0  0  0  0  0  0  0  0
   48.4736   52.9652   22.1108 C   0  0  0  0  0  0  0  0  0  0  0  0
   49.0571   53.5666   23.3860 C   0  0  0  0  0  0  0  0  0  0  0  0
   50.4572   52.6172   24.0613 S   0  0  2  0  0  0  0  0  0  0  0  0
   51.4360   53.8414   24.9851 C   0  0  0  0  0  0  0  0  0  0  0  0
   51.6738   52.2310   22.7510 C   0  0  0  0  0  0  0  0  0  0  0  0
   52.5552   51.1911   23.3981 C   0  0  1  0  0  0  0  0  0  0  0  0
   53.0382   50.4504   22.3263 O   0  0  0  0  0  0  0  0  0  0  0  0
   53.8541   51.5642   24.1142 C   0  0  1  0  0  0  0  0  0  0  0  0
   53.6629   51.8165   25.4767 O   0  0  0  0  0  0  0  0  0  0  0  0
   54.6866   50.2286   23.8080 C   0  0  1  0  0  0  0  0  0  0  0  0
   54.0475   49.0168   24.2353 O   0  0  0  0  0  0  0  0  0  0  0  0
   54.5173   50.5392   22.3386 C   0  0  1  0  0  0  0  0  0  0  0  0
   48.5487   55.4734   20.0529 O   0  0  0  0  0  0  0  0  0  0  0  0
   56.1306   46.0036   20.8916 N   0  0  0  0  0  0  0  0  0  0  0  0
   55.9408   46.5225   22.1057 C   0  0  0  0  0  0  0  0  0  0  0  0
   55.4488   47.7488   22.2771 N   0  0  0  0  0  0  0  0  0  0  0  0
   55.2409   48.5617   21.2326 C   0  0  0  0  0  0  0  0  0  0  0  0
   55.4966   48.0646   19.9150 C   0  0  0  0  0  0  0  0  0  0  0  0
   55.9501   46.7225   19.7910 C   0  0  0  0  0  0  0  0  0  0  0  0
   56.2003   46.1662   18.5681 N   0  0  0  0  0  0  0  0  0  0  0  0
   55.2184   49.0629   19.0540 N   0  0  0  0  0  0  0  0  0  0  0  0
   54.8226   50.1218   19.7254 C   0  0  0  0  0  0  0  0  0  0  0  0
   54.7975   49.8788   21.0767 N   0  0  0  0  0  0  0  0  0  0  0  0
  2  1  1  6  0  0  0
  2  3  1  0  0  0  0
  2  5  1  0  0  0  0
  3  4  1  0  0  0  0
  3 17  1  0  0  0  0
  5  6  1  0  0  0  0
  7  6  1  6  0  0  0
  7  8  1  0  0  0  0
  7  9  1  0  0  0  0
 10  9  1  6  0  0  0
 10 11  1  0  0  0  0
 10 12  1  0  0  0  0
 11 16  1  0  0  0  0
 12 13  1  1  0  0  0
 12 14  1  0  0  0  0
 14 15  1  6  0  0  0
 14 16  1  0  0  0  0
 16 27  1  6  0  0  0
 18 19  2  0  0  0  0
 18 23  1  0  0  0  0
 19 20  1  0  0  0  0
 20 21  2  0  0  0  0
 21 22  1  0  0  0  0
 21 27  1  0  0  0  0
 22 23  2  0  0  0  0
 22 25  1  0  0  0  0
 23 24  1  0  0  0  0
 25 26  2  0  0  0  0
 26 27  1  0  0  0  0
M  END
>  <CHROM.1>
159.21817782,178.81547165,-170.47202942,153.60092397,-166.88665172,152.92226674
-102.64546812,52.49057779,51.02917738,22.10664882,2.79964741,-0.70548757
1.25896352

>  <Name>
ligand

>  <RI>
0

>  <Rbt.Current_Directory>
/home/itssahil/PROJECTS/Mol_Feturizer/New_Systems/rnas/3IQN

>  <Rbt.Executable>
rbdock ($Id: //depot/dev/client3/rdock/2013.1/src/exe/rbdock.cxx#4 $)

>  <Rbt.Library>
libRbt.so (2013.1, Build901 2013/11/27)

>  <Rbt.Parameter_File>
/export/apps/rDock/src/rDock_2013.1_src/data/scripts/dock_solv.prm

>  <Rbt.Receptor>
prm/blind_docking_80.prm

>  <SCORE>
-13.8881

>  <SCORE.INTER>
-11.8256

>  <SCORE.INTER.CONST>
1

>  <SCORE.INTER.POLAR>
0

>  <SCORE.INTER.ROT>
7

>  <SCORE.INTER.SOLV>
15.2512

>  <SCORE.INTER.VDW>
-21.2341

>  <SCORE.INTER.norm>
-0.437985

>  <SCORE.INTRA>
-2.06246

>  <SCORE.INTRA.DIHEDRAL>
-2.5083

>  <SCORE.INTRA.DIHEDRAL.0>
10.0365

>  <SCORE.INTRA.POLAR>
0

>  <SCORE.INTRA.POLAR.0>
0

>  <SCORE.INTRA.REPUL>
0

>  <SCORE.INTRA.REPUL.0>
0

>  <SCORE.INTRA.SOLV>
-0.691865

>  <SCORE.INTRA.SOLV.lig_0>
-48.6728

>  <SCORE.INTRA.VDW>
-0.462382

>  <SCORE.INTRA.VDW.0>
-1.10662

>  <SCORE.INTRA.norm>
-0.0763875

>  <SCORE.RESTR>
0

>  <SCORE.RESTR.CAVITY>
0

>  <SCORE.RESTR.norm>
0

>  <SCORE.SYSTEM>
0

>  <SCORE.SYSTEM.CONST>
0

>  <SCORE.SYSTEM.DIHEDRAL>
0

>  <SCORE.SYSTEM.SOLV>
0

>  <SCORE.SYSTEM.norm>
0

>  <SCORE.heavy>
27

>  <SCORE.norm>
-0.514373

>  <RMSD>
13.207

$$$$
ligand
 OpenBabel11021811483D
libRbt.so/2013.1/901 2013/11/27
 27 29  0  0  0  0  0  0  0  0999 V2000
   50.1346   52.7988   27.2961 N   0  0  0  0  0  0  0  0  0  0  0  0
   49.8423   52.3695   25.9222 C   0  0  2  0  0  0  0  0  0  0  0  0
   50.3167   50.9573   25.7547 C   0  0  0  0  0  0  0  0  0  0  0  0
   51.4086   50.6260   26.1884 O   0  0  0  0  0  0  0  0  0  0  0  0
   50.5670   53.2747   24.9149 C   0  0  0  0  0  0  0  0  0  0  0  0
   50.0078   53.0095   23.5202 C   0  0  0  0  0  0  0  0  0  0  0  0
   51.1575   53.4569   22.1803 S   0  0  2  0  0  0  0  0  0  0  0  0
   50.0892   53.7249   20.7321 C   0  0  0  0  0  0  0  0  0  0  0  0
   52.0623   51.9846   21.5805 C   0  0  0  0  0  0  0  0  0  0  0  0
   52.6919   51.4344   22.8366 C   0  0  1  0  0  0  0  0  0  0  0  0
   53.2403   50.2237   22.4315 O   0  0  0  0  0  0  0  0  0  0  0  0
   53.8982   52.1040   23.4966 C   0  0  1  0  0  0  0  0  0  0  0  0
   53.5280   53.0521   24.4563 O   0  0  0  0  0  0  0  0  0  0  0  0
   54.5930   50.7942   24.1069 C   0  0  1  0  0  0  0  0  0  0  0  0
   53.7464   50.0154   24.9650 O   0  0  0  0  0  0  0  0  0  0  0  0
   54.6982   50.2719   22.6925 C   0  0  1  0  0  0  0  0  0  0  0  0
   49.6006   50.1398   25.1981 O   0  0  0  0  0  0  0  0  0  0  0  0
   55.3525   48.6842   17.9681 N   0  0  0  0  0  0  0  0  0  0  0  0
   54.9486   49.8599   18.4520 C   0  0  0  0  0  0  0  0  0  0  0  0
   54.8908   50.0988   19.7615 N   0  0  0  0  0  0  0  0  0  0  0  0
   55.1170   49.1237   20.6520 C   0  0  0  0  0  0  0  0  0  0  0  0
   55.4880   47.8278   20.1708 C   0  0  0  0  0  0  0  0  0  0  0  0
   55.6058   47.6534   18.7644 C   0  0  0  0  0  0  0  0  0  0  0  0
   55.9727   46.4527   18.2246 N   0  0  0  0  0  0  0  0  0  0  0  0
   55.6517   47.0366   21.2490 N   0  0  0  0  0  0  0  0  0  0  0  0
   55.4096   47.7290   22.3402 C   0  0  0  0  0  0  0  0  0  0  0  0
   55.0881   49.0316   22.0471 N   0  0  0  0  0  0  0  0  0  0  0  0
  2  1  1  1  0  0  0
  2  3  1  0  0  0  0
  2  5  1  0  0  0  0
  3  4  1  0  0  0  0
  3 17  1  0  0  0  0
  5  6  1  0  0  0  0
  7  6  1  1  0  0  0
  7  8  1  0  0  0  0
  7  9  1  0  0  0  0
 10  9  1  6  0  0  0
 10 11  1  0  0  0  0
 10 12  1  0  0  0  0
 11 16  1  0  0  0  0
 12 13  1  1  0  0  0
 12 14  1  0  0  0  0
 14 15  1  1  0  0  0
 14 16  1  0  0  0  0
 16 27  1  1  0  0  0
 18 19  2  0  0  0  0
 18 23  1  0  0  0  0
 19 20  1  0  0  0  0
 20 21  2  0  0  0  0
 21 22  1  0  0  0  0
 21 27  1  0  0  0  0
 22 23  2  0  0  0  0
 22 25  1  0  0  0  0
 23 24  1  0  0  0  0
 25 26  2  0  0  0  0
 26 27  1  0  0  0  0
M  END
>  <CHROM.1>
-44.21262117,-167.51947271,-156.52911378,-156.97336693,-55.21688927,172.64910572
76.27588130,52.98917298,50.70101296,22.57870710,-2.67541743,0.86019927,-1.26575102

>  <Name>
ligand

>  <RI>
0

>  <Rbt.Current_Directory>
/home/itssahil/PROJECTS/Mol_Feturizer/New_Systems/rnas/3IQN

>  <Rbt.Executable>
rbdock ($Id: //depot/dev/client3/rdock/2013.1/src/exe/rbdock.cxx#4 $)

>  <Rbt.Library>
libRbt.so (2013.1, Build901 2013/11/27)

>  <Rbt.Parameter_File>
/export/apps/rDock/src/rDock_2013.1_src/data/scripts/dock_solv.prm

>  <Rbt.Receptor>
prm/blind_docking_100.prm

>  <SCORE>
-19.6753

>  <SCORE.INTER>
-15.4857

>  <SCORE.INTER.CONST>
1

>  <SCORE.INTER.POLAR>
0

>  <SCORE.INTER.ROT>
7

>  <SCORE.INTER.SOLV>
10.9155

>  <SCORE.INTER.VDW>
-22.229

>  <SCORE.INTER.norm>
-0.573546

>  <SCORE.INTRA>
-4.19361

>  <SCORE.INTRA.DIHEDRAL>
-1.84704

>  <SCORE.INTRA.DIHEDRAL.0>
10.0365

>  <SCORE.INTRA.POLAR>
0

>  <SCORE.INTRA.POLAR.0>
0

>  <SCORE.INTRA.REPUL>
0

>  <SCORE.INTRA.REPUL.0>
0

>  <SCORE.INTRA.SOLV>
-0.371131

>  <SCORE.INTRA.SOLV.lig_0>
-48.6728

>  <SCORE.INTRA.VDW>
-3.08453

>  <SCORE.INTRA.VDW.0>
-1.10662

>  <SCORE.INTRA.norm>
-0.155319

>  <SCORE.RESTR>
0.00400658

>  <SCORE.RESTR.CAVITY>
0.00400658

>  <SCORE.RESTR.norm>
0.000148392

>  <SCORE.SYSTEM>
0

>  <SCORE.SYSTEM.CONST>
0

>  <SCORE.SYSTEM.DIHEDRAL>
0

>  <SCORE.SYSTEM.SOLV>
0

>  <SCORE.SYSTEM.norm>
0

>  <SCORE.heavy>
27

>  <SCORE.norm>
-0.728716

>  <RMSD>
13.211

$$$$
ligand
 OpenBabel11021811483D
libRbt.so/2013.1/901 2013/11/27
 27 29  0  0  0  0  0  0  0  0999 V2000
   54.2467   48.9806   24.1155 N   0  0  0  0  0  0  0  0  0  0  0  0
   53.9787   50.0341   23.1278 C   0  0  2  0  0  0  0  0  0  0  0  0
   55.0261   49.9596   22.0578 C   0  0  0  0  0  0  0  0  0  0  0  0
   56.2086   49.9728   22.3609 O   0  0  0  0  0  0  0  0  0  0  0  0
   54.0280   51.4165   23.7956 C   0  0  0  0  0  0  0  0  0  0  0  0
   52.8557   51.5395   24.7646 C   0  0  0  0  0  0  0  0  0  0  0  0
   51.5427   52.6566   24.1769 S   0  0  2  0  0  0  0  0  0  0  0  0
   50.0012   51.9171   24.7994 C   0  0  0  0  0  0  0  0  0  0  0  0
   51.2481   52.4291   22.3860 C   0  0  0  0  0  0  0  0  0  0  0  0
   50.1369   53.4077   22.0948 C   0  0  1  0  0  0  0  0  0  0  0  0
   50.6045   54.1268   21.0016 O   0  0  0  0  0  0  0  0  0  0  0  0
   48.7681   52.9499   21.5891 C   0  0  1  0  0  0  0  0  0  0  0  0
   47.8678   52.6979   22.6297 O   0  0  0  0  0  0  0  0  0  0  0  0
   48.3996   54.2348   20.7038 C   0  0  1  0  0  0  0  0  0  0  0  0
   48.4330   55.4796   21.4171 O   0  0  0  0  0  0  0  0  0  0  0  0
   49.6407   53.9477   19.8904 C   0  0  1  0  0  0  0  0  0  0  0  0
   54.6908   49.8702   20.8872 O   0  0  0  0  0  0  0  0  0  0  0  0
   52.6841   52.4939   16.1631 N   0  0  0  0  0  0  0  0  0  0  0  0
   52.0698   51.7952   17.1191 C   0  0  0  0  0  0  0  0  0  0  0  0
   51.2496   52.3733   17.9956 N   0  0  0  0  0  0  0  0  0  0  0  0
   51.1047   53.7047   18.0316 C   0  0  0  0  0  0  0  0  0  0  0  0
   51.8006   54.4969   17.0637 C   0  0  0  0  0  0  0  0  0  0  0  0
   52.6031   53.8171   16.1066 C   0  0  0  0  0  0  0  0  0  0  0  0
   53.2856   54.4983   15.1381 N   0  0  0  0  0  0  0  0  0  0  0  0
   51.4963   55.7854   17.3136 N   0  0  0  0  0  0  0  0  0  0  0  0
   50.6848   55.8507   18.3460 C   0  0  0  0  0  0  0  0  0  0  0  0
   50.3879   54.6007   18.8310 N   0  0  0  0  0  0  0  0  0  0  0  0
  2  1  1  1  0  0  0
  2  3  1  0  0  0  0
  2  5  1  0  0  0  0
  3  4  1  0  0  0  0
  3 17  1  0  0  0  0
  5  6  1  0  0  0  0
  7  6  1  1  0  0  0
  7  8  1  0  0  0  0
  7  9  1  0  0  0  0
 10  9  1  6  0  0  0
 10 11  1  0  0  0  0
 10 12  1  0  0  0  0
 11 16  1  0  0  0  0
 12 13  1  1  0  0  0
 12 14  1  0  0  0  0
 14 15  1  1  0  0  0
 14 16  1  0  0  0  0
 16 27  1  6  0  0  0
 18 19  2  0  0  0  0
 18 23  1  0  0  0  0
 19 20  1  0  0  0  0
 20 21  2  0  0  0  0
 21 22  1  0  0  0  0
 21 27  1  0  0  0  0
 22 23  2  0  0  0  0
 22 25  1  0  0  0  0
 23 24  1  0  0  0  0
 25 26  2  0  0  0  0
 26 27  1  0  0  0  0
M  END
>  <CHROM.1>
-53.04987884,-67.35759618,-107.39704758,145.91925838,179.28670219,129.17994459
96.99010233,51.65751018,52.74532864,20.78659297,-1.25982254,0.56191931,-1.23776292

>  <Name>
ligand

>  <RI>
0

>  <Rbt.Current_Directory>
/home/itssahil/PROJECTS/Mol_Feturizer/New_Systems/rnas/3IQN

>  <Rbt.Executable>
rbdock ($Id: //depot/dev/client3/rdock/2013.1/src/exe/rbdock.cxx#4 $)

>  <Rbt.Library>
libRbt.so (2013.1, Build901 2013/11/27)

>  <Rbt.Parameter_File>
/export/apps/rDock/src/rDock_2013.1_src/data/scripts/dock_solv.prm

>  <Rbt.Receptor>
prm/blind_docking_100.prm

>  <SCORE>
-11.972

>  <SCORE.INTER>
-12.9946

>  <SCORE.INTER.CONST>
1

>  <SCORE.INTER.POLAR>
0

>  <SCORE.INTER.ROT>
7

>  <SCORE.INTER.SOLV>
15.6346

>  <SCORE.INTER.VDW>
-22.1413

>  <SCORE.INTER.norm>
-0.481282

>  <SCORE.INTRA>
1.02263

>  <SCORE.INTRA.DIHEDRAL>
4.72722

>  <SCORE.INTRA.DIHEDRAL.0>
10.0365

>  <SCORE.INTRA.POLAR>
0

>  <SCORE.INTRA.POLAR.0>
0

>  <SCORE.INTRA.REPUL>
0

>  <SCORE.INTRA.REPUL.0>
0

>  <SCORE.INTRA.SOLV>
-0.23435

>  <SCORE.INTRA.SOLV.lig_0>
-48.6728

>  <SCORE.INTRA.VDW>
-1.22381

>  <SCORE.INTRA.VDW.0>
-1.10662

>  <SCORE.INTRA.norm>
0.0378751

>  <SCORE.RESTR>
0

>  <SCORE.RESTR.CAVITY>
0

>  <SCORE.RESTR.norm>
0

>  <SCORE.SYSTEM>
0

>  <SCORE.SYSTEM.CONST>
0

>  <SCORE.SYSTEM.DIHEDRAL>
0

>  <SCORE.SYSTEM.SOLV>
0

>  <SCORE.SYSTEM.norm>
0

>  <SCORE.heavy>
27

>  <SCORE.norm>
-0.443407

>  <RMSD>
13.212

$$$$
ligand
 OpenBabel11021811483D
libRbt.so/2013.1/901 2013/11/27
 27 29  0  0  0  0  0  0  0  0999 V2000
   55.0265   57.2543   15.4450 N   0  0  0  0  0  0  0  0  0  0  0  0
   53.7857   56.9753   14.7102 C   0  0  2  0  0  0  0  0  0  0  0  0
   53.2792   58.2606   14.1281 C   0  0  0  0  0  0  0  0  0  0  0  0
   52.5902   58.2433   13.1205 O   0  0  0  0  0  0  0  0  0  0  0  0
   52.7260   56.3900   15.6556 C   0  0  0  0  0  0  0  0  0  0  0  0
   53.2322   55.0582   16.2018 C   0  0  0  0  0  0  0  0  0  0  0  0
   51.9860   54.1511   17.1722 S   0  0  2  0  0  0  0  0  0  0  0  0
   50.6055   53.8931   16.0155 C   0  0  0  0  0  0  0  0  0  0  0  0
   51.1444   55.2651   18.3540 C   0  0  0  0  0  0  0  0  0  0  0  0
   50.1400   54.3589   19.0227 C   0  0  1  0  0  0  0  0  0  0  0  0
   50.9197   53.3575   19.5883 O   0  0  0  0  0  0  0  0  0  0  0  0
   49.3166   54.8146   20.2282 C   0  0  1  0  0  0  0  0  0  0  0  0
   48.0985   55.3946   19.8585 O   0  0  0  0  0  0  0  0  0  0  0  0
   49.1684   53.3980   20.9643 C   0  0  1  0  0  0  0  0  0  0  0  0
   48.5942   52.3623   20.1537 O   0  0  0  0  0  0  0  0  0  0  0  0
   50.6769   53.3596   21.0501 C   0  0  1  0  0  0  0  0  0  0  0  0
   53.5457   59.3195   14.6745 O   0  0  0  0  0  0  0  0  0  0  0  0
   52.1928   51.2706   25.3636 N   0  0  0  0  0  0  0  0  0  0  0  0
   51.2544   52.1848   25.1122 C   0  0  0  0  0  0  0  0  0  0  0  0
   50.9666   52.5737   23.8707 N   0  0  0  0  0  0  0  0  0  0  0  0
   51.6964   52.1536   22.8288 C   0  0  0  0  0  0  0  0  0  0  0  0
   52.7573   51.2224   23.0653 C   0  0  0  0  0  0  0  0  0  0  0  0
   52.9689   50.7867   24.4023 C   0  0  0  0  0  0  0  0  0  0  0  0
   53.9492   49.8857   24.7102 N   0  0  0  0  0  0  0  0  0  0  0  0
   53.3320   50.9655   21.8740 N   0  0  0  0  0  0  0  0  0  0  0  0
   52.7230   51.6575   20.9364 C   0  0  0  0  0  0  0  0  0  0  0  0
   51.6914   52.4027   21.4527 N   0  0  0  0  0  0  0  0  0  0  0  0
  2  1  1  1  0  0  0
  2  3  1  0  0  0  0
  2  5  1  0  0  0  0
  3  4  1  0  0  0  0
  3 17  1  0  0  0  0
  5  6  1  0  0  0  0
  7  6  1  6  0  0  0
  7  8  1  0  0  0  0
  7  9  1  0  0  0  0
 10  9  1  1  0  0  0
 10 11  1  0  0  0  0
 10 12  1  0  0  0  0
 11 16  1  0  0  0  0
 12 13  1  6  0  0  0
 12 14  1  0  0  0  0
 14 15  1  6  0  0  0
 14 16  1  0  0  0  0
 16 27  1  6  0  0  0
 18 19  2  0  0  0  0
 18 23  1  0  0  0  0
 19 20  1  0  0  0  0
 20 21  2  0  0  0  0
 21 22  1  0  0  0  0
 21 27  1  0  0  0  0
 22 23  2  0  0  0  0
 22 25  1  0  0  0  0
 23 24  1  0  0  0  0
 25 26  2  0  0  0  0
 26 27  1  0  0  0  0
M  END
>  <CHROM.1>
153.29813006,-62.76032592,-172.66729261,59.13016981,178.37924376,58.89656922
-178.52768744,51.76552396,54.04608985,19.39026517,-1.46677180,-0.09454213
2.16131462

>  <Name>
ligand

>  <RI>
0

>  <Rbt.Current_Directory>
/home/itssahil/PROJECTS/Mol_Feturizer/New_Systems/rnas/3IQN

>  <Rbt.Executable>
rbdock ($Id: //depot/dev/client3/rdock/2013.1/src/exe/rbdock.cxx#4 $)

>  <Rbt.Library>
libRbt.so (2013.1, Build901 2013/11/27)

>  <Rbt.Parameter_File>
/export/apps/rDock/src/rDock_2013.1_src/data/scripts/dock_solv.prm

>  <Rbt.Receptor>
prm/blind_docking_100.prm

>  <SCORE>
-14.9035

>  <SCORE.INTER>
-11.7414

>  <SCORE.INTER.CONST>
1

>  <SCORE.INTER.POLAR>
0

>  <SCORE.INTER.ROT>
7

>  <SCORE.INTER.SOLV>
14.1083

>  <SCORE.INTER.VDW>
-20.797

>  <SCORE.INTER.norm>
-0.434867

>  <SCORE.INTRA>
-3.16211

>  <SCORE.INTRA.DIHEDRAL>
-6.64379

>  <SCORE.INTRA.DIHEDRAL.0>
10.0365

>  <SCORE.INTRA.POLAR>
0

>  <SCORE.INTRA.POLAR.0>
0

>  <SCORE.INTRA.REPUL>
0

>  <SCORE.INTRA.REPUL.0>
0

>  <SCORE.INTRA.SOLV>
-0.444747

>  <SCORE.INTRA.SOLV.lig_0>
-48.6728

>  <SCORE.INTRA.VDW>
0.382155

>  <SCORE.INTRA.VDW.0>
-1.10662

>  <SCORE.INTRA.norm>
-0.117115

>  <SCORE.RESTR>
0

>  <SCORE.RESTR.CAVITY>
0

>  <SCORE.RESTR.norm>
0

>  <SCORE.SYSTEM>
0

>  <SCORE.SYSTEM.CONST>
0

>  <SCORE.SYSTEM.DIHEDRAL>
0

>  <SCORE.SYSTEM.SOLV>
0

>  <SCORE.SYSTEM.norm>
0

>  <SCORE.heavy>
27

>  <SCORE.norm>
-0.551983

>  <RMSD>
13.445

$$$$
ligand
 OpenBabel11021811483D
libRbt.so/2013.1/901 2013/11/27
 27 29  0  0  0  0  0  0  0  0999 V2000
   48.4346   55.4269   24.3696 N   0  0  0  0  0  0  0  0  0  0  0  0
   49.0179   54.2806   23.6604 C   0  0  2  0  0  0  0  0  0  0  0  0
   47.9270   53.2920   23.3775 C   0  0  0  0  0  0  0  0  0  0  0  0
   47.7279   52.9151   22.2336 O   0  0  0  0  0  0  0  0  0  0  0  0
   50.1002   53.6143   24.5229 C   0  0  0  0  0  0  0  0  0  0  0  0
   50.7071   52.4513   23.7435 C   0  0  0  0  0  0  0  0  0  0  0  0
   51.7808   52.9799   22.3705 S   0  0  2  0  0  0  0  0  0  0  0  0
   50.6311   53.3681   21.0148 C   0  0  0  0  0  0  0  0  0  0  0  0
   52.6201   51.5432   21.6105 C   0  0  0  0  0  0  0  0  0  0  0  0
   53.2448   50.8462   22.7941 C   0  0  1  0  0  0  0  0  0  0  0  0
   53.6595   49.6238   22.2799 O   0  0  0  0  0  0  0  0  0  0  0  0
   54.5345   51.3519   23.4422 C   0  0  1  0  0  0  0  0  0  0  0  0
   54.2945   52.2560   24.4822 O   0  0  0  0  0  0  0  0  0  0  0  0
   55.1262   49.9424   23.9259 C   0  0  1  0  0  0  0  0  0  0  0  0
   54.2448   49.1828   24.7661 O   0  0  0  0  0  0  0  0  0  0  0  0
   55.1247   49.5190   22.4751 C   0  0  1  0  0  0  0  0  0  0  0  0
   47.2517   52.8558   24.2966 O   0  0  0  0  0  0  0  0  0  0  0  0
   55.2807   48.2009   17.6267 N   0  0  0  0  0  0  0  0  0  0  0  0
   55.0045   49.3675   18.2116 C   0  0  0  0  0  0  0  0  0  0  0  0
   55.0692   49.5241   19.5332 N   0  0  0  0  0  0  0  0  0  0  0  0
   55.2933   48.4799   20.3421 C   0  0  0  0  0  0  0  0  0  0  0  0
   55.5282   47.1957   19.7555 C   0  0  0  0  0  0  0  0  0  0  0  0
   55.5200   47.1056   18.3363 C   0  0  0  0  0  0  0  0  0  0  0  0
   55.7532   45.9202   17.6974 N   0  0  0  0  0  0  0  0  0  0  0  0
   55.7187   46.3267   20.7673 N   0  0  0  0  0  0  0  0  0  0  0  0
   55.6163   46.9616   21.9141 C   0  0  0  0  0  0  0  0  0  0  0  0
   55.3693   48.2994   21.7268 N   0  0  0  0  0  0  0  0  0  0  0  0
  2  1  1  1  0  0  0
  2  3  1  0  0  0  0
  2  5  1  0  0  0  0
  3  4  1  0  0  0  0
  3 17  1  0  0  0  0
  5  6  1  0  0  0  0
  7  6  1  1  0  0  0
  7  8  1  0  0  0  0
  7  9  1  0  0  0  0
 10  9  1  6  0  0  0
 10 11  1  0  0  0  0
 10 12  1  0  0  0  0
 11 16  1  0  0  0  0
 12 13  1  1  0  0  0
 12 14  1  0  0  0  0
 14 15  1  1  0  0  0
 14 16  1  0  0  0  0
 16 27  1  1  0  0  0
 18 19  2  0  0  0  0
 18 23  1  0  0  0  0
 19 20  1  0  0  0  0
 20 21  2  0  0  0  0
 21 22  1  0  0  0  0
 21 27  1  0  0  0  0
 22 23  2  0  0  0  0
 22 25  1  0  0  0  0
 23 24  1  0  0  0  0
 25 26  2  0  0  0  0
 26 27  1  0  0  0  0
M  END
>  <CHROM.1>
124.92484802,-178.62564711,72.36499122,-81.35990339,-51.87061915,168.72420317
73.66349377,52.84171094,50.66613868,21.99366753,2.51599453,-0.59766330,1.22269131

>  <Name>
ligand

>  <RI>
0

>  <Rbt.Current_Directory>
/home/itssahil/PROJECTS/Mol_Feturizer/New_Systems/rnas/3IQN

>  <Rbt.Executable>
rbdock ($Id: //depot/dev/client3/rdock/2013.1/src/exe/rbdock.cxx#4 $)

>  <Rbt.Library>
libRbt.so (2013.1, Build901 2013/11/27)

>  <Rbt.Parameter_File>
/export/apps/rDock/src/rDock_2013.1_src/data/scripts/dock_solv.prm

>  <Rbt.Receptor>
prm/blind_docking_80.prm

>  <SCORE>
-17.7174

>  <SCORE.INTER>
-13.3849

>  <SCORE.INTER.CONST>
1

>  <SCORE.INTER.POLAR>
0

>  <SCORE.INTER.ROT>
7

>  <SCORE.INTER.SOLV>
18.1404

>  <SCORE.INTER.VDW>
-23.2367

>  <SCORE.INTER.norm>
-0.495736

>  <SCORE.INTRA>
-4.33249

>  <SCORE.INTRA.DIHEDRAL>
-4.98156

>  <SCORE.INTRA.DIHEDRAL.0>
10.0365

>  <SCORE.INTRA.POLAR>
0

>  <SCORE.INTRA.POLAR.0>
0

>  <SCORE.INTRA.REPUL>
0

>  <SCORE.INTRA.REPUL.0>
0

>  <SCORE.INTRA.SOLV>
-0.605003

>  <SCORE.INTRA.SOLV.lig_0>
-48.6728

>  <SCORE.INTRA.VDW>
-1.53921

>  <SCORE.INTRA.VDW.0>
-1.10662

>  <SCORE.INTRA.norm>
-0.160463

>  <SCORE.RESTR>
0

>  <SCORE.RESTR.CAVITY>
0

>  <SCORE.RESTR.norm>
0

>  <SCORE.SYSTEM>
0

>  <SCORE.SYSTEM.CONST>
0

>  <SCORE.SYSTEM.DIHEDRAL>
0

>  <SCORE.SYSTEM.SOLV>
0

>  <SCORE.SYSTEM.norm>
0

>  <SCORE.heavy>
27

>  <SCORE.norm>
-0.656198

>  <RMSD>
13.546

$$$$
ligand
 OpenBabel11021811483D
libRbt.so/2013.1/901 2013/11/27
 27 29  0  0  0  0  0  0  0  0999 V2000
   55.9026   60.4513   18.9455 N   0  0  0  0  0  0  0  0  0  0  0  0
   54.5490   60.3576   18.3831 C   0  0  2  0  0  0  0  0  0  0  0  0
   53.5598   60.6038   19.4823 C   0  0  0  0  0  0  0  0  0  0  0  0
   53.9379   61.0524   20.5528 O   0  0  0  0  0  0  0  0  0  0  0  0
   54.3142   58.9612   17.7878 C   0  0  0  0  0  0  0  0  0  0  0  0
   54.4954   57.9184   18.8868 C   0  0  0  0  0  0  0  0  0  0  0  0
   54.0862   56.2251   18.3550 S   0  0  2  0  0  0  0  0  0  0  0  0
   55.1446   55.9337   16.9040 C   0  0  0  0  0  0  0  0  0  0  0  0
   52.4606   56.1810   17.5175 C   0  0  0  0  0  0  0  0  0  0  0  0
   52.1468   54.7063   17.4565 C   0  0  1  0  0  0  0  0  0  0  0  0
   51.9307   54.3567   18.7839 O   0  0  0  0  0  0  0  0  0  0  0  0
   50.8729   54.1772   16.7960 C   0  0  1  0  0  0  0  0  0  0  0  0
   51.0511   53.8897   15.4387 O   0  0  0  0  0  0  0  0  0  0  0  0
   50.6494   52.8818   17.7140 C   0  0  1  0  0  0  0  0  0  0  0  0
   51.7667   51.9823   17.7576 O   0  0  0  0  0  0  0  0  0  0  0  0
   50.5549   53.8180   18.8967 C   0  0  1  0  0  0  0  0  0  0  0  0
   52.3763   60.3688   19.2959 O   0  0  0  0  0  0  0  0  0  0  0  0
   52.9075   51.1598   22.4560 N   0  0  0  0  0  0  0  0  0  0  0  0
   53.0427   51.1641   21.1289 C   0  0  0  0  0  0  0  0  0  0  0  0
   52.3478   51.9961   20.3541 N   0  0  0  0  0  0  0  0  0  0  0  0
   51.3894   52.7791   20.8670 C   0  0  0  0  0  0  0  0  0  0  0  0
   51.1668   52.7545   22.2807 C   0  0  0  0  0  0  0  0  0  0  0  0
   51.9904   51.9007   23.0649 C   0  0  0  0  0  0  0  0  0  0  0  0
   51.8544   51.8319   24.4230 N   0  0  0  0  0  0  0  0  0  0  0  0
   50.1618   53.6139   22.5387 N   0  0  0  0  0  0  0  0  0  0  0  0
   49.7491   54.1546   21.4135 C   0  0  0  0  0  0  0  0  0  0  0  0
   50.4738   53.6960   20.3409 N   0  0  0  0  0  0  0  0  0  0  0  0
  2  1  1  1  0  0  0
  2  3  1  0  0  0  0
  2  5  1  0  0  0  0
  3  4  1  0  0  0  0
  3 17  1  0  0  0  0
  5  6  1  0  0  0  0
  7  6  1  6  0  0  0
  7  8  1  0  0  0  0
  7  9  1  0  0  0  0
 10  9  1  1  0  0  0
 10 11  1  0  0  0  0
 10 12  1  0  0  0  0
 11 16  1  0  0  0  0
 12 13  1  6  0  0  0
 12 14  1  0  0  0  0
 14 15  1  1  0  0  0
 14 16  1  0  0  0  0
 16 27  1  1  0  0  0
 18 19  2  0  0  0  0
 18 23  1  0  0  0  0
 19 20  1  0  0  0  0
 20 21  2  0  0  0  0
 21 22  1  0  0  0  0
 21 27  1  0  0  0  0
 22 23  2  0  0  0  0
 22 25  1  0  0  0  0
 23 24  1  0  0  0  0
 25 26  2  0  0  0  0
 26 27  1  0  0  0  0
M  END
>  <CHROM.1>
12.40175423,59.20609854,174.37933131,56.04682773,-166.85504590,68.43959221
-63.65839351,52.50967278,55.26557881,19.42189793,-0.34584651,1.20634142,1.61428192

>  <Name>
ligand

>  <RI>
0

>  <Rbt.Current_Directory>
/home/itssahil/PROJECTS/Mol_Feturizer/New_Systems/rnas/3IQN

>  <Rbt.Executable>
rbdock ($Id: //depot/dev/client3/rdock/2013.1/src/exe/rbdock.cxx#4 $)

>  <Rbt.Library>
libRbt.so (2013.1, Build901 2013/11/27)

>  <Rbt.Parameter_File>
/export/apps/rDock/src/rDock_2013.1_src/data/scripts/dock_solv.prm

>  <Rbt.Receptor>
prm/blind_docking_100.prm

>  <SCORE>
-15.3654

>  <SCORE.INTER>
-13.1044

>  <SCORE.INTER.CONST>
1

>  <SCORE.INTER.POLAR>
0

>  <SCORE.INTER.ROT>
7

>  <SCORE.INTER.SOLV>
10.3155

>  <SCORE.INTER.VDW>
-20.4415

>  <SCORE.INTER.norm>
-0.485349

>  <SCORE.INTRA>
-2.28534

>  <SCORE.INTRA.DIHEDRAL>
-5.59116

>  <SCORE.INTRA.DIHEDRAL.0>
10.0365

>  <SCORE.INTRA.POLAR>
0

>  <SCORE.INTRA.POLAR.0>
0

>  <SCORE.INTRA.REPUL>
0

>  <SCORE.INTRA.REPUL.0>
0

>  <SCORE.INTRA.SOLV>
-0.171029

>  <SCORE.INTRA.SOLV.lig_0>
-48.6728

>  <SCORE.INTRA.VDW>
0.595757

>  <SCORE.INTRA.VDW.0>
-1.10662

>  <SCORE.INTRA.norm>
-0.0846422

>  <SCORE.RESTR>
0.0243203

>  <SCORE.RESTR.CAVITY>
0.0243203

>  <SCORE.RESTR.norm>
0.00090075

>  <SCORE.SYSTEM>
0

>  <SCORE.SYSTEM.CONST>
0

>  <SCORE.SYSTEM.DIHEDRAL>
0

>  <SCORE.SYSTEM.SOLV>
0

>  <SCORE.SYSTEM.norm>
0

>  <SCORE.heavy>
27

>  <SCORE.norm>
-0.56909

>  <RMSD>
13.758

$$$$
ligand
 OpenBabel11021811483D
libRbt.so/2013.1/901 2013/11/27
 27 29  0  0  0  0  0  0  0  0999 V2000
   54.7041   60.0191   17.1465 N   0  0  0  0  0  0  0  0  0  0  0  0
   54.1999   58.6429   17.2419 C   0  0  2  0  0  0  0  0  0  0  0  0
   53.0668   58.6191   18.2231 C   0  0  0  0  0  0  0  0  0  0  0  0
   52.9518   59.5163   19.0428 O   0  0  0  0  0  0  0  0  0  0  0  0
   55.3124   57.6994   17.7232 C   0  0  0  0  0  0  0  0  0  0  0  0
   55.2736   56.4228   16.8884 C   0  0  0  0  0  0  0  0  0  0  0  0
   53.8614   55.3416   17.2812 S   0  0  2  0  0  0  0  0  0  0  0  0
   54.0646   54.9477   19.0458 C   0  0  0  0  0  0  0  0  0  0  0  0
   54.1164   53.6640   16.5982 C   0  0  0  0  0  0  0  0  0  0  0  0
   52.7363   53.0567   16.6580 C   0  0  1  0  0  0  0  0  0  0  0  0
   52.6385   52.5795   17.9593 O   0  0  0  0  0  0  0  0  0  0  0  0
   51.4718   53.9109   16.5562 C   0  0  1  0  0  0  0  0  0  0  0  0
   51.0250   54.0542   15.2384 O   0  0  0  0  0  0  0  0  0  0  0  0
   50.5087   53.0211   17.4790 C   0  0  1  0  0  0  0  0  0  0  0  0
   50.3885   51.6513   17.0683 O   0  0  0  0  0  0  0  0  0  0  0  0
   51.4875   53.2510   18.6074 C   0  0  1  0  0  0  0  0  0  0  0  0
   52.2538   57.7088   18.1875 O   0  0  0  0  0  0  0  0  0  0  0  0
   49.4157   54.1457   23.0991 N   0  0  0  0  0  0  0  0  0  0  0  0
   49.1847   54.6861   21.9016 C   0  0  0  0  0  0  0  0  0  0  0  0
   49.8163   54.2651   20.8066 N   0  0  0  0  0  0  0  0  0  0  0  0
   50.8046   53.3637   20.8830 C   0  0  0  0  0  0  0  0  0  0  0  0
   51.1291   52.8083   22.1616 C   0  0  0  0  0  0  0  0  0  0  0  0
   50.3699   53.2422   23.2830 C   0  0  0  0  0  0  0  0  0  0  0  0
   50.6044   52.7477   24.5352 N   0  0  0  0  0  0  0  0  0  0  0  0
   52.1449   51.9437   21.9717 N   0  0  0  0  0  0  0  0  0  0  0  0
   52.4715   51.9257   20.6983 C   0  0  0  0  0  0  0  0  0  0  0  0
   51.6738   52.7682   19.9635 N   0  0  0  0  0  0  0  0  0  0  0  0
  2  1  1  1  0  0  0
  2  3  1  0  0  0  0
  2  5  1  0  0  0  0
  3  4  1  0  0  0  0
  3 17  1  0  0  0  0
  5  6  1  0  0  0  0
  7  6  1  6  0  0  0
  7  8  1  0  0  0  0
  7  9  1  0  0  0  0
 10  9  1  1  0  0  0
 10 11  1  0  0  0  0
 10 12  1  0  0  0  0
 11 16  1  0  0  0  0
 12 13  1  6  0  0  0
 12 14  1  0  0  0  0
 14 15  1  6  0  0  0
 14 16  1  0  0  0  0
 16 27  1  1  0  0  0
 18 19  2  0  0  0  0
 18 23  1  0  0  0  0
 19 20  1  0  0  0  0
 20 21  2  0  0  0  0
 21 22  1  0  0  0  0
 21 27  1  0  0  0  0
 22 23  2  0  0  0  0
 22 25  1  0  0  0  0
 23 24  1  0  0  0  0
 25 26  2  0  0  0  0
 26 27  1  0  0  0  0
M  END
>  <CHROM.1>
-20.30006318,-136.60744222,-72.66936105,-59.37277480,-164.20563139,-83.99550456
172.97771630,52.24446991,54.73085053,18.95276787,-0.02154219,1.08852525,0.81907097

>  <Name>
ligand

>  <RI>
0

>  <Rbt.Current_Directory>
/home/itssahil/PROJECTS/Mol_Feturizer/New_Systems/rnas/3IQN

>  <Rbt.Executable>
rbdock ($Id: //depot/dev/client3/rdock/2013.1/src/exe/rbdock.cxx#4 $)

>  <Rbt.Library>
libRbt.so (2013.1, Build901 2013/11/27)

>  <Rbt.Parameter_File>
/export/apps/rDock/src/rDock_2013.1_src/data/scripts/dock_solv.prm

>  <Rbt.Receptor>
prm/blind_docking_100.prm

>  <SCORE>
-10.2875

>  <SCORE.INTER>
-10.3787

>  <SCORE.INTER.CONST>
1

>  <SCORE.INTER.POLAR>
0

>  <SCORE.INTER.ROT>
7

>  <SCORE.INTER.SOLV>
11.1563

>  <SCORE.INTER.VDW>
-18.9046

>  <SCORE.INTER.norm>
-0.384398

>  <SCORE.INTRA>
0.0813849

>  <SCORE.INTRA.DIHEDRAL>
1.64927

>  <SCORE.INTRA.DIHEDRAL.0>
10.0365

>  <SCORE.INTRA.POLAR>
0

>  <SCORE.INTRA.POLAR.0>
0

>  <SCORE.INTRA.REPUL>
0

>  <SCORE.INTRA.REPUL.0>
0

>  <SCORE.INTRA.SOLV>
-0.601641

>  <SCORE.INTRA.SOLV.lig_0>
-48.6728

>  <SCORE.INTRA.VDW>
-0.442431

>  <SCORE.INTRA.VDW.0>
-1.10662

>  <SCORE.INTRA.norm>
0.00301426

>  <SCORE.RESTR>
0.00982884

>  <SCORE.RESTR.CAVITY>
0.00982884

>  <SCORE.RESTR.norm>
0.000364031

>  <SCORE.SYSTEM>
0

>  <SCORE.SYSTEM.CONST>
0

>  <SCORE.SYSTEM.DIHEDRAL>
0

>  <SCORE.SYSTEM.SOLV>
0

>  <SCORE.SYSTEM.norm>
0

>  <SCORE.heavy>
27

>  <SCORE.norm>
-0.38102

>  <RMSD>
13.775

$$$$
ligand
 OpenBabel11021811483D
libRbt.so/2013.1/901 2013/11/27
 27 29  0  0  0  0  0  0  0  0999 V2000
   55.8262   48.6774   23.3686 N   0  0  0  0  0  0  0  0  0  0  0  0
   54.7964   48.7945   22.3277 C   0  0  2  0  0  0  0  0  0  0  0  0
   55.3716   48.3036   21.0333 C   0  0  0  0  0  0  0  0  0  0  0  0
   56.2036   47.4103   21.0363 O   0  0  0  0  0  0  0  0  0  0  0  0
   54.3611   50.2592   22.1705 C   0  0  0  0  0  0  0  0  0  0  0  0
   53.4896   50.6465   23.3616 C   0  0  0  0  0  0  0  0  0  0  0  0
   52.4789   52.1331   23.0681 S   0  0  2  0  0  0  0  0  0  0  0  0
   51.0914   51.9799   24.2351 C   0  0  0  0  0  0  0  0  0  0  0  0
   51.5375   51.9822   21.5070 C   0  0  0  0  0  0  0  0  0  0  0  0
   50.6017   53.1650   21.5559 C   0  0  1  0  0  0  0  0  0  0  0  0
   51.0757   54.0061   20.5567 O   0  0  0  0  0  0  0  0  0  0  0  0
   49.1262   53.0451   21.1719 C   0  0  1  0  0  0  0  0  0  0  0  0
   48.3100   52.7353   22.2649 O   0  0  0  0  0  0  0  0  0  0  0  0
   48.9097   54.5249   20.5941 C   0  0  1  0  0  0  0  0  0  0  0  0
   49.2477   55.5774   21.5093 O   0  0  0  0  0  0  0  0  0  0  0  0
   49.9834   54.2133   19.5770 C   0  0  1  0  0  0  0  0  0  0  0  0
   54.9928   48.7896   19.9793 O   0  0  0  0  0  0  0  0  0  0  0  0
   52.9705   53.0227   15.7133 N   0  0  0  0  0  0  0  0  0  0  0  0
   52.3633   52.2585   16.6225 C   0  0  0  0  0  0  0  0  0  0  0  0
   51.5579   52.7746   17.5500 N   0  0  0  0  0  0  0  0  0  0  0  0
   51.4227   54.1005   17.6868 C   0  0  0  0  0  0  0  0  0  0  0  0
   52.1121   54.9584   16.7716 C   0  0  0  0  0  0  0  0  0  0  0  0
   52.8981   54.3470   15.7564 C   0  0  0  0  0  0  0  0  0  0  0  0
   53.5732   55.0942   14.8326 N   0  0  0  0  0  0  0  0  0  0  0  0
   51.8198   56.2265   17.1205 N   0  0  0  0  0  0  0  0  0  0  0  0
   51.0215   56.2197   18.1652 C   0  0  0  0  0  0  0  0  0  0  0  0
   50.7220   54.9388   18.5596 N   0  0  0  0  0  0  0  0  0  0  0  0
  2  1  1  1  0  0  0
  2  3  1  0  0  0  0
  2  5  1  0  0  0  0
  3  4  1  0  0  0  0
  3 17  1  0  0  0  0
  5  6  1  0  0  0  0
  7  6  1  1  0  0  0
  7  8  1  0  0  0  0
  7  9  1  0  0  0  0
 10  9  1  6  0  0  0
 10 11  1  0  0  0  0
 10 12  1  0  0  0  0
 11 16  1  0  0  0  0
 12 13  1  1  0  0  0
 12 14  1  0  0  0  0
 14 15  1  1  0  0  0
 14 16  1  0  0  0  0
 16 27  1  6  0  0  0
 18 19  2  0  0  0  0
 18 23  1  0  0  0  0
 19 20  1  0  0  0  0
 20 21  2  0  0  0  0
 21 22  1  0  0  0  0
 21 27  1  0  0  0  0
 22 23  2  0  0  0  0
 22 25  1  0  0  0  0
 23 24  1  0  0  0  0
 25 26  2  0  0  0  0
 26 27  1  0  0  0  0
M  END
>  <CHROM.1>
32.13805475,-73.96942775,-161.50173011,156.60104314,170.57243598,110.67680773
83.50865073,52.15808097,52.52774395,20.17053869,-0.97553012,0.71592732,-1.10514806

>  <Name>
ligand

>  <RI>
0

>  <Rbt.Current_Directory>
/home/itssahil/PROJECTS/Mol_Feturizer/New_Systems/rnas/3IQN

>  <Rbt.Executable>
rbdock ($Id: //depot/dev/client3/rdock/2013.1/src/exe/rbdock.cxx#4 $)

>  <Rbt.Library>
libRbt.so (2013.1, Build901 2013/11/27)

>  <Rbt.Parameter_File>
/export/apps/rDock/src/rDock_2013.1_src/data/scripts/dock_solv.prm

>  <Rbt.Receptor>
prm/blind_docking_80.prm

>  <SCORE>
-14.1017

>  <SCORE.INTER>
-14.3182

>  <SCORE.INTER.CONST>
1

>  <SCORE.INTER.POLAR>
0

>  <SCORE.INTER.ROT>
7

>  <SCORE.INTER.SOLV>
13.9154

>  <SCORE.INTER.VDW>
-22.4506

>  <SCORE.INTER.norm>
-0.530303

>  <SCORE.INTRA>
0.21648

>  <SCORE.INTRA.DIHEDRAL>
0.378422

>  <SCORE.INTRA.DIHEDRAL.0>
10.0365

>  <SCORE.INTRA.POLAR>
0

>  <SCORE.INTRA.POLAR.0>
0

>  <SCORE.INTRA.REPUL>
0

>  <SCORE.INTRA.REPUL.0>
0

>  <SCORE.INTRA.SOLV>
-0.42813

>  <SCORE.INTRA.SOLV.lig_0>
-48.6728

>  <SCORE.INTRA.VDW>
0.241334

>  <SCORE.INTRA.VDW.0>
-1.10662

>  <SCORE.INTRA.norm>
0.00801779

>  <SCORE.RESTR>
0

>  <SCORE.RESTR.CAVITY>
0

>  <SCORE.RESTR.norm>
0

>  <SCORE.SYSTEM>
0

>  <SCORE.SYSTEM.CONST>
0

>  <SCORE.SYSTEM.DIHEDRAL>
0

>  <SCORE.SYSTEM.SOLV>
0

>  <SCORE.SYSTEM.norm>
0

>  <SCORE.heavy>
27

>  <SCORE.norm>
-0.522285

>  <RMSD>
13.809

$$$$
ligand
 OpenBabel11021811483D
libRbt.so/2013.1/901 2013/11/27
 27 29  0  0  0  0  0  0  0  0999 V2000
   53.0141   54.6669   24.8024 N   0  0  0  0  0  0  0  0  0  0  0  0
   51.6046   54.5193   24.4166 C   0  0  2  0  0  0  0  0  0  0  0  0
   50.7832   54.3798   25.6629 C   0  0  0  0  0  0  0  0  0  0  0  0
   51.1448   53.6223   26.5492 O   0  0  0  0  0  0  0  0  0  0  0  0
   51.4194   53.2714   23.5403 C   0  0  0  0  0  0  0  0  0  0  0  0
   52.0998   53.5066   22.1949 C   0  0  0  0  0  0  0  0  0  0  0  0
   52.1601   52.0210   21.1428 S   0  0  2  0  0  0  0  0  0  0  0  0
   53.6002   51.0894   21.7500 C   0  0  0  0  0  0  0  0  0  0  0  0
   52.7868   52.4306   19.4739 C   0  0  0  0  0  0  0  0  0  0  0  0
   51.6991   53.3088   18.9057 C   0  0  1  0  0  0  0  0  0  0  0  0
   52.2496   54.5841   18.9386 O   0  0  0  0  0  0  0  0  0  0  0  0
   51.2604   53.2092   17.4440 C   0  0  1  0  0  0  0  0  0  0  0  0
   50.2111   52.3029   17.2586 O   0  0  0  0  0  0  0  0  0  0  0  0
   50.8478   54.7415   17.2146 C   0  0  1  0  0  0  0  0  0  0  0  0
   49.8725   55.2413   18.1412 O   0  0  0  0  0  0  0  0  0  0  0  0
   52.2749   55.1072   17.5524 C   0  0  1  0  0  0  0  0  0  0  0  0
   49.7626   55.0375   25.7923 O   0  0  0  0  0  0  0  0  0  0  0  0
   53.6871   59.0740   14.8068 N   0  0  0  0  0  0  0  0  0  0  0  0
   53.0106   57.9728   14.4765 C   0  0  0  0  0  0  0  0  0  0  0  0
   52.6877   57.0485   15.3802 N   0  0  0  0  0  0  0  0  0  0  0  0
   53.1392   57.1261   16.6391 C   0  0  0  0  0  0  0  0  0  0  0  0
   53.9262   58.2604   17.0169 C   0  0  0  0  0  0  0  0  0  0  0  0
   54.1755   59.2512   16.0278 C   0  0  0  0  0  0  0  0  0  0  0  0
   54.9027   60.3729   16.3119 N   0  0  0  0  0  0  0  0  0  0  0  0
   54.2558   58.0999   18.3134 N   0  0  0  0  0  0  0  0  0  0  0  0
   53.7472   56.9717   18.7574 C   0  0  0  0  0  0  0  0  0  0  0  0
   53.0312   56.3249   17.7802 N   0  0  0  0  0  0  0  0  0  0  0  0
  2  1  1  1  0  0  0
  2  3  1  0  0  0  0
  2  5  1  0  0  0  0
  3  4  1  0  0  0  0
  3 17  1  0  0  0  0
  5  6  1  0  0  0  0
  7  6  1  1  0  0  0
  7  8  1  0  0  0  0
  7  9  1  0  0  0  0
 10  9  1  6  0  0  0
 10 11  1  0  0  0  0
 10 12  1  0  0  0  0
 11 16  1  0  0  0  0
 12 13  1  1  0  0  0
 12 14  1  0  0  0  0
 14 15  1  1  0  0  0
 14 16  1  0  0  0  0
 16 27  1  1  0  0  0
 18 19  2  0  0  0  0
 18 23  1  0  0  0  0
 19 20  1  0  0  0  0
 20 21  2  0  0  0  0
 21 22  1  0  0  0  0
 21 27  1  0  0  0  0
 22 23  2  0  0  0  0
 22 25  1  0  0  0  0
 23 24  1  0  0  0  0
 25 26  2  0  0  0  0
 26 27  1  0  0  0  0
M  END
>  <CHROM.1>
-46.02375348,-68.55984684,171.89486858,-82.21417411,-66.58045783,106.29604213
-175.10304939,52.28393928,55.07567516,19.66961764,-2.21399917,-1.23437351
-1.68583754

>  <Name>
ligand

>  <RI>
0

>  <Rbt.Current_Directory>
/home/itssahil/PROJECTS/Mol_Feturizer/New_Systems/rnas/3IQN

>  <Rbt.Executable>
rbdock ($Id: //depot/dev/client3/rdock/2013.1/src/exe/rbdock.cxx#4 $)

>  <Rbt.Library>
libRbt.so (2013.1, Build901 2013/11/27)

>  <Rbt.Parameter_File>
/export/apps/rDock/src/rDock_2013.1_src/data/scripts/dock_solv.prm

>  <Rbt.Receptor>
prm/blind_docking_100.prm

>  <SCORE>
-13.6482

>  <SCORE.INTER>
-11.2181

>  <SCORE.INTER.CONST>
1

>  <SCORE.INTER.POLAR>
0

>  <SCORE.INTER.ROT>
7

>  <SCORE.INTER.SOLV>
13.5973

>  <SCORE.INTER.VDW>
-20.2778

>  <SCORE.INTER.norm>
-0.415486

>  <SCORE.INTRA>
-2.43011

>  <SCORE.INTRA.DIHEDRAL>
-1.38928

>  <SCORE.INTRA.DIHEDRAL.0>
10.0365

>  <SCORE.INTRA.POLAR>
0

>  <SCORE.INTRA.POLAR.0>
0

>  <SCORE.INTRA.REPUL>
0

>  <SCORE.INTRA.REPUL.0>
0

>  <SCORE.INTRA.SOLV>
-0.510421

>  <SCORE.INTRA.SOLV.lig_0>
-48.6728

>  <SCORE.INTRA.VDW>
-1.48026

>  <SCORE.INTRA.VDW.0>
-1.10662

>  <SCORE.INTRA.norm>
-0.090004

>  <SCORE.RESTR>
0

>  <SCORE.RESTR.CAVITY>
0

>  <SCORE.RESTR.norm>
0

>  <SCORE.SYSTEM>
0

>  <SCORE.SYSTEM.CONST>
0

>  <SCORE.SYSTEM.DIHEDRAL>
0

>  <SCORE.SYSTEM.SOLV>
0

>  <SCORE.SYSTEM.norm>
0

>  <SCORE.heavy>
27

>  <SCORE.norm>
-0.50549

>  <RMSD>
13.895

$$$$
ligand
 OpenBabel11021811483D
libRbt.so/2013.1/901 2013/11/27
 27 29  0  0  0  0  0  0  0  0999 V2000
   55.5756   60.5828   17.2699 N   0  0  0  0  0  0  0  0  0  0  0  0
   56.0351   59.3084   17.8374 C   0  0  2  0  0  0  0  0  0  0  0  0
   57.4622   59.0946   17.4310 C   0  0  0  0  0  0  0  0  0  0  0  0
   57.8242   59.3853   16.3021 O   0  0  0  0  0  0  0  0  0  0  0  0
   55.1750   58.1494   17.3115 C   0  0  0  0  0  0  0  0  0  0  0  0
   55.5571   56.8731   18.0554 C   0  0  0  0  0  0  0  0  0  0  0  0
   54.6815   55.3933   17.4545 S   0  0  2  0  0  0  0  0  0  0  0  0
   55.0368   55.3451   15.6707 C   0  0  0  0  0  0  0  0  0  0  0  0
   52.8797   55.6953   17.3635 C   0  0  0  0  0  0  0  0  0  0  0  0
   52.3112   54.3136   17.1526 C   0  0  1  0  0  0  0  0  0  0  0  0
   52.1810   53.8070   18.4399 O   0  0  0  0  0  0  0  0  0  0  0  0
   50.9019   54.0946   16.6003 C   0  0  1  0  0  0  0  0  0  0  0  0
   50.8818   53.9896   15.2056 O   0  0  0  0  0  0  0  0  0  0  0  0
   50.5573   52.7271   17.3631 C   0  0  1  0  0  0  0  0  0  0  0  0
   51.5006   51.6682   17.1435 O   0  0  0  0  0  0  0  0  0  0  0  0
   50.7528   53.4786   18.6597 C   0  0  1  0  0  0  0  0  0  0  0  0
   58.2606   58.6444   18.2377 O   0  0  0  0  0  0  0  0  0  0  0  0
   47.5416   53.5471   22.5265 N   0  0  0  0  0  0  0  0  0  0  0  0
   47.3892   53.9078   21.2513 C   0  0  0  0  0  0  0  0  0  0  0  0
   48.3660   53.7599   20.3573 N   0  0  0  0  0  0  0  0  0  0  0  0
   49.5883   53.3577   20.7302 C   0  0  0  0  0  0  0  0  0  0  0  0
   49.8115   53.0248   22.1043 C   0  0  0  0  0  0  0  0  0  0  0  0
   48.7103   53.1316   22.9977 C   0  0  0  0  0  0  0  0  0  0  0  0
   48.8350   52.8156   24.3214 N   0  0  0  0  0  0  0  0  0  0  0  0
   51.1034   52.6600   22.2188 N   0  0  0  0  0  0  0  0  0  0  0  0
   51.6877   52.7453   21.0441 C   0  0  0  0  0  0  0  0  0  0  0  0
   50.8066   53.1557   20.0739 N   0  0  0  0  0  0  0  0  0  0  0  0
  2  1  1  6  0  0  0
  2  3  1  0  0  0  0
  2  5  1  0  0  0  0
  3  4  1  0  0  0  0
  3 17  1  0  0  0  0
  5  6  1  0  0  0  0
  7  6  1  1  0  0  0
  7  8  1  0  0  0  0
  7  9  1  0  0  0  0
 10  9  1  1  0  0  0
 10 11  1  0  0  0  0
 10 12  1  0  0  0  0
 11 16  1  0  0  0  0
 12 13  1  6  0  0  0
 12 14  1  0  0  0  0
 14 15  1  6  0  0  0
 14 16  1  0  0  0  0
 16 27  1  1  0  0  0
 18 19  2  0  0  0  0
 18 23  1  0  0  0  0
 19 20  1  0  0  0  0
 20 21  2  0  0  0  0
 21 22  1  0  0  0  0
 21 27  1  0  0  0  0
 22 23  2  0  0  0  0
 22 25  1  0  0  0  0
 23 24  1  0  0  0  0
 25 26  2  0  0  0  0
 26 27  1  0  0  0  0
M  END
>  <CHROM.1>
-40.03758164,-172.67094745,-176.39942601,55.18119150,-168.05043508,85.85697209
153.84888178,52.48895449,55.04672723,18.76244573,-0.21662787,0.72479723,1.21813715

>  <Name>
ligand

>  <RI>
0

>  <Rbt.Current_Directory>
/home/itssahil/PROJECTS/Mol_Feturizer/New_Systems/rnas/3IQN

>  <Rbt.Executable>
rbdock ($Id: //depot/dev/client3/rdock/2013.1/src/exe/rbdock.cxx#4 $)

>  <Rbt.Library>
libRbt.so (2013.1, Build901 2013/11/27)

>  <Rbt.Parameter_File>
/export/apps/rDock/src/rDock_2013.1_src/data/scripts/dock_solv.prm

>  <Rbt.Receptor>
prm/blind_docking_100.prm

>  <SCORE>
-14.816

>  <SCORE.INTER>
-11.677

>  <SCORE.INTER.CONST>
1

>  <SCORE.INTER.POLAR>
0

>  <SCORE.INTER.ROT>
7

>  <SCORE.INTER.SOLV>
8.24683

>  <SCORE.INTER.VDW>
-18.8003

>  <SCORE.INTER.norm>
-0.43248

>  <SCORE.INTRA>
-3.13904

>  <SCORE.INTRA.DIHEDRAL>
-3.6973

>  <SCORE.INTRA.DIHEDRAL.0>
10.0365

>  <SCORE.INTRA.POLAR>
0

>  <SCORE.INTRA.POLAR.0>
0

>  <SCORE.INTRA.REPUL>
0

>  <SCORE.INTRA.REPUL.0>
0

>  <SCORE.INTRA.SOLV>
-1.2098

>  <SCORE.INTRA.SOLV.lig_0>
-48.6728

>  <SCORE.INTRA.VDW>
-0.68549

>  <SCORE.INTRA.VDW.0>
-1.10662

>  <SCORE.INTRA.norm>
-0.116261

>  <SCORE.RESTR>
0

>  <SCORE.RESTR.CAVITY>
0

>  <SCORE.RESTR.norm>
0

>  <SCORE.SYSTEM>
0

>  <SCORE.SYSTEM.CONST>
0

>  <SCORE.SYSTEM.DIHEDRAL>
0

>  <SCORE.SYSTEM.SOLV>
0

>  <SCORE.SYSTEM.norm>
0

>  <SCORE.heavy>
27

>  <SCORE.norm>
-0.548741

>  <RMSD>
14.180

$$$$
ligand
 OpenBabel11021811483D
libRbt.so/2013.1/901 2013/11/27
 27 29  0  0  0  0  0  0  0  0999 V2000
   53.7782   60.5672   18.3300 N   0  0  0  0  0  0  0  0  0  0  0  0
   54.7521   59.4787   18.4848 C   0  0  2  0  0  0  0  0  0  0  0  0
   55.5660   59.7412   19.7161 C   0  0  0  0  0  0  0  0  0  0  0  0
   56.0678   60.8401   19.8918 O   0  0  0  0  0  0  0  0  0  0  0  0
   55.6803   59.4156   17.2626 C   0  0  0  0  0  0  0  0  0  0  0  0
   54.8378   59.1728   16.0139 C   0  0  0  0  0  0  0  0  0  0  0  0
   54.1140   57.5030   15.9403 S   0  0  2  0  0  0  0  0  0  0  0  0
   53.0616   57.5262   14.4563 C   0  0  0  0  0  0  0  0  0  0  0  0
   52.8020   57.3063   17.1995 C   0  0  0  0  0  0  0  0  0  0  0  0
   52.6453   55.8088   17.2998 C   0  0  1  0  0  0  0  0  0  0  0  0
   51.7059   55.6392   18.3094 O   0  0  0  0  0  0  0  0  0  0  0  0
   52.0251   54.9834   16.1715 C   0  0  1  0  0  0  0  0  0  0  0  0
   52.9780   54.5215   15.2574 O   0  0  0  0  0  0  0  0  0  0  0  0
   51.3593   53.8273   17.0608 C   0  0  1  0  0  0  0  0  0  0  0  0
   52.2744   53.1395   17.9263 O   0  0  0  0  0  0  0  0  0  0  0  0
   50.5497   54.9077   17.7401 C   0  0  1  0  0  0  0  0  0  0  0  0
   55.7104   58.8577   20.5464 O   0  0  0  0  0  0  0  0  0  0  0  0
   50.2470   52.8902   22.3343 N   0  0  0  0  0  0  0  0  0  0  0  0
   51.1245   52.7010   21.3477 C   0  0  0  0  0  0  0  0  0  0  0  0
   51.0569   53.3845   20.2059 N   0  0  0  0  0  0  0  0  0  0  0  0
   50.0273   54.2029   19.9509 C   0  0  0  0  0  0  0  0  0  0  0  0
   49.0273   54.3820   20.9592 C   0  0  0  0  0  0  0  0  0  0  0  0
   49.1930   53.6827   22.1863 C   0  0  0  0  0  0  0  0  0  0  0  0
   48.2929   53.8128   23.2064 N   0  0  0  0  0  0  0  0  0  0  0  0
   48.1118   55.2363   20.4620 N   0  0  0  0  0  0  0  0  0  0  0  0
   48.4590   55.5891   19.2439 C   0  0  0  0  0  0  0  0  0  0  0  0
   49.6414   55.0000   18.8686 N   0  0  0  0  0  0  0  0  0  0  0  0
  2  1  1  6  0  0  0
  2  3  1  0  0  0  0
  2  5  1  0  0  0  0
  3  4  1  0  0  0  0
  3 17  1  0  0  0  0
  5  6  1  0  0  0  0
  7  6  1  1  0  0  0
  7  8  1  0  0  0  0
  7  9  1  0  0  0  0
 10  9  1  6  0  0  0
 10 11  1  0  0  0  0
 10 12  1  0  0  0  0
 11 16  1  0  0  0  0
 12 13  1  6  0  0  0
 12 14  1  0  0  0  0
 14 15  1  1  0  0  0
 14 16  1  0  0  0  0
 16 27  1  1  0  0  0
 18 19  2  0  0  0  0
 18 23  1  0  0  0  0
 19 20  1  0  0  0  0
 20 21  2  0  0  0  0
 21 22  1  0  0  0  0
 21 27  1  0  0  0  0
 22 23  2  0  0  0  0
 22 25  1  0  0  0  0
 23 24  1  0  0  0  0
 25 26  2  0  0  0  0
 26 27  1  0  0  0  0
M  END
>  <CHROM.1>
-49.15866254,-59.74479537,-69.81575069,175.29552443,-162.40821819,176.66595104
-71.14921940,52.22522607,56.19688303,18.56551451,-0.18944822,0.84712556,1.26501689

>  <Name>
ligand

>  <RI>
0

>  <Rbt.Current_Directory>
/home/itssahil/PROJECTS/Mol_Feturizer/New_Systems/rnas/3IQN

>  <Rbt.Executable>
rbdock ($Id: //depot/dev/client3/rdock/2013.1/src/exe/rbdock.cxx#4 $)

>  <Rbt.Library>
libRbt.so (2013.1, Build901 2013/11/27)

>  <Rbt.Parameter_File>
/export/apps/rDock/src/rDock_2013.1_src/data/scripts/dock_solv.prm

>  <Rbt.Receptor>
prm/blind_docking_100.prm

>  <SCORE>
-13.9287

>  <SCORE.INTER>
-11.0461

>  <SCORE.INTER.CONST>
1

>  <SCORE.INTER.POLAR>
0

>  <SCORE.INTER.ROT>
7

>  <SCORE.INTER.SOLV>
9.28213

>  <SCORE.INTER.VDW>
-18.7248

>  <SCORE.INTER.norm>
-0.409116

>  <SCORE.INTRA>
-2.88558

>  <SCORE.INTRA.DIHEDRAL>
-5.05641

>  <SCORE.INTRA.DIHEDRAL.0>
10.0365

>  <SCORE.INTRA.POLAR>
0

>  <SCORE.INTRA.POLAR.0>
0

>  <SCORE.INTRA.REPUL>
0

>  <SCORE.INTRA.REPUL.0>
0

>  <SCORE.INTRA.SOLV>
1.54665

>  <SCORE.INTRA.SOLV.lig_0>
-48.6728

>  <SCORE.INTRA.VDW>
-1.1307

>  <SCORE.INTRA.VDW.0>
-1.10662

>  <SCORE.INTRA.norm>
-0.106873

>  <SCORE.RESTR>
0.00298377

>  <SCORE.RESTR.CAVITY>
0.00298377

>  <SCORE.RESTR.norm>
0.00011051

>  <SCORE.SYSTEM>
0

>  <SCORE.SYSTEM.CONST>
0

>  <SCORE.SYSTEM.DIHEDRAL>
0

>  <SCORE.SYSTEM.SOLV>
0

>  <SCORE.SYSTEM.norm>
0

>  <SCORE.heavy>
27

>  <SCORE.norm>
-0.515879

>  <RMSD>
14.256

$$$$
ligand
 OpenBabel11021811483D
libRbt.so/2013.1/901 2013/11/27
 27 29  0  0  0  0  0  0  0  0999 V2000
   56.2299   57.4710   15.4140 N   0  0  0  0  0  0  0  0  0  0  0  0
   55.5723   56.5447   14.4829 C   0  0  2  0  0  0  0  0  0  0  0  0
   56.3652   56.5071   13.2111 C   0  0  0  0  0  0  0  0  0  0  0  0
   56.8315   57.5382   12.7532 O   0  0  0  0  0  0  0  0  0  0  0  0
   54.1429   57.0183   14.1800 C   0  0  0  0  0  0  0  0  0  0  0  0
   53.1836   56.3565   15.1649 C   0  0  0  0  0  0  0  0  0  0  0  0
   53.1237   57.1838   16.7865 S   0  0  2  0  0  0  0  0  0  0  0  0
   54.5533   56.5166   17.6929 C   0  0  0  0  0  0  0  0  0  0  0  0
   51.7924   56.4821   17.8263 C   0  0  0  0  0  0  0  0  0  0  0  0
   51.8795   55.0028   17.5416 C   0  0  1  0  0  0  0  0  0  0  0  0
   51.9394   54.4238   18.8033 O   0  0  0  0  0  0  0  0  0  0  0  0
   50.7188   54.2307   16.9124 C   0  0  1  0  0  0  0  0  0  0  0  0
   50.7893   54.1989   15.5157 O   0  0  0  0  0  0  0  0  0  0  0  0
   50.9715   52.8100   17.6114 C   0  0  1  0  0  0  0  0  0  0  0  0
   52.2846   52.2692   17.4047 O   0  0  0  0  0  0  0  0  0  0  0  0
   50.7847   53.5053   18.9404 C   0  0  1  0  0  0  0  0  0  0  0  0
   56.5543   55.4411   12.6466 O   0  0  0  0  0  0  0  0  0  0  0  0
   48.8393   55.1155   23.2867 N   0  0  0  0  0  0  0  0  0  0  0  0
   48.6584   55.5360   22.0337 C   0  0  0  0  0  0  0  0  0  0  0  0
   49.2378   54.9300   20.9982 N   0  0  0  0  0  0  0  0  0  0  0  0
   50.1291   53.9470   21.1837 C   0  0  0  0  0  0  0  0  0  0  0  0
   50.4019   53.5114   22.5195 C   0  0  0  0  0  0  0  0  0  0  0  0
   49.6970   54.1462   23.5789 C   0  0  0  0  0  0  0  0  0  0  0  0
   49.8864   53.7770   24.8810 N   0  0  0  0  0  0  0  0  0  0  0  0
   51.3228   52.5315   22.4364 N   0  0  0  0  0  0  0  0  0  0  0  0
   51.6391   52.3344   21.1755 C   0  0  0  0  0  0  0  0  0  0  0  0
   50.9279   53.1644   20.3440 N   0  0  0  0  0  0  0  0  0  0  0  0
  2  1  1  1  0  0  0
  2  3  1  0  0  0  0
  2  5  1  0  0  0  0
  3  4  1  0  0  0  0
  3 17  1  0  0  0  0
  5  6  1  0  0  0  0
  7  6  1  6  0  0  0
  7  8  1  0  0  0  0
  7  9  1  0  0  0  0
 10  9  1  1  0  0  0
 10 11  1  0  0  0  0
 10 12  1  0  0  0  0
 11 16  1  0  0  0  0
 12 13  1  6  0  0  0
 12 14  1  0  0  0  0
 14 15  1  1  0  0  0
 14 16  1  0  0  0  0
 16 27  1  1  0  0  0
 18 19  2  0  0  0  0
 18 23  1  0  0  0  0
 19 20  1  0  0  0  0
 20 21  2  0  0  0  0
 21 22  1  0  0  0  0
 21 27  1  0  0  0  0
 22 23  2  0  0  0  0
 22 25  1  0  0  0  0
 23 24  1  0  0  0  0
 25 26  2  0  0  0  0
 26 27  1  0  0  0  0
M  END
>  <CHROM.1>
-40.60916925,-92.14785308,81.11723017,-82.66597744,40.13696705,128.62583978
95.78720458,52.28794522,55.03742778,18.14272096,-0.39629545,0.95610043,0.80065986

>  <Name>
ligand

>  <RI>
0

>  <Rbt.Current_Directory>
/home/itssahil/PROJECTS/Mol_Feturizer/New_Systems/rnas/3IQN

>  <Rbt.Executable>
rbdock ($Id: //depot/dev/client3/rdock/2013.1/src/exe/rbdock.cxx#4 $)

>  <Rbt.Library>
libRbt.so (2013.1, Build901 2013/11/27)

>  <Rbt.Parameter_File>
/export/apps/rDock/src/rDock_2013.1_src/data/scripts/dock_solv.prm

>  <Rbt.Receptor>
prm/blind_docking_100.prm

>  <SCORE>
-14.5428

>  <SCORE.INTER>
-16.235

>  <SCORE.INTER.CONST>
1

>  <SCORE.INTER.POLAR>
0

>  <SCORE.INTER.ROT>
7

>  <SCORE.INTER.SOLV>
10.7295

>  <SCORE.INTER.VDW>
-22.6665

>  <SCORE.INTER.norm>
-0.601297

>  <SCORE.INTRA>
1.69219

>  <SCORE.INTRA.DIHEDRAL>
3.79998

>  <SCORE.INTRA.DIHEDRAL.0>
10.0365

>  <SCORE.INTRA.POLAR>
0

>  <SCORE.INTRA.POLAR.0>
0

>  <SCORE.INTRA.REPUL>
0

>  <SCORE.INTRA.REPUL.0>
0

>  <SCORE.INTRA.SOLV>
1.78172

>  <SCORE.INTRA.SOLV.lig_0>
-48.6728

>  <SCORE.INTRA.VDW>
-1.09866

>  <SCORE.INTRA.VDW.0>
-1.10662

>  <SCORE.INTRA.norm>
0.0626739

>  <SCORE.RESTR>
0

>  <SCORE.RESTR.CAVITY>
0

>  <SCORE.RESTR.norm>
0

>  <SCORE.SYSTEM>
0

>  <SCORE.SYSTEM.CONST>
0

>  <SCORE.SYSTEM.DIHEDRAL>
0

>  <SCORE.SYSTEM.SOLV>
0

>  <SCORE.SYSTEM.norm>
0

>  <SCORE.heavy>
27

>  <SCORE.norm>
-0.538623

>  <RMSD>
14.420

$$$$
ligand
 OpenBabel11021811483D
libRbt.so/2013.1/901 2013/11/27
 27 29  0  0  0  0  0  0  0  0999 V2000
   57.3489   59.2068   16.6512 N   0  0  0  0  0  0  0  0  0  0  0  0
   57.9013   58.0630   17.3887 C   0  0  2  0  0  0  0  0  0  0  0  0
   59.3591   57.9451   17.0599 C   0  0  0  0  0  0  0  0  0  0  0  0
   59.7191   57.9014   15.8942 O   0  0  0  0  0  0  0  0  0  0  0  0
   57.1799   56.7687   16.9840 C   0  0  0  0  0  0  0  0  0  0  0  0
   55.7165   56.8659   17.4050 C   0  0  0  0  0  0  0  0  0  0  0  0
   54.7609   55.3538   17.0619 S   0  0  2  0  0  0  0  0  0  0  0  0
   54.8050   55.1866   15.2507 C   0  0  0  0  0  0  0  0  0  0  0  0
   52.9682   55.6574   17.2621 C   0  0  0  0  0  0  0  0  0  0  0  0
   52.3665   54.2852   17.0836 C   0  0  1  0  0  0  0  0  0  0  0  0
   52.4073   53.7353   18.3590 O   0  0  0  0  0  0  0  0  0  0  0  0
   50.8941   54.0889   16.7195 C   0  0  1  0  0  0  0  0  0  0  0  0
   50.6856   54.0316   15.3375 O   0  0  0  0  0  0  0  0  0  0  0  0
   50.6455   52.6971   17.4756 C   0  0  1  0  0  0  0  0  0  0  0  0
   51.5430   51.6438   17.0954 O   0  0  0  0  0  0  0  0  0  0  0  0
   51.0194   53.4033   18.7584 C   0  0  1  0  0  0  0  0  0  0  0  0
   60.1822   57.9091   17.9609 O   0  0  0  0  0  0  0  0  0  0  0  0
   49.3512   54.8860   23.2626 N   0  0  0  0  0  0  0  0  0  0  0  0
   49.0812   55.3326   22.0350 C   0  0  0  0  0  0  0  0  0  0  0  0
   49.5971   54.7587   20.9488 N   0  0  0  0  0  0  0  0  0  0  0  0
   50.5108   53.7842   21.0505 C   0  0  0  0  0  0  0  0  0  0  0  0
   50.8783   53.3218   22.3543 C   0  0  0  0  0  0  0  0  0  0  0  0
   50.2385   53.9221   23.4734 C   0  0  0  0  0  0  0  0  0  0  0  0
   50.5197   53.5258   24.7507 N   0  0  0  0  0  0  0  0  0  0  0  0
   51.8035   52.3569   22.1863 N   0  0  0  0  0  0  0  0  0  0  0  0
   52.0366   52.1933   20.9027 C   0  0  0  0  0  0  0  0  0  0  0  0
   51.2609   53.0322   20.1408 N   0  0  0  0  0  0  0  0  0  0  0  0
  2  1  1  6  0  0  0
  2  3  1  0  0  0  0
  2  5  1  0  0  0  0
  3  4  1  0  0  0  0
  3 17  1  0  0  0  0
  5  6  1  0  0  0  0
  7  6  1  6  0  0  0
  7  8  1  0  0  0  0
  7  9  1  0  0  0  0
 10  9  1  1  0  0  0
 10 11  1  0  0  0  0
 10 12  1  0  0  0  0
 11 16  1  0  0  0  0
 12 13  1  6  0  0  0
 12 14  1  0  0  0  0
 14 15  1  6  0  0  0
 14 16  1  0  0  0  0
 16 27  1  1  0  0  0
 18 19  2  0  0  0  0
 18 23  1  0  0  0  0
 19 20  1  0  0  0  0
 20 21  2  0  0  0  0
 21 22  1  0  0  0  0
 21 27  1  0  0  0  0
 22 23  2  0  0  0  0
 22 25  1  0  0  0  0
 23 24  1  0  0  0  0
 25 26  2  0  0  0  0
 26 27  1  0  0  0  0
M  END
>  <CHROM.1>
-52.63913806,-64.33592906,-176.93841079,-62.94638198,-174.33731131,87.07022901
123.04000572,53.30651207,54.92954999,18.72366626,-0.42632950,0.54177168,1.42266396

>  <Name>
ligand

>  <RI>
0

>  <Rbt.Current_Directory>
/home/itssahil/PROJECTS/Mol_Feturizer/New_Systems/rnas/3IQN

>  <Rbt.Executable>
rbdock ($Id: //depot/dev/client3/rdock/2013.1/src/exe/rbdock.cxx#4 $)

>  <Rbt.Library>
libRbt.so (2013.1, Build901 2013/11/27)

>  <Rbt.Parameter_File>
/export/apps/rDock/src/rDock_2013.1_src/data/scripts/dock_solv.prm

>  <Rbt.Receptor>
prm/blind_docking_100.prm

>  <SCORE>
-18.805

>  <SCORE.INTER>
-15.537

>  <SCORE.INTER.CONST>
1

>  <SCORE.INTER.POLAR>
0

>  <SCORE.INTER.ROT>
7

>  <SCORE.INTER.SOLV>
10.5268

>  <SCORE.INTER.VDW>
-22.1336

>  <SCORE.INTER.norm>
-0.575443

>  <SCORE.INTRA>
-3.27403

>  <SCORE.INTRA.DIHEDRAL>
-4.24679

>  <SCORE.INTRA.DIHEDRAL.0>
10.0365

>  <SCORE.INTRA.POLAR>
0

>  <SCORE.INTRA.POLAR.0>
0

>  <SCORE.INTRA.REPUL>
0

>  <SCORE.INTRA.REPUL.0>
0

>  <SCORE.INTRA.SOLV>
-0.51289

>  <SCORE.INTRA.SOLV.lig_0>
-48.6728

>  <SCORE.INTRA.VDW>
-0.894194

>  <SCORE.INTRA.VDW.0>
-1.10662

>  <SCORE.INTRA.norm>
-0.12126

>  <SCORE.RESTR>
0.00602411

>  <SCORE.RESTR.CAVITY>
0.00602411

>  <SCORE.RESTR.norm>
0.000223115

>  <SCORE.SYSTEM>
0

>  <SCORE.SYSTEM.CONST>
0

>  <SCORE.SYSTEM.DIHEDRAL>
0

>  <SCORE.SYSTEM.SOLV>
0

>  <SCORE.SYSTEM.norm>
0

>  <SCORE.heavy>
27

>  <SCORE.norm>
-0.69648

>  <RMSD>
14.463

$$$$
ligand
 OpenBabel11021811483D
libRbt.so/2013.1/901 2013/11/27
 27 29  0  0  0  0  0  0  0  0999 V2000
   56.5907   59.0369   18.7217 N   0  0  0  0  0  0  0  0  0  0  0  0
   56.5934   58.4920   17.3578 C   0  0  2  0  0  0  0  0  0  0  0  0
   57.8986   58.8424   16.7089 C   0  0  0  0  0  0  0  0  0  0  0  0
   58.3607   59.9650   16.8374 O   0  0  0  0  0  0  0  0  0  0  0  0
   55.4393   59.0926   16.5412 C   0  0  0  0  0  0  0  0  0  0  0  0
   54.1152   58.6316   17.1434 C   0  0  0  0  0  0  0  0  0  0  0  0
   53.8107   56.8467   16.9462 S   0  0  2  0  0  0  0  0  0  0  0  0
   53.5486   56.6227   15.1597 C   0  0  0  0  0  0  0  0  0  0  0  0
   52.1322   56.4053   17.5235 C   0  0  0  0  0  0  0  0  0  0  0  0
   52.1567   54.8965   17.5258 C   0  0  1  0  0  0  0  0  0  0  0  0
   51.7305   54.5585   18.8044 O   0  0  0  0  0  0  0  0  0  0  0  0
   51.2011   54.0709   16.6632 C   0  0  1  0  0  0  0  0  0  0  0  0
   51.7318   53.7788   15.4024 O   0  0  0  0  0  0  0  0  0  0  0  0
   51.0571   52.7943   17.6227 C   0  0  1  0  0  0  0  0  0  0  0  0
   52.3005   52.1701   17.9746 O   0  0  0  0  0  0  0  0  0  0  0  0
   50.5085   53.7302   18.6750 C   0  0  1  0  0  0  0  0  0  0  0  0
   58.5019   57.9972   16.0668 O   0  0  0  0  0  0  0  0  0  0  0  0
   52.3762   51.5632   22.8084 N   0  0  0  0  0  0  0  0  0  0  0  0
   52.7905   51.5403   21.5406 C   0  0  0  0  0  0  0  0  0  0  0  0
   52.1735   52.2364   20.5866 N   0  0  0  0  0  0  0  0  0  0  0  0
   51.0322   52.8914   20.8383 C   0  0  0  0  0  0  0  0  0  0  0  0
   50.5175   52.8846   22.1739 C   0  0  0  0  0  0  0  0  0  0  0  0
   51.2600   52.1858   23.1651 C   0  0  0  0  0  0  0  0  0  0  0  0
   50.8467   52.1458   24.4671 N   0  0  0  0  0  0  0  0  0  0  0  0
   49.3756   53.5996   22.1621 N   0  0  0  0  0  0  0  0  0  0  0  0
   49.1453   54.0358   20.9433 C   0  0  0  0  0  0  0  0  0  0  0  0
   50.1371   53.6486   20.0759 N   0  0  0  0  0  0  0  0  0  0  0  0
  2  1  1  1  0  0  0
  2  3  1  0  0  0  0
  2  5  1  0  0  0  0
  3  4  1  0  0  0  0
  3 17  1  0  0  0  0
  5  6  1  0  0  0  0
  7  6  1  6  0  0  0
  7  8  1  0  0  0  0
  7  9  1  0  0  0  0
 10  9  1  6  0  0  0
 10 11  1  0  0  0  0
 10 12  1  0  0  0  0
 11 16  1  0  0  0  0
 12 13  1  6  0  0  0
 12 14  1  0  0  0  0
 14 15  1  1  0  0  0
 14 16  1  0  0  0  0
 16 27  1  1  0  0  0
 18 19  2  0  0  0  0
 18 23  1  0  0  0  0
 19 20  1  0  0  0  0
 20 21  2  0  0  0  0
 21 22  1  0  0  0  0
 21 27  1  0  0  0  0
 22 23  2  0  0  0  0
 22 25  1  0  0  0  0
 23 24  1  0  0  0  0
 25 26  2  0  0  0  0
 26 27  1  0  0  0  0
M  END
>  <CHROM.1>
-43.49475661,-65.45614761,-67.71298811,-68.50639094,-169.94694131,127.55340129
-68.36059044,52.98260097,55.13730152,18.71197778,-0.72933854,0.65561064,1.86377377

>  <Name>
ligand

>  <RI>
0

>  <Rbt.Current_Directory>
/home/itssahil/PROJECTS/Mol_Feturizer/New_Systems/rnas/3IQN

>  <Rbt.Executable>
rbdock ($Id: //depot/dev/client3/rdock/2013.1/src/exe/rbdock.cxx#4 $)

>  <Rbt.Library>
libRbt.so (2013.1, Build901 2013/11/27)

>  <Rbt.Parameter_File>
/export/apps/rDock/src/rDock_2013.1_src/data/scripts/dock_solv.prm

>  <Rbt.Receptor>
prm/blind_docking_100.prm

>  <SCORE>
-15.3937

>  <SCORE.INTER>
-13.824

>  <SCORE.INTER.CONST>
1

>  <SCORE.INTER.POLAR>
0

>  <SCORE.INTER.ROT>
7

>  <SCORE.INTER.SOLV>
10.0363

>  <SCORE.INTER.VDW>
-20.8281

>  <SCORE.INTER.norm>
-0.512

>  <SCORE.INTRA>
-1.56968

>  <SCORE.INTRA.DIHEDRAL>
-1.05824

>  <SCORE.INTRA.DIHEDRAL.0>
10.0365

>  <SCORE.INTRA.POLAR>
0

>  <SCORE.INTRA.POLAR.0>
0

>  <SCORE.INTRA.REPUL>
0

>  <SCORE.INTRA.REPUL.0>
0

>  <SCORE.INTRA.SOLV>
0.464198

>  <SCORE.INTRA.SOLV.lig_0>
-48.6728

>  <SCORE.INTRA.VDW>
-1.27266

>  <SCORE.INTRA.VDW.0>
-1.10662

>  <SCORE.INTRA.norm>
-0.0581363

>  <SCORE.RESTR>
0

>  <SCORE.RESTR.CAVITY>
0

>  <SCORE.RESTR.norm>
0

>  <SCORE.SYSTEM>
0

>  <SCORE.SYSTEM.CONST>
0

>  <SCORE.SYSTEM.DIHEDRAL>
0

>  <SCORE.SYSTEM.SOLV>
0

>  <SCORE.SYSTEM.norm>
0

>  <SCORE.heavy>
27

>  <SCORE.norm>
-0.570136

>  <RMSD>
14.480

$$$$
ligand
 OpenBabel11021811483D
libRbt.so/2013.1/901 2013/11/27
 27 29  0  0  0  0  0  0  0  0999 V2000
   58.1719   47.5425   15.6940 N   0  0  0  0  0  0  0  0  0  0  0  0
   58.8098   46.6911   16.7067 C   0  0  2  0  0  0  0  0  0  0  0  0
   59.9059   45.9091   16.0476 C   0  0  0  0  0  0  0  0  0  0  0  0
   61.0630   46.0617   16.4055 O   0  0  0  0  0  0  0  0  0  0  0  0
   57.7833   45.7218   17.3118 C   0  0  0  0  0  0  0  0  0  0  0  0
   56.5555   46.5134   17.7523 C   0  0  0  0  0  0  0  0  0  0  0  0
   56.6636   47.1273   19.4636 S   0  0  2  0  0  0  0  0  0  0  0  0
   56.3010   45.6727   20.4946 C   0  0  0  0  0  0  0  0  0  0  0  0
   55.1956   48.1327   19.8882 C   0  0  0  0  0  0  0  0  0  0  0  0
   55.5510   48.7040   21.2390 C   0  0  1  0  0  0  0  0  0  0  0  0
   54.7225   49.8129   21.3600 O   0  0  0  0  0  0  0  0  0  0  0  0
   55.2448   47.9579   22.5384 C   0  0  1  0  0  0  0  0  0  0  0  0
   56.2981   47.1317   22.9445 O   0  0  0  0  0  0  0  0  0  0  0  0
   55.0054   49.2259   23.4901 C   0  0  1  0  0  0  0  0  0  0  0  0
   56.0978   50.1557   23.5300 O   0  0  0  0  0  0  0  0  0  0  0  0
   53.8795   49.6247   22.5640 C   0  0  1  0  0  0  0  0  0  0  0  0
   59.6338   45.1105   15.1651 O   0  0  0  0  0  0  0  0  0  0  0  0
   51.0054   52.4445   25.5735 N   0  0  0  0  0  0  0  0  0  0  0  0
   51.7661   51.3792   25.8304 C   0  0  0  0  0  0  0  0  0  0  0  0
   52.5036   50.7975   24.8854 N   0  0  0  0  0  0  0  0  0  0  0  0
   52.4149   51.1828   23.6054 C   0  0  0  0  0  0  0  0  0  0  0  0
   51.5571   52.2807   23.2773 C   0  0  0  0  0  0  0  0  0  0  0  0
   50.8519   52.9093   24.3402 C   0  0  0  0  0  0  0  0  0  0  0  0
   50.0267   53.9750   24.1142 N   0  0  0  0  0  0  0  0  0  0  0  0
   51.6404   52.4643   21.9452 N   0  0  0  0  0  0  0  0  0  0  0  0
   52.4644   51.5774   21.4322 C   0  0  0  0  0  0  0  0  0  0  0  0
   52.9923   50.7622   22.4032 N   0  0  0  0  0  0  0  0  0  0  0  0
  2  1  1  6  0  0  0
  2  3  1  0  0  0  0
  2  5  1  0  0  0  0
  3  4  1  0  0  0  0
  3 17  1  0  0  0  0
  5  6  1  0  0  0  0
  7  6  1  6  0  0  0
  7  8  1  0  0  0  0
  7  9  1  0  0  0  0
 10  9  1  6  0  0  0
 10 11  1  0  0  0  0
 10 12  1  0  0  0  0
 11 16  1  0  0  0  0
 12 13  1  1  0  0  0
 12 14  1  0  0  0  0
 14 15  1  6  0  0  0
 14 16  1  0  0  0  0
 16 27  1  1  0  0  0
 18 19  2  0  0  0  0
 18 23  1  0  0  0  0
 19 20  1  0  0  0  0
 20 21  2  0  0  0  0
 21 22  1  0  0  0  0
 21 27  1  0  0  0  0
 22 23  2  0  0  0  0
 22 25  1  0  0  0  0
 23 24  1  0  0  0  0
 25 26  2  0  0  0  0
 26 27  1  0  0  0  0
M  END
>  <CHROM.1>
117.79146399,-50.55443950,-89.25379891,-77.58477785,-172.26400927,159.03984534
-156.56105333,55.16152801,48.95836279,20.95885124,0.51132464,0.80904953,-1.34107198

>  <Name>
ligand

>  <RI>
0

>  <Rbt.Current_Directory>
/home/itssahil/PROJECTS/Mol_Feturizer/New_Systems/rnas/3IQN

>  <Rbt.Executable>
rbdock ($Id: //depot/dev/client3/rdock/2013.1/src/exe/rbdock.cxx#4 $)

>  <Rbt.Library>
libRbt.so (2013.1, Build901 2013/11/27)

>  <Rbt.Parameter_File>
/export/apps/rDock/src/rDock_2013.1_src/data/scripts/dock_solv.prm

>  <Rbt.Receptor>
prm/blind_docking_80.prm

>  <SCORE>
-19.0226

>  <SCORE.INTER>
-18.3215

>  <SCORE.INTER.CONST>
1

>  <SCORE.INTER.POLAR>
0

>  <SCORE.INTER.ROT>
7

>  <SCORE.INTER.SOLV>
14.7562

>  <SCORE.INTER.VDW>
-25.3997

>  <SCORE.INTER.norm>
-0.678574

>  <SCORE.INTRA>
-0.701108

>  <SCORE.INTRA.DIHEDRAL>
-1.90918

>  <SCORE.INTRA.DIHEDRAL.0>
10.0365

>  <SCORE.INTRA.POLAR>
0

>  <SCORE.INTRA.POLAR.0>
0

>  <SCORE.INTRA.REPUL>
0

>  <SCORE.INTRA.REPUL.0>
0

>  <SCORE.INTRA.SOLV>
0.339565

>  <SCORE.INTRA.SOLV.lig_0>
-48.6728

>  <SCORE.INTRA.VDW>
0.0836996

>  <SCORE.INTRA.VDW.0>
-1.10662

>  <SCORE.INTRA.norm>
-0.025967

>  <SCORE.RESTR>
0

>  <SCORE.RESTR.CAVITY>
0

>  <SCORE.RESTR.norm>
0

>  <SCORE.SYSTEM>
0

>  <SCORE.SYSTEM.CONST>
0

>  <SCORE.SYSTEM.DIHEDRAL>
0

>  <SCORE.SYSTEM.SOLV>
0

>  <SCORE.SYSTEM.norm>
0

>  <SCORE.heavy>
27

>  <SCORE.norm>
-0.704541

>  <RMSD>
14.627

$$$$
ligand
 OpenBabel11021811483D
libRbt.so/2013.1/901 2013/11/27
 27 29  0  0  0  0  0  0  0  0999 V2000
   53.1244   59.7124   12.8294 N   0  0  0  0  0  0  0  0  0  0  0  0
   54.1273   58.9916   13.6245 C   0  0  2  0  0  0  0  0  0  0  0  0
   54.7737   57.9593   12.7506 C   0  0  0  0  0  0  0  0  0  0  0  0
   54.0820   57.1893   12.1034 O   0  0  0  0  0  0  0  0  0  0  0  0
   53.4612   58.3011   14.8240 C   0  0  0  0  0  0  0  0  0  0  0  0
   54.5472   57.7382   15.7362 C   0  0  0  0  0  0  0  0  0  0  0  0
   54.1366   56.1056   16.4315 S   0  0  2  0  0  0  0  0  0  0  0  0
   54.0246   55.0080   14.9847 C   0  0  0  0  0  0  0  0  0  0  0  0
   52.3850   56.0431   16.9549 C   0  0  0  0  0  0  0  0  0  0  0  0
   52.0754   54.5663   16.9388 C   0  0  1  0  0  0  0  0  0  0  0  0
   52.2400   54.1771   18.2625 O   0  0  0  0  0  0  0  0  0  0  0  0
   50.6710   54.0376   16.6434 C   0  0  1  0  0  0  0  0  0  0  0  0
   50.4655   53.7903   15.2820 O   0  0  0  0  0  0  0  0  0  0  0  0
   50.7200   52.7143   17.5473 C   0  0  1  0  0  0  0  0  0  0  0  0
   51.8105   51.8299   17.2506 O   0  0  0  0  0  0  0  0  0  0  0  0
   50.9535   53.6160   18.7376 C   0  0  1  0  0  0  0  0  0  0  0  0
   55.9913   57.9035   12.6783 O   0  0  0  0  0  0  0  0  0  0  0  0
   49.0013   55.1239   23.1175 N   0  0  0  0  0  0  0  0  0  0  0  0
   48.6310   55.3691   21.8596 C   0  0  0  0  0  0  0  0  0  0  0  0
   49.2625   54.8223   20.8215 N   0  0  0  0  0  0  0  0  0  0  0  0
   50.3778   54.1003   20.9940 C   0  0  0  0  0  0  0  0  0  0  0  0
   50.8468   53.8701   22.3265 C   0  0  0  0  0  0  0  0  0  0  0  0
   50.0888   54.4173   23.3981 C   0  0  0  0  0  0  0  0  0  0  0  0
   50.4584   54.2284   24.7001 N   0  0  0  0  0  0  0  0  0  0  0  0
   51.9702   53.1326   22.2294 N   0  0  0  0  0  0  0  0  0  0  0  0
   52.2307   52.8976   20.9622 C   0  0  0  0  0  0  0  0  0  0  0  0
   51.2790   53.4531   20.1427 N   0  0  0  0  0  0  0  0  0  0  0  0
  2  1  1  6  0  0  0
  2  3  1  0  0  0  0
  2  5  1  0  0  0  0
  3  4  1  0  0  0  0
  3 17  1  0  0  0  0
  5  6  1  0  0  0  0
  7  6  1  6  0  0  0
  7  8  1  0  0  0  0
  7  9  1  0  0  0  0
 10  9  1  1  0  0  0
 10 11  1  0  0  0  0
 10 12  1  0  0  0  0
 11 16  1  0  0  0  0
 12 13  1  6  0  0  0
 12 14  1  0  0  0  0
 14 15  1  6  0  0  0
 14 16  1  0  0  0  0
 16 27  1  1  0  0  0
 18 19  2  0  0  0  0
 18 23  1  0  0  0  0
 19 20  1  0  0  0  0
 20 21  2  0  0  0  0
 21 22  1  0  0  0  0
 21 27  1  0  0  0  0
 22 23  2  0  0  0  0
 22 25  1  0  0  0  0
 23 24  1  0  0  0  0
 25 26  2  0  0  0  0
 26 27  1  0  0  0  0
M  END
>  <CHROM.1>
-50.52606396,-171.77339677,-140.51977104,63.46536514,157.13947808,96.94551613
124.72648806,52.14780691,55.27957064,17.72190900,-0.29407030,1.14817055,0.73356483

>  <Name>
ligand

>  <RI>
0

>  <Rbt.Current_Directory>
/home/itssahil/PROJECTS/Mol_Feturizer/New_Systems/rnas/3IQN

>  <Rbt.Executable>
rbdock ($Id: //depot/dev/client3/rdock/2013.1/src/exe/rbdock.cxx#4 $)

>  <Rbt.Library>
libRbt.so (2013.1, Build901 2013/11/27)

>  <Rbt.Parameter_File>
/export/apps/rDock/src/rDock_2013.1_src/data/scripts/dock_solv.prm

>  <Rbt.Receptor>
prm/blind_docking_100.prm

>  <SCORE>
-10.0699

>  <SCORE.INTER>
-11.7669

>  <SCORE.INTER.CONST>
1

>  <SCORE.INTER.POLAR>
0

>  <SCORE.INTER.ROT>
7

>  <SCORE.INTER.SOLV>
11.9395

>  <SCORE.INTER.VDW>
-20.0911

>  <SCORE.INTER.norm>
-0.435811

>  <SCORE.INTRA>
1.6641

>  <SCORE.INTRA.DIHEDRAL>
2.09113

>  <SCORE.INTRA.DIHEDRAL.0>
10.0365

>  <SCORE.INTRA.POLAR>
0

>  <SCORE.INTRA.POLAR.0>
0

>  <SCORE.INTRA.REPUL>
0

>  <SCORE.INTRA.REPUL.0>
0

>  <SCORE.INTRA.SOLV>
-1.06604

>  <SCORE.INTRA.SOLV.lig_0>
-48.6728

>  <SCORE.INTRA.VDW>
1.15156

>  <SCORE.INTRA.VDW.0>
-1.10662

>  <SCORE.INTRA.norm>
0.0616335

>  <SCORE.RESTR>
0.0328763

>  <SCORE.RESTR.CAVITY>
0.0328763

>  <SCORE.RESTR.norm>
0.00121764

>  <SCORE.SYSTEM>
0

>  <SCORE.SYSTEM.CONST>
0

>  <SCORE.SYSTEM.DIHEDRAL>
0

>  <SCORE.SYSTEM.SOLV>
0

>  <SCORE.SYSTEM.norm>
0

>  <SCORE.heavy>
27

>  <SCORE.norm>
-0.37296

>  <RMSD>
14.637

$$$$
ligand
 OpenBabel11021811483D
libRbt.so/2013.1/901 2013/11/27
 27 29  0  0  0  0  0  0  0  0999 V2000
   55.1102   54.7516   13.4618 N   0  0  0  0  0  0  0  0  0  0  0  0
   54.6770   56.1190   13.1457 C   0  0  2  0  0  0  0  0  0  0  0  0
   55.7245   56.7626   12.2878 C   0  0  0  0  0  0  0  0  0  0  0  0
   55.4070   57.6202   11.4790 O   0  0  0  0  0  0  0  0  0  0  0  0
   54.5012   56.9344   14.4355 C   0  0  0  0  0  0  0  0  0  0  0  0
   53.3291   56.3614   15.2267 C   0  0  0  0  0  0  0  0  0  0  0  0
   53.0728   57.1755   16.8358 S   0  0  2  0  0  0  0  0  0  0  0  0
   54.4555   56.5957   17.8665 C   0  0  0  0  0  0  0  0  0  0  0  0
   51.7015   56.3859   17.7534 C   0  0  0  0  0  0  0  0  0  0  0  0
   51.8869   54.9192   17.4509 C   0  0  1  0  0  0  0  0  0  0  0  0
   52.0151   54.3342   18.7048 O   0  0  0  0  0  0  0  0  0  0  0  0
   50.7704   54.0726   16.8379 C   0  0  1  0  0  0  0  0  0  0  0  0
   50.8126   54.0590   15.4398 O   0  0  0  0  0  0  0  0  0  0  0  0
   51.1381   52.6670   17.5159 C   0  0  1  0  0  0  0  0  0  0  0  0
   52.4814   52.2227   17.2758 O   0  0  0  0  0  0  0  0  0  0  0  0
   50.9316   53.3347   18.8560 C   0  0  1  0  0  0  0  0  0  0  0  0
   56.8944   56.4366   12.4133 O   0  0  0  0  0  0  0  0  0  0  0  0
   49.2307   55.0033   23.2822 N   0  0  0  0  0  0  0  0  0  0  0  0
   49.0047   55.4271   22.0377 C   0  0  0  0  0  0  0  0  0  0  0  0
   49.5196   54.8041   20.9784 N   0  0  0  0  0  0  0  0  0  0  0  0
   50.3909   53.7972   21.1256 C   0  0  0  0  0  0  0  0  0  0  0  0
   50.7122   53.3558   22.4488 C   0  0  0  0  0  0  0  0  0  0  0  0
   50.0738   54.0110   23.5376 C   0  0  0  0  0  0  0  0  0  0  0  0
   50.3121   53.6384   24.8306 N   0  0  0  0  0  0  0  0  0  0  0  0
   51.6010   52.3507   22.3264 N   0  0  0  0  0  0  0  0  0  0  0  0
   51.8541   52.1435   21.0529 C   0  0  0  0  0  0  0  0  0  0  0  0
   51.1289   52.9917   20.2525 N   0  0  0  0  0  0  0  0  0  0  0  0
  2  1  1  1  0  0  0
  2  3  1  0  0  0  0
  2  5  1  0  0  0  0
  3  4  1  0  0  0  0
  3 17  1  0  0  0  0
  5  6  1  0  0  0  0
  7  6  1  6  0  0  0
  7  8  1  0  0  0  0
  7  9  1  0  0  0  0
 10  9  1  1  0  0  0
 10 11  1  0  0  0  0
 10 12  1  0  0  0  0
 11 16  1  0  0  0  0
 12 13  1  6  0  0  0
 12 14  1  0  0  0  0
 14 15  1  1  0  0  0
 14 16  1  0  0  0  0
 16 27  1  1  0  0  0
 18 19  2  0  0  0  0
 18 23  1  0  0  0  0
 19 20  1  0  0  0  0
 20 21  2  0  0  0  0
 21 22  1  0  0  0  0
 21 27  1  0  0  0  0
 22 23  2  0  0  0  0
 22 25  1  0  0  0  0
 23 24  1  0  0  0  0
 25 26  2  0  0  0  0
 26 27  1  0  0  0  0
M  END
>  <CHROM.1>
150.46662687,-66.96379785,176.47538717,-72.26988657,38.78402801,122.70374320
89.93604982,52.28826625,54.89494757,17.91467275,0.14749681,-1.10058044,-2.67575766

>  <Name>
ligand

>  <RI>
0

>  <Rbt.Current_Directory>
/home/itssahil/PROJECTS/Mol_Feturizer/New_Systems/rnas/3IQN

>  <Rbt.Executable>
rbdock ($Id: //depot/dev/client3/rdock/2013.1/src/exe/rbdock.cxx#4 $)

>  <Rbt.Library>
libRbt.so (2013.1, Build901 2013/11/27)

>  <Rbt.Parameter_File>
/export/apps/rDock/src/rDock_2013.1_src/data/scripts/dock_solv.prm

>  <Rbt.Receptor>
prm/blind_docking_100.prm

>  <SCORE>
-16.5846

>  <SCORE.INTER>
-15.0562

>  <SCORE.INTER.CONST>
1

>  <SCORE.INTER.POLAR>
0

>  <SCORE.INTER.ROT>
7

>  <SCORE.INTER.SOLV>
12.7318

>  <SCORE.INTER.VDW>
-22.5481

>  <SCORE.INTER.norm>
-0.557639

>  <SCORE.INTRA>
-1.52841

>  <SCORE.INTRA.DIHEDRAL>
-1.05601

>  <SCORE.INTRA.DIHEDRAL.0>
10.0365

>  <SCORE.INTRA.POLAR>
0

>  <SCORE.INTRA.POLAR.0>
0

>  <SCORE.INTRA.REPUL>
0

>  <SCORE.INTRA.REPUL.0>
0

>  <SCORE.INTRA.SOLV>
-0.266353

>  <SCORE.INTRA.SOLV.lig_0>
-48.6728

>  <SCORE.INTRA.VDW>
-0.867223

>  <SCORE.INTRA.VDW.0>
-1.10662

>  <SCORE.INTRA.norm>
-0.0566076

>  <SCORE.RESTR>
0

>  <SCORE.RESTR.CAVITY>
0

>  <SCORE.RESTR.norm>
0

>  <SCORE.SYSTEM>
0

>  <SCORE.SYSTEM.CONST>
0

>  <SCORE.SYSTEM.DIHEDRAL>
0

>  <SCORE.SYSTEM.SOLV>
0

>  <SCORE.SYSTEM.norm>
0

>  <SCORE.heavy>
27

>  <SCORE.norm>
-0.614246

>  <RMSD>
14.639

$$$$
ligand
 OpenBabel11021811483D
libRbt.so/2013.1/901 2013/11/27
 27 29  0  0  0  0  0  0  0  0999 V2000
   58.2520   48.2990   15.0399 N   0  0  0  0  0  0  0  0  0  0  0  0
   58.3713   47.2382   16.0488 C   0  0  2  0  0  0  0  0  0  0  0  0
   58.7204   45.9574   15.3523 C   0  0  0  0  0  0  0  0  0  0  0  0
   59.7074   45.3266   15.6959 O   0  0  0  0  0  0  0  0  0  0  0  0
   57.0430   47.0653   16.8005 C   0  0  0  0  0  0  0  0  0  0  0  0
   57.3038   46.3028   18.0962 C   0  0  0  0  0  0  0  0  0  0  0  0
   55.8931   46.3257   19.2482 S   0  0  2  0  0  0  0  0  0  0  0  0
   54.4943   45.6957   18.2701 C   0  0  0  0  0  0  0  0  0  0  0  0
   55.2935   48.0341   19.5088 C   0  0  0  0  0  0  0  0  0  0  0  0
   55.6652   48.3121   20.9446 C   0  0  1  0  0  0  0  0  0  0  0  0
   54.9805   49.4832   21.2450 O   0  0  0  0  0  0  0  0  0  0  0  0
   55.2156   47.4004   22.0873 C   0  0  1  0  0  0  0  0  0  0  0  0
   56.1384   46.3848   22.3590 O   0  0  0  0  0  0  0  0  0  0  0  0
   55.1024   48.5059   23.2431 C   0  0  1  0  0  0  0  0  0  0  0  0
   56.3018   49.2623   23.4639 O   0  0  0  0  0  0  0  0  0  0  0  0
   54.0737   49.2036   22.3832 C   0  0  1  0  0  0  0  0  0  0  0  0
   58.0058   45.5426   14.4533 O   0  0  0  0  0  0  0  0  0  0  0  0
   51.6803   51.9410   25.8540 N   0  0  0  0  0  0  0  0  0  0  0  0
   52.2952   50.7601   25.9368 C   0  0  0  0  0  0  0  0  0  0  0  0
   52.9245   50.2205   24.8937 N   0  0  0  0  0  0  0  0  0  0  0  0
   52.8589   50.7845   23.6803 C   0  0  0  0  0  0  0  0  0  0  0  0
   52.1505   52.0198   23.5354 C   0  0  0  0  0  0  0  0  0  0  0  0
   51.5623   52.5853   24.7000 C   0  0  0  0  0  0  0  0  0  0  0  0
   50.8843   53.7708   24.6506 N   0  0  0  0  0  0  0  0  0  0  0  0
   52.2267   52.3702   22.2366 N   0  0  0  0  0  0  0  0  0  0  0  0
   52.9105   51.4608   21.5777 C   0  0  0  0  0  0  0  0  0  0  0  0
   53.3455   50.4590   22.4103 N   0  0  0  0  0  0  0  0  0  0  0  0
  2  1  1  6  0  0  0
  2  3  1  0  0  0  0
  2  5  1  0  0  0  0
  3  4  1  0  0  0  0
  3 17  1  0  0  0  0
  5  6  1  0  0  0  0
  7  6  1  6  0  0  0
  7  8  1  0  0  0  0
  7  9  1  0  0  0  0
 10  9  1  6  0  0  0
 10 11  1  0  0  0  0
 10 12  1  0  0  0  0
 11 16  1  0  0  0  0
 12 13  1  1  0  0  0
 12 14  1  0  0  0  0
 14 15  1  6  0  0  0
 14 16  1  0  0  0  0
 16 27  1  1  0  0  0
 18 19  2  0  0  0  0
 18 23  1  0  0  0  0
 19 20  1  0  0  0  0
 20 21  2  0  0  0  0
 21 22  1  0  0  0  0
 21 27  1  0  0  0  0
 22 23  2  0  0  0  0
 22 25  1  0  0  0  0
 23 24  1  0  0  0  0
 25 26  2  0  0  0  0
 26 27  1  0  0  0  0
M  END
>  <CHROM.1>
125.22799269,-162.37578341,168.00007700,54.55510673,-111.43365339,-168.08049662
-152.36165147,55.07448513,48.70134281,20.70961122,0.45623462,0.98329262,-1.11968919

>  <Name>
ligand

>  <RI>
0

>  <Rbt.Current_Directory>
/home/itssahil/PROJECTS/Mol_Feturizer/New_Systems/rnas/3IQN

>  <Rbt.Executable>
rbdock ($Id: //depot/dev/client3/rdock/2013.1/src/exe/rbdock.cxx#4 $)

>  <Rbt.Library>
libRbt.so (2013.1, Build901 2013/11/27)

>  <Rbt.Parameter_File>
/export/apps/rDock/src/rDock_2013.1_src/data/scripts/dock_solv.prm

>  <Rbt.Receptor>
prm/blind_docking_80.prm

>  <SCORE>
-17.9803

>  <SCORE.INTER>
-16.1571

>  <SCORE.INTER.CONST>
1

>  <SCORE.INTER.POLAR>
0

>  <SCORE.INTER.ROT>
7

>  <SCORE.INTER.SOLV>
18.9838

>  <SCORE.INTER.VDW>
-25.366

>  <SCORE.INTER.norm>
-0.59841

>  <SCORE.INTRA>
-1.82322

>  <SCORE.INTRA.DIHEDRAL>
-0.871415

>  <SCORE.INTRA.DIHEDRAL.0>
10.0365

>  <SCORE.INTRA.POLAR>
0

>  <SCORE.INTRA.POLAR.0>
0

>  <SCORE.INTRA.REPUL>
0

>  <SCORE.INTRA.REPUL.0>
0

>  <SCORE.INTRA.SOLV>
-0.944824

>  <SCORE.INTRA.SOLV.lig_0>
-48.6728

>  <SCORE.INTRA.VDW>
-0.915099

>  <SCORE.INTRA.VDW.0>
-1.10662

>  <SCORE.INTRA.norm>
-0.0675266

>  <SCORE.RESTR>
0

>  <SCORE.RESTR.CAVITY>
0

>  <SCORE.RESTR.norm>
0

>  <SCORE.SYSTEM>
0

>  <SCORE.SYSTEM.CONST>
0

>  <SCORE.SYSTEM.DIHEDRAL>
0

>  <SCORE.SYSTEM.SOLV>
0

>  <SCORE.SYSTEM.norm>
0

>  <SCORE.heavy>
27

>  <SCORE.norm>
-0.665937

>  <RMSD>
14.786

$$$$
ligand
 OpenBabel11021811483D
libRbt.so/2013.1/901 2013/11/27
 27 29  0  0  0  0  0  0  0  0999 V2000
   55.0987   57.6294   13.6198 N   0  0  0  0  0  0  0  0  0  0  0  0
   53.7600   57.1861   14.0306 C   0  0  2  0  0  0  0  0  0  0  0  0
   52.8026   58.3231   13.8359 C   0  0  0  0  0  0  0  0  0  0  0  0
   51.7460   58.1369   13.2535 O   0  0  0  0  0  0  0  0  0  0  0  0
   53.7661   56.7708   15.5094 C   0  0  0  0  0  0  0  0  0  0  0  0
   52.4346   56.1034   15.8410 C   0  0  0  0  0  0  0  0  0  0  0  0
   52.6064   54.3765   16.3940 S   0  0  2  0  0  0  0  0  0  0  0  0
   53.3947   53.5244   14.9930 C   0  0  0  0  0  0  0  0  0  0  0  0
   50.9914   53.5183   16.3589 C   0  0  0  0  0  0  0  0  0  0  0  0
   50.6129   53.4413   17.8176 C   0  0  1  0  0  0  0  0  0  0  0  0
   51.5133   52.5251   18.3474 O   0  0  0  0  0  0  0  0  0  0  0  0
   50.7995   54.6272   18.7652 C   0  0  1  0  0  0  0  0  0  0  0  0
   49.6699   55.4502   18.8245 O   0  0  0  0  0  0  0  0  0  0  0  0
   51.0839   53.8105   20.1153 C   0  0  1  0  0  0  0  0  0  0  0  0
   50.0618   52.8666   20.4674 O   0  0  0  0  0  0  0  0  0  0  0  0
   52.2801   53.2043   19.4181 C   0  0  1  0  0  0  0  0  0  0  0  0
   53.0778   59.4285   14.2753 O   0  0  0  0  0  0  0  0  0  0  0  0
   53.3840   50.2037   23.2971 N   0  0  0  0  0  0  0  0  0  0  0  0
   52.4707   51.1667   23.1633 C   0  0  0  0  0  0  0  0  0  0  0  0
   52.3014   51.8206   22.0147 N   0  0  0  0  0  0  0  0  0  0  0  0
   53.1291   51.6239   20.9798 C   0  0  0  0  0  0  0  0  0  0  0  0
   54.1660   50.6454   21.1069 C   0  0  0  0  0  0  0  0  0  0  0  0
   54.2503   49.9266   22.3310 C   0  0  0  0  0  0  0  0  0  0  0  0
   55.2000   48.9635   22.5265 N   0  0  0  0  0  0  0  0  0  0  0  0
   54.8530   50.6431   19.9479 N   0  0  0  0  0  0  0  0  0  0  0  0
   54.3339   51.5324   19.1302 C   0  0  0  0  0  0  0  0  0  0  0  0
   53.2550   52.1656   19.6966 N   0  0  0  0  0  0  0  0  0  0  0  0
  2  1  1  1  0  0  0
  2  3  1  0  0  0  0
  2  5  1  0  0  0  0
  3  4  1  0  0  0  0
  3 17  1  0  0  0  0
  5  6  1  0  0  0  0
  7  6  1  6  0  0  0
  7  8  1  0  0  0  0
  7  9  1  0  0  0  0
 10  9  1  6  0  0  0
 10 11  1  0  0  0  0
 10 12  1  0  0  0  0
 11 16  1  0  0  0  0
 12 13  1  1  0  0  0
 12 14  1  0  0  0  0
 14 15  1  6  0  0  0
 14 16  1  0  0  0  0
 16 27  1  1  0  0  0
 18 19  2  0  0  0  0
 18 23  1  0  0  0  0
 19 20  1  0  0  0  0
 20 21  2  0  0  0  0
 21 22  1  0  0  0  0
 21 27  1  0  0  0  0
 22 23  2  0  0  0  0
 22 25  1  0  0  0  0
 23 24  1  0  0  0  0
 25 26  2  0  0  0  0
 26 27  1  0  0  0  0
M  END
>  <CHROM.1>
131.37974738,-170.73371879,118.94324871,-60.24577925,-105.12758266,-69.93267272
-114.51519792,52.65188254,53.80780490,18.18928538,-1.61685811,-0.36886084
2.28262951

>  <Name>
ligand

>  <RI>
0

>  <Rbt.Current_Directory>
/home/itssahil/PROJECTS/Mol_Feturizer/New_Systems/rnas/3IQN

>  <Rbt.Executable>
rbdock ($Id: //depot/dev/client3/rdock/2013.1/src/exe/rbdock.cxx#4 $)

>  <Rbt.Library>
libRbt.so (2013.1, Build901 2013/11/27)

>  <Rbt.Parameter_File>
/export/apps/rDock/src/rDock_2013.1_src/data/scripts/dock_solv.prm

>  <Rbt.Receptor>
prm/blind_docking_100.prm

>  <SCORE>
-15.4652

>  <SCORE.INTER>
-15.5756

>  <SCORE.INTER.CONST>
1

>  <SCORE.INTER.POLAR>
0

>  <SCORE.INTER.ROT>
7

>  <SCORE.INTER.SOLV>
13.1693

>  <SCORE.INTER.VDW>
-23.0402

>  <SCORE.INTER.norm>
-0.576873

>  <SCORE.INTRA>
-0.11598

>  <SCORE.INTRA.DIHEDRAL>
2.76212

>  <SCORE.INTRA.DIHEDRAL.0>
10.0365

>  <SCORE.INTRA.POLAR>
0

>  <SCORE.INTRA.POLAR.0>
0

>  <SCORE.INTRA.REPUL>
0

>  <SCORE.INTRA.REPUL.0>
0

>  <SCORE.INTRA.SOLV>
-0.514386

>  <SCORE.INTRA.SOLV.lig_0>
-48.6728

>  <SCORE.INTRA.VDW>
-1.23985

>  <SCORE.INTRA.VDW.0>
-1.10662

>  <SCORE.INTRA.norm>
-0.00429556

>  <SCORE.RESTR>
0.226312

>  <SCORE.RESTR.CAVITY>
0.226312

>  <SCORE.RESTR.norm>
0.00838193

>  <SCORE.SYSTEM>
0

>  <SCORE.SYSTEM.CONST>
0

>  <SCORE.SYSTEM.DIHEDRAL>
0

>  <SCORE.SYSTEM.SOLV>
0

>  <SCORE.SYSTEM.norm>
0

>  <SCORE.heavy>
27

>  <SCORE.norm>
-0.572787

>  <RMSD>
14.817

$$$$
ligand
 OpenBabel11021811483D
libRbt.so/2013.1/901 2013/11/27
 27 29  0  0  0  0  0  0  0  0999 V2000
   50.5806   54.0338   24.4391 N   0  0  0  0  0  0  0  0  0  0  0  0
   50.4110   54.7064   23.1445 C   0  0  2  0  0  0  0  0  0  0  0  0
   49.0114   55.2378   23.0651 C   0  0  0  0  0  0  0  0  0  0  0  0
   48.3446   55.3517   24.0812 O   0  0  0  0  0  0  0  0  0  0  0  0
   50.6477   53.7166   21.9940 C   0  0  0  0  0  0  0  0  0  0  0  0
   52.0711   53.1758   22.0920 C   0  0  0  0  0  0  0  0  0  0  0  0
   52.4261   51.8465   20.8985 S   0  0  2  0  0  0  0  0  0  0  0  0
   53.7409   50.8654   21.6852 C   0  0  0  0  0  0  0  0  0  0  0  0
   53.3808   52.4871   19.4758 C   0  0  0  0  0  0  0  0  0  0  0  0
   52.4257   53.4636   18.8344 C   0  0  1  0  0  0  0  0  0  0  0  0
   53.1154   53.9191   17.7174 O   0  0  0  0  0  0  0  0  0  0  0  0
   51.1061   53.0108   18.2078 C   0  0  1  0  0  0  0  0  0  0  0  0
   50.0441   53.0317   19.1181 O   0  0  0  0  0  0  0  0  0  0  0  0
   50.9984   54.1184   17.0536 C   0  0  1  0  0  0  0  0  0  0  0  0
   51.0510   55.4741   17.5216 O   0  0  0  0  0  0  0  0  0  0  0  0
   52.3097   53.5917   16.5176 C   0  0  1  0  0  0  0  0  0  0  0  0
   48.5499   55.5693   21.9845 O   0  0  0  0  0  0  0  0  0  0  0  0
   53.8848   57.8822   14.4251 N   0  0  0  0  0  0  0  0  0  0  0  0
   52.9577   57.6466   15.3548 C   0  0  0  0  0  0  0  0  0  0  0  0
   52.7233   56.4198   15.8189 N   0  0  0  0  0  0  0  0  0  0  0  0
   53.3240   55.3508   15.2791 C   0  0  0  0  0  0  0  0  0  0  0  0
   54.2774   55.5559   14.2313 C   0  0  0  0  0  0  0  0  0  0  0  0
   54.5404   56.8943   13.8293 C   0  0  0  0  0  0  0  0  0  0  0  0
   55.4494   57.1770   12.8488 N   0  0  0  0  0  0  0  0  0  0  0  0
   54.7274   54.3409   13.8617 N   0  0  0  0  0  0  0  0  0  0  0  0
   54.1328   53.4163   14.5831 C   0  0  0  0  0  0  0  0  0  0  0  0
   53.2633   53.9698   15.4906 N   0  0  0  0  0  0  0  0  0  0  0  0
  2  1  1  1  0  0  0
  2  3  1  0  0  0  0
  2  5  1  0  0  0  0
  3  4  1  0  0  0  0
  3 17  1  0  0  0  0
  5  6  1  0  0  0  0
  7  6  1  1  0  0  0
  7  8  1  0  0  0  0
  7  9  1  0  0  0  0
 10  9  1  6  0  0  0
 10 11  1  0  0  0  0
 10 12  1  0  0  0  0
 11 16  1  0  0  0  0
 12 13  1  1  0  0  0
 12 14  1  0  0  0  0
 14 15  1  1  0  0  0
 14 16  1  0  0  0  0
 16 27  1  6  0  0  0
 18 19  2  0  0  0  0
 18 23  1  0  0  0  0
 19 20  1  0  0  0  0
 20 21  2  0  0  0  0
 21 22  1  0  0  0  0
 21 27  1  0  0  0  0
 22 23  2  0  0  0  0
 22 25  1  0  0  0  0
 23 24  1  0  0  0  0
 25 26  2  0  0  0  0
 26 27  1  0  0  0  0
M  END
>  <CHROM.1>
17.02279955,-60.33056701,173.43329349,-153.27628832,-64.08472251,-177.59596622
-78.47547261,52.15106940,54.37169300,18.51855399,2.22922439,-0.87217968,2.34809221

>  <Name>
ligand

>  <RI>
0

>  <Rbt.Current_Directory>
/home/itssahil/PROJECTS/Mol_Feturizer/New_Systems/rnas/3IQN

>  <Rbt.Executable>
rbdock ($Id: //depot/dev/client3/rdock/2013.1/src/exe/rbdock.cxx#4 $)

>  <Rbt.Library>
libRbt.so (2013.1, Build901 2013/11/27)

>  <Rbt.Parameter_File>
/export/apps/rDock/src/rDock_2013.1_src/data/scripts/dock_solv.prm

>  <Rbt.Receptor>
prm/blind_docking_100.prm

>  <SCORE>
-19.1811

>  <SCORE.INTER>
-16.3694

>  <SCORE.INTER.CONST>
1

>  <SCORE.INTER.POLAR>
0

>  <SCORE.INTER.ROT>
7

>  <SCORE.INTER.SOLV>
10.0127

>  <SCORE.INTER.VDW>
-22.5172

>  <SCORE.INTER.norm>
-0.606274

>  <SCORE.INTRA>
-2.81173

>  <SCORE.INTRA.DIHEDRAL>
-4.0695

>  <SCORE.INTRA.DIHEDRAL.0>
10.0365

>  <SCORE.INTRA.POLAR>
0

>  <SCORE.INTRA.POLAR.0>
0

>  <SCORE.INTRA.REPUL>
0

>  <SCORE.INTRA.REPUL.0>
0

>  <SCORE.INTRA.SOLV>
0.369133

>  <SCORE.INTRA.SOLV.lig_0>
-48.6728

>  <SCORE.INTRA.VDW>
-0.961553

>  <SCORE.INTRA.VDW.0>
-1.10662

>  <SCORE.INTRA.norm>
-0.104138

>  <SCORE.RESTR>
0

>  <SCORE.RESTR.CAVITY>
0

>  <SCORE.RESTR.norm>
0

>  <SCORE.SYSTEM>
0

>  <SCORE.SYSTEM.CONST>
0

>  <SCORE.SYSTEM.DIHEDRAL>
0

>  <SCORE.SYSTEM.SOLV>
0

>  <SCORE.SYSTEM.norm>
0

>  <SCORE.heavy>
27

>  <SCORE.norm>
-0.710413

>  <RMSD>
14.964

$$$$
ligand
 OpenBabel11021811483D
libRbt.so/2013.1/901 2013/11/27
 27 29  0  0  0  0  0  0  0  0999 V2000
   57.6047   59.3581   16.4827 N   0  0  0  0  0  0  0  0  0  0  0  0
   57.9002   58.2689   17.4227 C   0  0  2  0  0  0  0  0  0  0  0  0
   59.1869   57.6204   17.0090 C   0  0  0  0  0  0  0  0  0  0  0  0
   59.7557   56.8547   17.7708 O   0  0  0  0  0  0  0  0  0  0  0  0
   56.7727   57.2259   17.4020 C   0  0  0  0  0  0  0  0  0  0  0  0
   56.6793   56.6264   16.0020 C   0  0  0  0  0  0  0  0  0  0  0  0
   55.3145   55.4353   15.8122 S   0  0  2  0  0  0  0  0  0  0  0  0
   53.8805   56.4540   15.3471 C   0  0  0  0  0  0  0  0  0  0  0  0
   54.7205   54.8609   17.4441 C   0  0  0  0  0  0  0  0  0  0  0  0
   54.0135   53.5689   17.1157 C   0  0  1  0  0  0  0  0  0  0  0  0
   53.5233   53.1365   18.3419 O   0  0  0  0  0  0  0  0  0  0  0  0
   52.7477   53.5351   16.2581 C   0  0  1  0  0  0  0  0  0  0  0  0
   53.0257   53.3803   14.8959 O   0  0  0  0  0  0  0  0  0  0  0  0
   52.0398   52.2624   16.9287 C   0  0  1  0  0  0  0  0  0  0  0  0
   52.8389   51.0703   16.9346 O   0  0  0  0  0  0  0  0  0  0  0  0
   52.0496   53.0271   18.2323 C   0  0  1  0  0  0  0  0  0  0  0  0
   59.6526   57.8495   15.9038 O   0  0  0  0  0  0  0  0  0  0  0  0
   48.5286   54.4784   21.5133 N   0  0  0  0  0  0  0  0  0  0  0  0
   48.7452   54.8288   20.2446 C   0  0  0  0  0  0  0  0  0  0  0  0
   49.7193   54.2797   19.5200 N   0  0  0  0  0  0  0  0  0  0  0  0
   50.6041   53.4409   20.0753 C   0  0  0  0  0  0  0  0  0  0  0  0
   50.4459   53.0913   21.4542 C   0  0  0  0  0  0  0  0  0  0  0  0
   49.3434   53.6516   22.1562 C   0  0  0  0  0  0  0  0  0  0  0  0
   49.1113   53.3547   23.4698 N   0  0  0  0  0  0  0  0  0  0  0  0
   51.4515   52.2512   21.7679 N   0  0  0  0  0  0  0  0  0  0  0  0
   52.2091   52.0618   20.7101 C   0  0  0  0  0  0  0  0  0  0  0  0
   51.7355   52.7547   19.6230 N   0  0  0  0  0  0  0  0  0  0  0  0
  2  1  1  6  0  0  0
  2  3  1  0  0  0  0
  2  5  1  0  0  0  0
  3  4  1  0  0  0  0
  3 17  1  0  0  0  0
  5  6  1  0  0  0  0
  7  6  1  1  0  0  0
  7  8  1  0  0  0  0
  7  9  1  0  0  0  0
 10  9  1  1  0  0  0
 10 11  1  0  0  0  0
 10 12  1  0  0  0  0
 11 16  1  0  0  0  0
 12 13  1  6  0  0  0
 12 14  1  0  0  0  0
 14 15  1  1  0  0  0
 14 16  1  0  0  0  0
 16 27  1  1  0  0  0
 18 19  2  0  0  0  0
 18 23  1  0  0  0  0
 19 20  1  0  0  0  0
 20 21  2  0  0  0  0
 21 22  1  0  0  0  0
 21 27  1  0  0  0  0
 22 23  2  0  0  0  0
 22 25  1  0  0  0  0
 23 24  1  0  0  0  0
 25 26  2  0  0  0  0
 26 27  1  0  0  0  0
M  END
>  <CHROM.1>
166.78469796,61.69276901,-176.78445349,87.60060386,-159.57385789,-178.42070176
138.71480403,53.66104104,54.67985885,18.15369481,-0.18151680,0.63594585,1.05239088

>  <Name>
ligand

>  <RI>
0

>  <Rbt.Current_Directory>
/home/itssahil/PROJECTS/Mol_Feturizer/New_Systems/rnas/3IQN

>  <Rbt.Executable>
rbdock ($Id: //depot/dev/client3/rdock/2013.1/src/exe/rbdock.cxx#4 $)

>  <Rbt.Library>
libRbt.so (2013.1, Build901 2013/11/27)

>  <Rbt.Parameter_File>
/export/apps/rDock/src/rDock_2013.1_src/data/scripts/dock_solv.prm

>  <Rbt.Receptor>
prm/blind_docking_100.prm

>  <SCORE>
-15.9717

>  <SCORE.INTER>
-14.9578

>  <SCORE.INTER.CONST>
1

>  <SCORE.INTER.POLAR>
0

>  <SCORE.INTER.ROT>
7

>  <SCORE.INTER.SOLV>
13.5234

>  <SCORE.INTER.VDW>
-22.7463

>  <SCORE.INTER.norm>
-0.553993

>  <SCORE.INTRA>
-1.01388

>  <SCORE.INTRA.DIHEDRAL>
-2.28194

>  <SCORE.INTRA.DIHEDRAL.0>
10.0365

>  <SCORE.INTRA.POLAR>
0

>  <SCORE.INTRA.POLAR.0>
0

>  <SCORE.INTRA.REPUL>
0

>  <SCORE.INTRA.REPUL.0>
0

>  <SCORE.INTRA.SOLV>
-0.157303

>  <SCORE.INTRA.SOLV.lig_0>
-48.6728

>  <SCORE.INTRA.VDW>
0.20574

>  <SCORE.INTRA.VDW.0>
-1.10662

>  <SCORE.INTRA.norm>
-0.0375511

>  <SCORE.RESTR>
0

>  <SCORE.RESTR.CAVITY>
0

>  <SCORE.RESTR.norm>
0

>  <SCORE.SYSTEM>
0

>  <SCORE.SYSTEM.CONST>
0

>  <SCORE.SYSTEM.DIHEDRAL>
0

>  <SCORE.SYSTEM.SOLV>
0

>  <SCORE.SYSTEM.norm>
0

>  <SCORE.heavy>
27

>  <SCORE.norm>
-0.591544

>  <RMSD>
15.015

$$$$
ligand
 OpenBabel11021811483D
libRbt.so/2013.1/901 2013/11/27
 27 29  0  0  0  0  0  0  0  0999 V2000
   50.1932   43.7171   22.8313 N   0  0  0  0  0  0  0  0  0  0  0  0
   51.0120   42.4996   22.7624 C   0  0  2  0  0  0  0  0  0  0  0  0
   50.6342   41.6078   23.9066 C   0  0  0  0  0  0  0  0  0  0  0  0
   50.4718   42.0811   25.0201 O   0  0  0  0  0  0  0  0  0  0  0  0
   52.5034   42.8535   22.8613 C   0  0  0  0  0  0  0  0  0  0  0  0
   53.0078   43.2600   21.4797 C   0  0  0  0  0  0  0  0  0  0  0  0
   54.8117   43.0966   21.2888 S   0  0  2  0  0  0  0  0  0  0  0  0
   55.2723   41.7563   22.4298 C   0  0  0  0  0  0  0  0  0  0  0  0
   55.6817   44.4728   22.1226 C   0  0  0  0  0  0  0  0  0  0  0  0
   55.4278   45.6439   21.2056 C   0  0  1  0  0  0  0  0  0  0  0  0
   54.9437   46.6322   22.0539 O   0  0  0  0  0  0  0  0  0  0  0  0
   56.5678   46.3834   20.5037 C   0  0  1  0  0  0  0  0  0  0  0  0
   56.8618   45.8470   19.2457 O   0  0  0  0  0  0  0  0  0  0  0  0
   55.9082   47.8439   20.4528 C   0  0  1  0  0  0  0  0  0  0  0  0
   54.6244   47.8961   19.8136 O   0  0  0  0  0  0  0  0  0  0  0  0
   55.8527   47.7989   21.9625 C   0  0  1  0  0  0  0  0  0  0  0  0
   50.4751   40.4123   23.7158 O   0  0  0  0  0  0  0  0  0  0  0  0
   52.5553   51.5784   22.2961 N   0  0  0  0  0  0  0  0  0  0  0  0
   53.0325   50.9194   21.2390 C   0  0  0  0  0  0  0  0  0  0  0  0
   53.8754   49.8959   21.3703 N   0  0  0  0  0  0  0  0  0  0  0  0
   54.3784   49.5647   22.5671 C   0  0  0  0  0  0  0  0  0  0  0  0
   53.9421   50.2925   23.7198 C   0  0  0  0  0  0  0  0  0  0  0  0
   52.9846   51.3259   23.5260 C   0  0  0  0  0  0  0  0  0  0  0  0
   52.5033   52.0559   24.5762 N   0  0  0  0  0  0  0  0  0  0  0  0
   54.5899   49.7768   24.7826 N   0  0  0  0  0  0  0  0  0  0  0  0
   55.3831   48.8073   24.3830 C   0  0  0  0  0  0  0  0  0  0  0  0
   55.2919   48.6109   23.0269 N   0  0  0  0  0  0  0  0  0  0  0  0
  2  1  1  1  0  0  0
  2  3  1  0  0  0  0
  2  5  1  0  0  0  0
  3  4  1  0  0  0  0
  3 17  1  0  0  0  0
  5  6  1  0  0  0  0
  7  6  1  1  0  0  0
  7  8  1  0  0  0  0
  7  9  1  0  0  0  0
 10  9  1  1  0  0  0
 10 11  1  0  0  0  0
 10 12  1  0  0  0  0
 11 16  1  0  0  0  0
 12 13  1  6  0  0  0
 12 14  1  0  0  0  0
 14 15  1  6  0  0  0
 14 16  1  0  0  0  0
 16 27  1  6  0  0  0
 18 19  2  0  0  0  0
 18 23  1  0  0  0  0
 19 20  1  0  0  0  0
 20 21  2  0  0  0  0
 21 22  1  0  0  0  0
 21 27  1  0  0  0  0
 22 23  2  0  0  0  0
 22 25  1  0  0  0  0
 23 24  1  0  0  0  0
 25 26  2  0  0  0  0
 26 27  1  0  0  0  0
M  END
>  <CHROM.1>
-43.47655382,-83.09698044,-158.10888150,28.47858041,-73.84135315,128.86594669
-95.96900704,53.84694494,46.25783377,22.33765269,1.85525614,-0.61614147,-3.00831936

>  <Name>
ligand

>  <RI>
0

>  <Rbt.Current_Directory>
/home/itssahil/PROJECTS/Mol_Feturizer/New_Systems/rnas/3IQN

>  <Rbt.Executable>
rbdock ($Id: //depot/dev/client3/rdock/2013.1/src/exe/rbdock.cxx#4 $)

>  <Rbt.Library>
libRbt.so (2013.1, Build901 2013/11/27)

>  <Rbt.Parameter_File>
/export/apps/rDock/src/rDock_2013.1_src/data/scripts/dock_solv.prm

>  <Rbt.Receptor>
prm/blind_docking_80.prm

>  <SCORE>
-13.0358

>  <SCORE.INTER>
-14.034

>  <SCORE.INTER.CONST>
1

>  <SCORE.INTER.POLAR>
0

>  <SCORE.INTER.ROT>
7

>  <SCORE.INTER.SOLV>
15.9358

>  <SCORE.INTER.VDW>
-22.9346

>  <SCORE.INTER.norm>
-0.519777

>  <SCORE.INTRA>
0.963967

>  <SCORE.INTRA.DIHEDRAL>
3.15076

>  <SCORE.INTRA.DIHEDRAL.0>
10.0365

>  <SCORE.INTRA.POLAR>
0

>  <SCORE.INTRA.POLAR.0>
0

>  <SCORE.INTRA.REPUL>
0

>  <SCORE.INTRA.REPUL.0>
0

>  <SCORE.INTRA.SOLV>
-0.410708

>  <SCORE.INTRA.SOLV.lig_0>
-48.6728

>  <SCORE.INTRA.VDW>
-0.406058

>  <SCORE.INTRA.VDW.0>
-1.10662

>  <SCORE.INTRA.norm>
0.0357025

>  <SCORE.RESTR>
0.0342077

>  <SCORE.RESTR.CAVITY>
0.0342077

>  <SCORE.RESTR.norm>
0.00126695

>  <SCORE.SYSTEM>
0

>  <SCORE.SYSTEM.CONST>
0

>  <SCORE.SYSTEM.DIHEDRAL>
0

>  <SCORE.SYSTEM.SOLV>
0

>  <SCORE.SYSTEM.norm>
0

>  <SCORE.heavy>
27

>  <SCORE.norm>
-0.482807

>  <RMSD>
15.015

$$$$
ligand
 OpenBabel11021811483D
libRbt.so/2013.1/901 2013/11/27
 27 29  0  0  0  0  0  0  0  0999 V2000
   58.5457   47.3879   14.9278 N   0  0  0  0  0  0  0  0  0  0  0  0
   59.1135   46.8111   16.1535 C   0  0  2  0  0  0  0  0  0  0  0  0
   60.1961   45.8484   15.7680 C   0  0  0  0  0  0  0  0  0  0  0  0
   61.2926   45.9200   16.2997 O   0  0  0  0  0  0  0  0  0  0  0  0
   58.0276   46.0682   16.9461 C   0  0  0  0  0  0  0  0  0  0  0  0
   56.8651   47.0219   17.2056 C   0  0  0  0  0  0  0  0  0  0  0  0
   56.0429   46.7449   18.8071 S   0  0  2  0  0  0  0  0  0  0  0  0
   54.6333   45.6631   18.4158 C   0  0  0  0  0  0  0  0  0  0  0  0
   55.1089   48.2301   19.3245 C   0  0  0  0  0  0  0  0  0  0  0  0
   55.5466   48.4285   20.7550 C   0  0  1  0  0  0  0  0  0  0  0  0
   54.8970   49.5938   21.1433 O   0  0  0  0  0  0  0  0  0  0  0  0
   55.1295   47.4673   21.8690 C   0  0  1  0  0  0  0  0  0  0  0  0
   56.0442   46.4243   22.0490 O   0  0  0  0  0  0  0  0  0  0  0  0
   55.0860   48.5142   23.0826 C   0  0  1  0  0  0  0  0  0  0  0  0
   56.3074   49.2388   23.2887 O   0  0  0  0  0  0  0  0  0  0  0  0
   54.0346   49.2713   22.3044 C   0  0  1  0  0  0  0  0  0  0  0  0
   59.9707   44.9859   14.9338 O   0  0  0  0  0  0  0  0  0  0  0  0
   52.0999   52.0061   26.0523 N   0  0  0  0  0  0  0  0  0  0  0  0
   52.7044   50.8170   26.0535 C   0  0  0  0  0  0  0  0  0  0  0  0
   53.2003   50.2792   24.9399 N   0  0  0  0  0  0  0  0  0  0  0  0
   53.0008   50.8551   23.7468 C   0  0  0  0  0  0  0  0  0  0  0  0
   52.2970   52.1003   23.6952 C   0  0  0  0  0  0  0  0  0  0  0  0
   51.8565   52.6623   24.9250 C   0  0  0  0  0  0  0  0  0  0  0  0
   51.1933   53.8565   24.9643 N   0  0  0  0  0  0  0  0  0  0  0  0
   52.2255   52.4617   22.3992 N   0  0  0  0  0  0  0  0  0  0  0  0
   52.8154   51.5500   21.6579 C   0  0  0  0  0  0  0  0  0  0  0  0
   53.3314   50.5353   22.4261 N   0  0  0  0  0  0  0  0  0  0  0  0
  2  1  1  6  0  0  0
  2  3  1  0  0  0  0
  2  5  1  0  0  0  0
  3  4  1  0  0  0  0
  3 17  1  0  0  0  0
  5  6  1  0  0  0  0
  7  6  1  6  0  0  0
  7  8  1  0  0  0  0
  7  9  1  0  0  0  0
 10  9  1  6  0  0  0
 10 11  1  0  0  0  0
 10 12  1  0  0  0  0
 11 16  1  0  0  0  0
 12 13  1  1  0  0  0
 12 14  1  0  0  0  0
 14 15  1  6  0  0  0
 14 16  1  0  0  0  0
 16 27  1  1  0  0  0
 18 19  2  0  0  0  0
 18 23  1  0  0  0  0
 19 20  1  0  0  0  0
 20 21  2  0  0  0  0
 21 22  1  0  0  0  0
 21 27  1  0  0  0  0
 22 23  2  0  0  0  0
 22 25  1  0  0  0  0
 23 24  1  0  0  0  0
 25 26  2  0  0  0  0
 26 27  1  0  0  0  0
M  END
>  <CHROM.1>
130.11876191,-54.86141675,-145.75803440,-95.30396172,-131.39175534,177.10973228
-147.47364578,55.37866499,48.72168328,20.70304486,0.48171712,0.91164046,-1.18939930

>  <Name>
ligand

>  <RI>
0

>  <Rbt.Current_Directory>
/home/itssahil/PROJECTS/Mol_Feturizer/New_Systems/rnas/3IQN

>  <Rbt.Executable>
rbdock ($Id: //depot/dev/client3/rdock/2013.1/src/exe/rbdock.cxx#4 $)

>  <Rbt.Library>
libRbt.so (2013.1, Build901 2013/11/27)

>  <Rbt.Parameter_File>
/export/apps/rDock/src/rDock_2013.1_src/data/scripts/dock_solv.prm

>  <Rbt.Receptor>
prm/blind_docking_80.prm

>  <SCORE>
-19.245

>  <SCORE.INTER>
-19.2102

>  <SCORE.INTER.CONST>
1

>  <SCORE.INTER.POLAR>
0

>  <SCORE.INTER.ROT>
7

>  <SCORE.INTER.SOLV>
14.6641

>  <SCORE.INTER.VDW>
-25.9615

>  <SCORE.INTER.norm>
-0.711487

>  <SCORE.INTRA>
-0.0348769

>  <SCORE.INTRA.DIHEDRAL>
2.8683

>  <SCORE.INTRA.DIHEDRAL.0>
10.0365

>  <SCORE.INTRA.POLAR>
0

>  <SCORE.INTRA.POLAR.0>
0

>  <SCORE.INTRA.REPUL>
0

>  <SCORE.INTRA.REPUL.0>
0

>  <SCORE.INTRA.SOLV>
-0.182886

>  <SCORE.INTRA.SOLV.lig_0>
-48.6728

>  <SCORE.INTRA.VDW>
-1.37758

>  <SCORE.INTRA.VDW.0>
-1.10662

>  <SCORE.INTRA.norm>
-0.00129174

>  <SCORE.RESTR>
0

>  <SCORE.RESTR.CAVITY>
0

>  <SCORE.RESTR.norm>
0

>  <SCORE.SYSTEM>
0

>  <SCORE.SYSTEM.CONST>
0

>  <SCORE.SYSTEM.DIHEDRAL>
0

>  <SCORE.SYSTEM.SOLV>
0

>  <SCORE.SYSTEM.norm>
0

>  <SCORE.heavy>
27

>  <SCORE.norm>
-0.712779

>  <RMSD>
15.018

$$$$
ligand
 OpenBabel11021811483D
libRbt.so/2013.1/901 2013/11/27
 27 29  0  0  0  0  0  0  0  0999 V2000
   52.6508   38.9532   30.1353 N   0  0  0  0  0  0  0  0  0  0  0  0
   52.5692   40.3723   30.5051 C   0  0  2  0  0  0  0  0  0  0  0  0
   53.9569   40.8754   30.7670 C   0  0  0  0  0  0  0  0  0  0  0  0
   54.1504   42.0687   30.9366 O   0  0  0  0  0  0  0  0  0  0  0  0
   51.7157   40.5455   31.7704 C   0  0  0  0  0  0  0  0  0  0  0  0
   51.3831   42.0246   31.9438 C   0  0  0  0  0  0  0  0  0  0  0  0
   49.9494   42.3238   33.0266 S   0  0  2  0  0  0  0  0  0  0  0  0
   48.6011   42.7658   31.8877 C   0  0  0  0  0  0  0  0  0  0  0  0
   50.1103   43.9278   33.8910 C   0  0  0  0  0  0  0  0  0  0  0  0
   50.4095   43.5218   35.3132 C   0  0  1  0  0  0  0  0  0  0  0  0
   51.7135   43.0453   35.2562 O   0  0  0  0  0  0  0  0  0  0  0  0
   50.5145   44.5482   36.4421 C   0  0  1  0  0  0  0  0  0  0  0  0
   49.2901   44.7718   37.0805 O   0  0  0  0  0  0  0  0  0  0  0  0
   51.5965   43.7915   37.3518 C   0  0  1  0  0  0  0  0  0  0  0  0
   51.2265   42.4585   37.7333 O   0  0  0  0  0  0  0  0  0  0  0  0
   52.5402   43.8645   36.1735 C   0  0  1  0  0  0  0  0  0  0  0  0
   54.8864   40.0858   30.8251 O   0  0  0  0  0  0  0  0  0  0  0  0
   55.8047   44.4331   32.3934 N   0  0  0  0  0  0  0  0  0  0  0  0
   54.5892   44.9466   32.5895 C   0  0  0  0  0  0  0  0  0  0  0  0
   53.8965   44.7084   33.7025 N   0  0  0  0  0  0  0  0  0  0  0  0
   54.3408   43.8387   34.6196 C   0  0  0  0  0  0  0  0  0  0  0  0
   55.6120   43.2141   34.4135 C   0  0  0  0  0  0  0  0  0  0  0  0
   56.3389   43.5647   33.2426 C   0  0  0  0  0  0  0  0  0  0  0  0
   57.5677   43.0271   32.9805 N   0  0  0  0  0  0  0  0  0  0  0  0
   55.8239   42.3922   35.4598 N   0  0  0  0  0  0  0  0  0  0  0  0
   54.7981   42.4548   36.2798 C   0  0  0  0  0  0  0  0  0  0  0  0
   53.8501   43.3413   35.8310 N   0  0  0  0  0  0  0  0  0  0  0  0
  2  1  1  1  0  0  0
  2  3  1  0  0  0  0
  2  5  1  0  0  0  0
  3  4  1  0  0  0  0
  3 17  1  0  0  0  0
  5  6  1  0  0  0  0
  7  6  1  6  0  0  0
  7  8  1  0  0  0  0
  7  9  1  0  0  0  0
 10  9  1  6  0  0  0
 10 11  1  0  0  0  0
 10 12  1  0  0  0  0
 11 16  1  0  0  0  0
 12 13  1  1  0  0  0
 12 14  1  0  0  0  0
 14 15  1  6  0  0  0
 14 16  1  0  0  0  0
 16 27  1  1  0  0  0
 18 19  2  0  0  0  0
 18 23  1  0  0  0  0
 19 20  1  0  0  0  0
 20 21  2  0  0  0  0
 21 22  1  0  0  0  0
 21 27  1  0  0  0  0
 22 23  2  0  0  0  0
 22 25  1  0  0  0  0
 23 24  1  0  0  0  0
 25 26  2  0  0  0  0
 26 27  1  0  0  0  0
M  END
>  <CHROM.1>
171.33202288,-167.08729686,160.21814166,-104.73474091,-107.87269631,72.01930588
76.88704727,52.74717855,42.76328577,33.75907512,0.91327035,-0.08188581,-2.07916561

>  <Name>
ligand

>  <RI>
0

>  <Rbt.Current_Directory>
/home/itssahil/PROJECTS/Mol_Feturizer/New_Systems/rnas/3IQN

>  <Rbt.Executable>
rbdock ($Id: //depot/dev/client3/rdock/2013.1/src/exe/rbdock.cxx#4 $)

>  <Rbt.Library>
libRbt.so (2013.1, Build901 2013/11/27)

>  <Rbt.Parameter_File>
/export/apps/rDock/src/rDock_2013.1_src/data/scripts/dock_solv.prm

>  <Rbt.Receptor>
prm/blind_docking_80.prm

>  <SCORE>
-5.277

>  <SCORE.INTER>
-3.55608

>  <SCORE.INTER.CONST>
1

>  <SCORE.INTER.POLAR>
0

>  <SCORE.INTER.ROT>
7

>  <SCORE.INTER.SOLV>
11.5407

>  <SCORE.INTER.VDW>
-14.4843

>  <SCORE.INTER.norm>
-0.131707

>  <SCORE.INTRA>
-1.72116

>  <SCORE.INTRA.DIHEDRAL>
2.17979

>  <SCORE.INTRA.DIHEDRAL.0>
10.0365

>  <SCORE.INTRA.POLAR>
0

>  <SCORE.INTRA.POLAR.0>
0

>  <SCORE.INTRA.REPUL>
0

>  <SCORE.INTRA.REPUL.0>
0

>  <SCORE.INTRA.SOLV>
-1.0914

>  <SCORE.INTRA.SOLV.lig_0>
-48.6728

>  <SCORE.INTRA.VDW>
-2.26536

>  <SCORE.INTRA.VDW.0>
-1.10662

>  <SCORE.INTRA.norm>
-0.0637468

>  <SCORE.RESTR>
0.00024898

>  <SCORE.RESTR.CAVITY>
0.00024898

>  <SCORE.RESTR.norm>
9.22149e-06

>  <SCORE.SYSTEM>
0

>  <SCORE.SYSTEM.CONST>
0

>  <SCORE.SYSTEM.DIHEDRAL>
0

>  <SCORE.SYSTEM.SOLV>
0

>  <SCORE.SYSTEM.norm>
0

>  <SCORE.heavy>
27

>  <SCORE.norm>
-0.195444

>  <RMSD>
15.108

$$$$
ligand
 OpenBabel11021811483D
libRbt.so/2013.1/901 2013/11/27
 27 29  0  0  0  0  0  0  0  0999 V2000
   54.1130   58.4039   12.2823 N   0  0  0  0  0  0  0  0  0  0  0  0
   52.7364   58.1367   12.7189 C   0  0  2  0  0  0  0  0  0  0  0  0
   51.8380   59.1771   12.1207 C   0  0  0  0  0  0  0  0  0  0  0  0
   52.3068   60.2331   11.7265 O   0  0  0  0  0  0  0  0  0  0  0  0
   52.6410   58.1990   14.2507 C   0  0  0  0  0  0  0  0  0  0  0  0
   53.3561   56.9869   14.8403 C   0  0  0  0  0  0  0  0  0  0  0  0
   53.1384   56.8210   16.6410 S   0  0  2  0  0  0  0  0  0  0  0  0
   54.0205   58.2499   17.3414 C   0  0  0  0  0  0  0  0  0  0  0  0
   54.2051   55.4920   17.3058 C   0  0  0  0  0  0  0  0  0  0  0  0
   53.3565   54.2556   17.1378 C   0  0  1  0  0  0  0  0  0  0  0  0
   52.3506   54.4112   18.0838 O   0  0  0  0  0  0  0  0  0  0  0  0
   52.5393   54.0018   15.8703 C   0  0  1  0  0  0  0  0  0  0  0  0
   53.2517   53.2790   14.9076 O   0  0  0  0  0  0  0  0  0  0  0  0
   51.3240   53.1898   16.5293 C   0  0  1  0  0  0  0  0  0  0  0  0
   51.7182   52.0304   17.2776 O   0  0  0  0  0  0  0  0  0  0  0  0
   51.0506   54.4139   17.3726 C   0  0  1  0  0  0  0  0  0  0  0  0
   50.6416   58.9565   12.0161 O   0  0  0  0  0  0  0  0  0  0  0  0
   50.3919   52.8491   22.1040 N   0  0  0  0  0  0  0  0  0  0  0  0
   51.2119   52.4207   21.1430 C   0  0  0  0  0  0  0  0  0  0  0  0
   51.2702   53.0151   19.9519 N   0  0  0  0  0  0  0  0  0  0  0  0
   50.4147   53.9931   19.6256 C   0  0  0  0  0  0  0  0  0  0  0  0
   49.4728   54.4367   20.6079 C   0  0  0  0  0  0  0  0  0  0  0  0
   49.5082   53.8146   21.8862 C   0  0  0  0  0  0  0  0  0  0  0  0
   48.6550   54.1920   22.8848 N   0  0  0  0  0  0  0  0  0  0  0  0
   48.7350   55.4096   20.0384 N   0  0  0  0  0  0  0  0  0  0  0  0
   49.1367   55.5952   18.8003 C   0  0  0  0  0  0  0  0  0  0  0  0
   50.1827   54.7641   18.4822 N   0  0  0  0  0  0  0  0  0  0  0  0
  2  1  1  1  0  0  0
  2  3  1  0  0  0  0
  2  5  1  0  0  0  0
  3  4  1  0  0  0  0
  3 17  1  0  0  0  0
  5  6  1  0  0  0  0
  7  6  1  6  0  0  0
  7  8  1  0  0  0  0
  7  9  1  0  0  0  0
 10  9  1  6  0  0  0
 10 11  1  0  0  0  0
 10 12  1  0  0  0  0
 11 16  1  0  0  0  0
 12 13  1  6  0  0  0
 12 14  1  0  0  0  0
 14 15  1  1  0  0  0
 14 16  1  0  0  0  0
 16 27  1  1  0  0  0
 18 19  2  0  0  0  0
 18 23  1  0  0  0  0
 19 20  1  0  0  0  0
 20 21  2  0  0  0  0
 21 22  1  0  0  0  0
 21 27  1  0  0  0  0
 22 23  2  0  0  0  0
 22 25  1  0  0  0  0
 23 24  1  0  0  0  0
 25 26  2  0  0  0  0
 26 27  1  0  0  0  0
M  END
>  <CHROM.1>
-20.19600687,-70.75786729,-172.62707651,-66.92545222,-86.92092956,-70.83193150
-48.55059785,51.73592220,55.53924416,17.05676914,-1.18266641,-0.77449369
2.41554159

>  <Name>
ligand

>  <RI>
0

>  <Rbt.Current_Directory>
/home/itssahil/PROJECTS/Mol_Feturizer/New_Systems/rnas/3IQN

>  <Rbt.Executable>
rbdock ($Id: //depot/dev/client3/rdock/2013.1/src/exe/rbdock.cxx#4 $)

>  <Rbt.Library>
libRbt.so (2013.1, Build901 2013/11/27)

>  <Rbt.Parameter_File>
/export/apps/rDock/src/rDock_2013.1_src/data/scripts/dock_solv.prm

>  <Rbt.Receptor>
prm/blind_docking_100.prm

>  <SCORE>
-16.3103

>  <SCORE.INTER>
-14.2375

>  <SCORE.INTER.CONST>
1

>  <SCORE.INTER.POLAR>
0

>  <SCORE.INTER.ROT>
7

>  <SCORE.INTER.SOLV>
10.2606

>  <SCORE.INTER.VDW>
-21.1785

>  <SCORE.INTER.norm>
-0.527315

>  <SCORE.INTRA>
-2.07285

>  <SCORE.INTRA.DIHEDRAL>
-4.69118

>  <SCORE.INTRA.DIHEDRAL.0>
10.0365

>  <SCORE.INTRA.POLAR>
0

>  <SCORE.INTRA.POLAR.0>
0

>  <SCORE.INTRA.REPUL>
0

>  <SCORE.INTRA.REPUL.0>
0

>  <SCORE.INTRA.SOLV>
0.1334

>  <SCORE.INTRA.SOLV.lig_0>
-48.6728

>  <SCORE.INTRA.VDW>
0.206041

>  <SCORE.INTRA.VDW.0>
-1.10662

>  <SCORE.INTRA.norm>
-0.0767723

>  <SCORE.RESTR>
0

>  <SCORE.RESTR.CAVITY>
0

>  <SCORE.RESTR.norm>
0

>  <SCORE.SYSTEM>
0

>  <SCORE.SYSTEM.CONST>
0

>  <SCORE.SYSTEM.DIHEDRAL>
0

>  <SCORE.SYSTEM.SOLV>
0

>  <SCORE.SYSTEM.norm>
0

>  <SCORE.heavy>
27

>  <SCORE.norm>
-0.604087

>  <RMSD>
15.210

$$$$
ligand
 OpenBabel11021811483D
libRbt.so/2013.1/901 2013/11/27
 27 29  0  0  0  0  0  0  0  0999 V2000
   51.2620   41.1775   30.6707 N   0  0  0  0  0  0  0  0  0  0  0  0
   52.7068   41.3937   30.8232 C   0  0  2  0  0  0  0  0  0  0  0  0
   53.4054   40.0799   30.6411 C   0  0  0  0  0  0  0  0  0  0  0  0
   54.6040   40.0540   30.4109 O   0  0  0  0  0  0  0  0  0  0  0  0
   53.0185   41.9487   32.2211 C   0  0  0  0  0  0  0  0  0  0  0  0
   54.5290   42.1109   32.3632 C   0  0  0  0  0  0  0  0  0  0  0  0
   55.0621   42.4818   34.0649 S   0  0  2  0  0  0  0  0  0  0  0  0
   56.8047   41.9615   34.1213 C   0  0  0  0  0  0  0  0  0  0  0  0
   54.3769   41.2610   35.2422 C   0  0  0  0  0  0  0  0  0  0  0  0
   53.8458   42.1242   36.3601 C   0  0  1  0  0  0  0  0  0  0  0  0
   52.7646   42.7828   35.7874 O   0  0  0  0  0  0  0  0  0  0  0  0
   53.2024   41.5227   37.6104 C   0  0  1  0  0  0  0  0  0  0  0  0
   54.1287   41.2909   38.6327 O   0  0  0  0  0  0  0  0  0  0  0  0
   52.1585   42.6972   37.9292 C   0  0  1  0  0  0  0  0  0  0  0  0
   52.7500   43.9963   38.0777 O   0  0  0  0  0  0  0  0  0  0  0  0
   51.5534   42.4385   36.5686 C   0  0  1  0  0  0  0  0  0  0  0  0
   52.7741   39.0395   30.7396 O   0  0  0  0  0  0  0  0  0  0  0  0
   48.1615   40.8561   33.2130 N   0  0  0  0  0  0  0  0  0  0  0  0
   49.0754   40.1894   33.9199 C   0  0  0  0  0  0  0  0  0  0  0  0
   49.8572   40.7985   34.8105 N   0  0  0  0  0  0  0  0  0  0  0  0
   49.8441   42.1316   34.9433 C   0  0  0  0  0  0  0  0  0  0  0  0
   48.9233   42.8907   34.1530 C   0  0  0  0  0  0  0  0  0  0  0  0
   48.0625   42.1779   33.2738 C   0  0  0  0  0  0  0  0  0  0  0  0
   47.1429   42.8262   32.4981 N   0  0  0  0  0  0  0  0  0  0  0  0
   49.1096   44.1882   34.4647 N   0  0  0  0  0  0  0  0  0  0  0  0
   50.0611   44.2890   35.3665 C   0  0  0  0  0  0  0  0  0  0  0  0
   50.5500   43.0555   35.7204 N   0  0  0  0  0  0  0  0  0  0  0  0
  2  1  1  1  0  0  0
  2  3  1  0  0  0  0
  2  5  1  0  0  0  0
  3  4  1  0  0  0  0
  3 17  1  0  0  0  0
  5  6  1  0  0  0  0
  7  6  1  6  0  0  0
  7  8  1  0  0  0  0
  7  9  1  0  0  0  0
 10  9  1  6  0  0  0
 10 11  1  0  0  0  0
 10 12  1  0  0  0  0
 11 16  1  0  0  0  0
 12 13  1  1  0  0  0
 12 14  1  0  0  0  0
 14 15  1  6  0  0  0
 14 16  1  0  0  0  0
 16 27  1  6  0  0  0
 18 19  2  0  0  0  0
 18 23  1  0  0  0  0
 19 20  1  0  0  0  0
 20 21  2  0  0  0  0
 21 22  1  0  0  0  0
 21 27  1  0  0  0  0
 22 23  2  0  0  0  0
 22 25  1  0  0  0  0
 23 24  1  0  0  0  0
 25 26  2  0  0  0  0
 26 27  1  0  0  0  0
M  END
>  <CHROM.1>
162.75357296,177.87615197,-169.85432583,157.55842644,-133.36113690,68.63731306
103.43856435,52.09315692,41.92822199,34.24482037,-2.55873028,-0.11938342
1.24863835

>  <Name>
ligand

>  <RI>
0

>  <Rbt.Current_Directory>
/home/itssahil/PROJECTS/Mol_Feturizer/New_Systems/rnas/3IQN

>  <Rbt.Executable>
rbdock ($Id: //depot/dev/client3/rdock/2013.1/src/exe/rbdock.cxx#4 $)

>  <Rbt.Library>
libRbt.so (2013.1, Build901 2013/11/27)

>  <Rbt.Parameter_File>
/export/apps/rDock/src/rDock_2013.1_src/data/scripts/dock_solv.prm

>  <Rbt.Receptor>
prm/blind_docking_80.prm

>  <SCORE>
-6.62023

>  <SCORE.INTER>
-4.26311

>  <SCORE.INTER.CONST>
1

>  <SCORE.INTER.POLAR>
0

>  <SCORE.INTER.ROT>
7

>  <SCORE.INTER.SOLV>
3.73835

>  <SCORE.INTER.VDW>
-12.3549

>  <SCORE.INTER.norm>
-0.157893

>  <SCORE.INTRA>
-2.35712

>  <SCORE.INTRA.DIHEDRAL>
-1.35555

>  <SCORE.INTRA.DIHEDRAL.0>
10.0365

>  <SCORE.INTRA.POLAR>
0

>  <SCORE.INTRA.POLAR.0>
0

>  <SCORE.INTRA.REPUL>
0

>  <SCORE.INTRA.REPUL.0>
0

>  <SCORE.INTRA.SOLV>
-1.10392

>  <SCORE.INTRA.SOLV.lig_0>
-48.6728

>  <SCORE.INTRA.VDW>
-1.12739

>  <SCORE.INTRA.VDW.0>
-1.10662

>  <SCORE.INTRA.norm>
-0.0873009

>  <SCORE.RESTR>
0

>  <SCORE.RESTR.CAVITY>
0

>  <SCORE.RESTR.norm>
0

>  <SCORE.SYSTEM>
0

>  <SCORE.SYSTEM.CONST>
0

>  <SCORE.SYSTEM.DIHEDRAL>
0

>  <SCORE.SYSTEM.SOLV>
0

>  <SCORE.SYSTEM.norm>
0

>  <SCORE.heavy>
27

>  <SCORE.norm>
-0.245194

>  <RMSD>
15.491

$$$$
ligand
 OpenBabel11021811483D
libRbt.so/2013.1/901 2013/11/27
 27 29  0  0  0  0  0  0  0  0999 V2000
   55.7201   54.1124   12.4458 N   0  0  0  0  0  0  0  0  0  0  0  0
   55.3940   55.5435   12.5009 C   0  0  2  0  0  0  0  0  0  0  0  0
   55.9087   56.1963   11.2533 C   0  0  0  0  0  0  0  0  0  0  0  0
   57.1033   56.1754   11.0032 O   0  0  0  0  0  0  0  0  0  0  0  0
   56.0526   56.1938   13.7268 C   0  0  0  0  0  0  0  0  0  0  0  0
   55.4200   55.6194   14.9909 C   0  0  0  0  0  0  0  0  0  0  0  0
   53.6386   55.9705   15.1348 S   0  0  2  0  0  0  0  0  0  0  0  0
   53.5294   57.7867   15.1340 C   0  0  0  0  0  0  0  0  0  0  0  0
   53.0507   55.6647   16.8397 C   0  0  0  0  0  0  0  0  0  0  0  0
   53.3055   54.1897   17.0304 C   0  0  1  0  0  0  0  0  0  0  0  0
   52.9039   53.9487   18.3386 O   0  0  0  0  0  0  0  0  0  0  0  0
   52.5093   53.1269   16.2718 C   0  0  1  0  0  0  0  0  0  0  0  0
   53.1099   52.7684   15.0604 O   0  0  0  0  0  0  0  0  0  0  0  0
   52.5381   51.9705   17.3821 C   0  0  1  0  0  0  0  0  0  0  0  0
   53.8530   51.5940   17.8165 O   0  0  0  0  0  0  0  0  0  0  0  0
   51.8266   52.9318   18.3063 C   0  0  1  0  0  0  0  0  0  0  0  0
   55.1271   56.7330   10.4841 O   0  0  0  0  0  0  0  0  0  0  0  0
   48.3352   55.2897   21.0484 N   0  0  0  0  0  0  0  0  0  0  0  0
   48.6306   55.3642   19.7497 C   0  0  0  0  0  0  0  0  0  0  0  0
   49.5760   54.6037   19.1989 N   0  0  0  0  0  0  0  0  0  0  0  0
   50.3579   53.8197   19.9531 C   0  0  0  0  0  0  0  0  0  0  0  0
   50.1166   53.7628   21.3628 C   0  0  0  0  0  0  0  0  0  0  0  0
   49.0453   54.5405   21.8821 C   0  0  0  0  0  0  0  0  0  0  0  0
   48.7377   54.5284   23.2136 N   0  0  0  0  0  0  0  0  0  0  0  0
   51.0276   52.9198   21.8870 N   0  0  0  0  0  0  0  0  0  0  0  0
   51.8033   52.4632   20.9286 C   0  0  0  0  0  0  0  0  0  0  0  0
   51.4370   52.9657   19.7041 N   0  0  0  0  0  0  0  0  0  0  0  0
  2  1  1  6  0  0  0
  2  3  1  0  0  0  0
  2  5  1  0  0  0  0
  3  4  1  0  0  0  0
  3 17  1  0  0  0  0
  5  6  1  0  0  0  0
  7  6  1  1  0  0  0
  7  8  1  0  0  0  0
  7  9  1  0  0  0  0
 10  9  1  6  0  0  0
 10 11  1  0  0  0  0
 10 12  1  0  0  0  0
 11 16  1  0  0  0  0
 12 13  1  6  0  0  0
 12 14  1  0  0  0  0
 14 15  1  1  0  0  0
 14 16  1  0  0  0  0
 16 27  1  1  0  0  0
 18 19  2  0  0  0  0
 18 23  1  0  0  0  0
 19 20  1  0  0  0  0
 20 21  2  0  0  0  0
 21 22  1  0  0  0  0
 21 27  1  0  0  0  0
 22 23  2  0  0  0  0
 22 25  1  0  0  0  0
 23 24  1  0  0  0  0
 25 26  2  0  0  0  0
 26 27  1  0  0  0  0
M  END
>  <CHROM.1>
-60.90577797,-66.32818774,-62.26715321,-59.44823132,-62.21291412,178.13277159
94.79295197,52.73545292,54.56097013,16.91841434,-0.63871316,-0.83936772,2.58489962

>  <Name>
ligand

>  <RI>
0

>  <Rbt.Current_Directory>
/home/itssahil/PROJECTS/Mol_Feturizer/New_Systems/rnas/3IQN

>  <Rbt.Executable>
rbdock ($Id: //depot/dev/client3/rdock/2013.1/src/exe/rbdock.cxx#4 $)

>  <Rbt.Library>
libRbt.so (2013.1, Build901 2013/11/27)

>  <Rbt.Parameter_File>
/export/apps/rDock/src/rDock_2013.1_src/data/scripts/dock_solv.prm

>  <Rbt.Receptor>
prm/blind_docking_100.prm

>  <SCORE>
-18.9657

>  <SCORE.INTER>
-14.3314

>  <SCORE.INTER.CONST>
1

>  <SCORE.INTER.POLAR>
0

>  <SCORE.INTER.ROT>
7

>  <SCORE.INTER.SOLV>
16.8138

>  <SCORE.INTER.VDW>
-23.4256

>  <SCORE.INTER.norm>
-0.530793

>  <SCORE.INTRA>
-4.63427

>  <SCORE.INTRA.DIHEDRAL>
-6.68292

>  <SCORE.INTRA.DIHEDRAL.0>
10.0365

>  <SCORE.INTRA.POLAR>
0

>  <SCORE.INTRA.POLAR.0>
0

>  <SCORE.INTRA.REPUL>
0

>  <SCORE.INTRA.REPUL.0>
0

>  <SCORE.INTRA.SOLV>
0.636098

>  <SCORE.INTRA.SOLV.lig_0>
-48.6728

>  <SCORE.INTRA.VDW>
-1.61086

>  <SCORE.INTRA.VDW.0>
-1.10662

>  <SCORE.INTRA.norm>
-0.17164

>  <SCORE.RESTR>
0

>  <SCORE.RESTR.CAVITY>
0

>  <SCORE.RESTR.norm>
0

>  <SCORE.SYSTEM>
0

>  <SCORE.SYSTEM.CONST>
0

>  <SCORE.SYSTEM.DIHEDRAL>
0

>  <SCORE.SYSTEM.SOLV>
0

>  <SCORE.SYSTEM.norm>
0

>  <SCORE.heavy>
27

>  <SCORE.norm>
-0.702433

>  <RMSD>
15.523

$$$$
ligand
 OpenBabel11021811483D
libRbt.so/2013.1/901 2013/11/27
 27 29  0  0  0  0  0  0  0  0999 V2000
   56.5786   55.4048   13.4234 N   0  0  0  0  0  0  0  0  0  0  0  0
   55.2155   55.3408   12.8801 C   0  0  2  0  0  0  0  0  0  0  0  0
   55.2627   55.7272   11.4324 C   0  0  0  0  0  0  0  0  0  0  0  0
   56.2985   56.1570   10.9500 O   0  0  0  0  0  0  0  0  0  0  0  0
   54.2935   56.3083   13.6373 C   0  0  0  0  0  0  0  0  0  0  0  0
   54.0037   55.7341   15.0210 C   0  0  0  0  0  0  0  0  0  0  0  0
   52.8759   56.7647   16.0126 S   0  0  2  0  0  0  0  0  0  0  0  0
   53.8640   58.2265   16.4563 C   0  0  0  0  0  0  0  0  0  0  0  0
   52.6595   56.0652   17.6888 C   0  0  0  0  0  0  0  0  0  0  0  0
   52.3740   54.6085   17.4177 C   0  0  1  0  0  0  0  0  0  0  0  0
   52.2570   54.0506   18.6849 O   0  0  0  0  0  0  0  0  0  0  0  0
   51.0695   54.1478   16.7658 C   0  0  1  0  0  0  0  0  0  0  0  0
   51.1604   54.0801   15.3715 O   0  0  0  0  0  0  0  0  0  0  0  0
   50.9373   52.7193   17.4817 C   0  0  1  0  0  0  0  0  0  0  0  0
   52.0741   51.8600   17.3117 O   0  0  0  0  0  0  0  0  0  0  0  0
   50.9041   53.4573   18.8002 C   0  0  1  0  0  0  0  0  0  0  0  0
   54.2674   55.5953   10.7376 O   0  0  0  0  0  0  0  0  0  0  0  0
   53.9185   50.8373   21.8528 N   0  0  0  0  0  0  0  0  0  0  0  0
   53.9800   51.0641   20.5397 C   0  0  0  0  0  0  0  0  0  0  0  0
   53.0950   51.8426   19.9184 N   0  0  0  0  0  0  0  0  0  0  0  0
   52.0294   52.3310   20.5672 C   0  0  0  0  0  0  0  0  0  0  0  0
   51.8910   52.0540   21.9647 C   0  0  0  0  0  0  0  0  0  0  0  0
   52.9068   51.2791   22.5890 C   0  0  0  0  0  0  0  0  0  0  0  0
   52.8587   50.9852   23.9228 N   0  0  0  0  0  0  0  0  0  0  0  0
   50.7513   52.6444   22.3746 N   0  0  0  0  0  0  0  0  0  0  0  0
   50.1815   53.2497   21.3559 C   0  0  0  0  0  0  0  0  0  0  0  0
   50.9248   53.1104   20.2095 N   0  0  0  0  0  0  0  0  0  0  0  0
  2  1  1  1  0  0  0
  2  3  1  0  0  0  0
  2  5  1  0  0  0  0
  3  4  1  0  0  0  0
  3 17  1  0  0  0  0
  5  6  1  0  0  0  0
  7  6  1  6  0  0  0
  7  8  1  0  0  0  0
  7  9  1  0  0  0  0
 10  9  1  1  0  0  0
 10 11  1  0  0  0  0
 10 12  1  0  0  0  0
 11 16  1  0  0  0  0
 12 13  1  6  0  0  0
 12 14  1  0  0  0  0
 14 15  1  1  0  0  0
 14 16  1  0  0  0  0
 16 27  1  1  0  0  0
 18 19  2  0  0  0  0
 18 23  1  0  0  0  0
 19 20  1  0  0  0  0
 20 21  2  0  0  0  0
 21 22  1  0  0  0  0
 21 27  1  0  0  0  0
 22 23  2  0  0  0  0
 22 25  1  0  0  0  0
 23 24  1  0  0  0  0
 25 26  2  0  0  0  0
 26 27  1  0  0  0  0
M  END
>  <CHROM.1>
-7.62086920,-73.27528930,-178.31924786,-71.31961628,-48.12285817,177.81860907
-53.49189727,52.93741942,54.10543249,17.39905012,-1.23406766,-0.63684222
2.21632939

>  <Name>
ligand

>  <RI>
0

>  <Rbt.Current_Directory>
/home/itssahil/PROJECTS/Mol_Feturizer/New_Systems/rnas/3IQN

>  <Rbt.Executable>
rbdock ($Id: //depot/dev/client3/rdock/2013.1/src/exe/rbdock.cxx#4 $)

>  <Rbt.Library>
libRbt.so (2013.1, Build901 2013/11/27)

>  <Rbt.Parameter_File>
/export/apps/rDock/src/rDock_2013.1_src/data/scripts/dock_solv.prm

>  <Rbt.Receptor>
prm/blind_docking_100.prm

>  <SCORE>
-16.5755

>  <SCORE.INTER>
-13.357

>  <SCORE.INTER.CONST>
1

>  <SCORE.INTER.POLAR>
0

>  <SCORE.INTER.ROT>
7

>  <SCORE.INTER.SOLV>
17.8774

>  <SCORE.INTER.VDW>
-23.1305

>  <SCORE.INTER.norm>
-0.494705

>  <SCORE.INTRA>
-3.21849

>  <SCORE.INTRA.DIHEDRAL>
-5.39944

>  <SCORE.INTRA.DIHEDRAL.0>
10.0365

>  <SCORE.INTRA.POLAR>
0

>  <SCORE.INTRA.POLAR.0>
0

>  <SCORE.INTRA.REPUL>
0

>  <SCORE.INTRA.REPUL.0>
0

>  <SCORE.INTRA.SOLV>
0.0508399

>  <SCORE.INTRA.SOLV.lig_0>
-48.6728

>  <SCORE.INTRA.VDW>
-0.544191

>  <SCORE.INTRA.VDW.0>
-1.10662

>  <SCORE.INTRA.norm>
-0.119203

>  <SCORE.RESTR>
0

>  <SCORE.RESTR.CAVITY>
0

>  <SCORE.RESTR.norm>
0

>  <SCORE.SYSTEM>
0

>  <SCORE.SYSTEM.CONST>
0

>  <SCORE.SYSTEM.DIHEDRAL>
0

>  <SCORE.SYSTEM.SOLV>
0

>  <SCORE.SYSTEM.norm>
0

>  <SCORE.heavy>
27

>  <SCORE.norm>
-0.613909

>  <RMSD>
15.552

$$$$
ligand
 OpenBabel11021811483D
libRbt.so/2013.1/901 2013/11/27
 27 29  0  0  0  0  0  0  0  0999 V2000
   57.2356   55.6610   12.1297 N   0  0  0  0  0  0  0  0  0  0  0  0
   55.9256   56.0901   11.6226 C   0  0  2  0  0  0  0  0  0  0  0  0
   56.1117   57.3511   10.8334 C   0  0  0  0  0  0  0  0  0  0  0  0
   57.0874   58.0568   11.0339 O   0  0  0  0  0  0  0  0  0  0  0  0
   54.9626   56.3551   12.7895 C   0  0  0  0  0  0  0  0  0  0  0  0
   55.0082   55.1683   13.7475 C   0  0  0  0  0  0  0  0  0  0  0  0
   53.7220   55.2259   15.0358 S   0  0  2  0  0  0  0  0  0  0  0  0
   54.0848   56.7407   15.9761 C   0  0  0  0  0  0  0  0  0  0  0  0
   54.0638   54.0022   16.3517 C   0  0  0  0  0  0  0  0  0  0  0  0
   52.7347   53.3099   16.5289 C   0  0  1  0  0  0  0  0  0  0  0  0
   52.8600   52.6557   17.7483 O   0  0  0  0  0  0  0  0  0  0  0  0
   51.4374   54.0919   16.7402 C   0  0  1  0  0  0  0  0  0  0  0  0
   50.7852   54.3852   15.5380 O   0  0  0  0  0  0  0  0  0  0  0  0
   50.6657   53.0286   17.6591 C   0  0  1  0  0  0  0  0  0  0  0  0
   50.5364   51.7223   17.0790 O   0  0  0  0  0  0  0  0  0  0  0  0
   51.7989   53.1623   18.6502 C   0  0  1  0  0  0  0  0  0  0  0  0
   55.2931   57.6587    9.9814 O   0  0  0  0  0  0  0  0  0  0  0  0
   50.0672   52.8557   23.3593 N   0  0  0  0  0  0  0  0  0  0  0  0
   49.6144   53.5258   22.2985 C   0  0  0  0  0  0  0  0  0  0  0  0
   50.1992   53.4312   21.1050 N   0  0  0  0  0  0  0  0  0  0  0  0
   51.3450   52.7547   20.9492 C   0  0  0  0  0  0  0  0  0  0  0  0
   51.9004   52.0761   22.0805 C   0  0  0  0  0  0  0  0  0  0  0  0
   51.1913   52.1523   23.3108 C   0  0  0  0  0  0  0  0  0  0  0  0
   51.6443   51.5182   24.4334 N   0  0  0  0  0  0  0  0  0  0  0  0
   53.0385   51.4846   21.6683 N   0  0  0  0  0  0  0  0  0  0  0  0
   53.2296   51.7445   20.3936 C   0  0  0  0  0  0  0  0  0  0  0  0
   52.2133   52.5122   19.8801 N   0  0  0  0  0  0  0  0  0  0  0  0
  2  1  1  1  0  0  0
  2  3  1  0  0  0  0
  2  5  1  0  0  0  0
  3  4  1  0  0  0  0
  3 17  1  0  0  0  0
  5  6  1  0  0  0  0
  7  6  1  6  0  0  0
  7  8  1  0  0  0  0
  7  9  1  0  0  0  0
 10  9  1  1  0  0  0
 10 11  1  0  0  0  0
 10 12  1  0  0  0  0
 11 16  1  0  0  0  0
 12 13  1  6  0  0  0
 12 14  1  0  0  0  0
 14 15  1  6  0  0  0
 14 16  1  0  0  0  0
 16 27  1  1  0  0  0
 18 19  2  0  0  0  0
 18 23  1  0  0  0  0
 19 20  1  0  0  0  0
 20 21  2  0  0  0  0
 21 22  1  0  0  0  0
 21 27  1  0  0  0  0
 22 23  2  0  0  0  0
 22 25  1  0  0  0  0
 23 24  1  0  0  0  0
 25 26  2  0  0  0  0
 26 27  1  0  0  0  0
M  END
>  <CHROM.1>
-22.62117746,-48.89876347,-170.76119184,-61.97529091,-132.06470036,-163.97459950
-177.27341959,52.99370760,54.13611057,17.11085213,-1.17408503,0.15581988
1.91769837

>  <Name>
ligand

>  <RI>
0

>  <Rbt.Current_Directory>
/home/itssahil/PROJECTS/Mol_Feturizer/New_Systems/rnas/3IQN

>  <Rbt.Executable>
rbdock ($Id: //depot/dev/client3/rdock/2013.1/src/exe/rbdock.cxx#4 $)

>  <Rbt.Library>
libRbt.so (2013.1, Build901 2013/11/27)

>  <Rbt.Parameter_File>
/export/apps/rDock/src/rDock_2013.1_src/data/scripts/dock_solv.prm

>  <Rbt.Receptor>
prm/blind_docking_100.prm

>  <SCORE>
-14.1085

>  <SCORE.INTER>
-13.3561

>  <SCORE.INTER.CONST>
1

>  <SCORE.INTER.POLAR>
0

>  <SCORE.INTER.ROT>
7

>  <SCORE.INTER.SOLV>
18.665

>  <SCORE.INTER.VDW>
-23.3924

>  <SCORE.INTER.norm>
-0.494671

>  <SCORE.INTRA>
-0.752414

>  <SCORE.INTRA.DIHEDRAL>
-0.762327

>  <SCORE.INTRA.DIHEDRAL.0>
10.0365

>  <SCORE.INTRA.POLAR>
0

>  <SCORE.INTRA.POLAR.0>
0

>  <SCORE.INTRA.REPUL>
0

>  <SCORE.INTRA.REPUL.0>
0

>  <SCORE.INTRA.SOLV>
-0.11226

>  <SCORE.INTRA.SOLV.lig_0>
-48.6728

>  <SCORE.INTRA.VDW>
-0.31512

>  <SCORE.INTRA.VDW.0>
-1.10662

>  <SCORE.INTRA.norm>
-0.0278672

>  <SCORE.RESTR>
0

>  <SCORE.RESTR.CAVITY>
0

>  <SCORE.RESTR.norm>
0

>  <SCORE.SYSTEM>
0

>  <SCORE.SYSTEM.CONST>
0

>  <SCORE.SYSTEM.DIHEDRAL>
0

>  <SCORE.SYSTEM.SOLV>
0

>  <SCORE.SYSTEM.norm>
0

>  <SCORE.heavy>
27

>  <SCORE.norm>
-0.522538

>  <RMSD>
15.714

$$$$
ligand
 OpenBabel11021811483D
libRbt.so/2013.1/901 2013/11/27
 27 29  0  0  0  0  0  0  0  0999 V2000
   52.4007   52.6307   23.9594 N   0  0  0  0  0  0  0  0  0  0  0  0
   52.6560   51.2245   24.2977 C   0  0  2  0  0  0  0  0  0  0  0  0
   51.8870   50.8876   25.5397 C   0  0  0  0  0  0  0  0  0  0  0  0
   51.0948   49.9589   25.5326 O   0  0  0  0  0  0  0  0  0  0  0  0
   54.1547   50.9997   24.5482 C   0  0  0  0  0  0  0  0  0  0  0  0
   54.3989   49.5122   24.7846 C   0  0  0  0  0  0  0  0  0  0  0  0
   55.3857   48.7215   23.4736 S   0  0  2  0  0  0  0  0  0  0  0  0
   56.7676   49.8697   23.1866 C   0  0  0  0  0  0  0  0  0  0  0  0
   54.5586   48.8822   21.8500 C   0  0  0  0  0  0  0  0  0  0  0  0
   55.5067   48.1769   20.9116 C   0  0  1  0  0  0  0  0  0  0  0  0
   55.6135   46.8983   21.4451 O   0  0  0  0  0  0  0  0  0  0  0  0
   55.1284   47.8664   19.4626 C   0  0  1  0  0  0  0  0  0  0  0  0
   55.4928   48.8897   18.5812 O   0  0  0  0  0  0  0  0  0  0  0  0
   55.9733   46.5160   19.2803 C   0  0  1  0  0  0  0  0  0  0  0  0
   57.3747   46.6475   19.5601 O   0  0  0  0  0  0  0  0  0  0  0  0
   55.1621   45.9337   20.4148 C   0  0  1  0  0  0  0  0  0  0  0  0
   52.0684   51.5353   26.5587 O   0  0  0  0  0  0  0  0  0  0  0  0
   52.2613   41.8540   20.8733 N   0  0  0  0  0  0  0  0  0  0  0  0
   52.1302   42.9449   20.1169 C   0  0  0  0  0  0  0  0  0  0  0  0
   53.0529   43.9059   20.1030 N   0  0  0  0  0  0  0  0  0  0  0  0
   54.0942   43.8756   20.9454 C   0  0  0  0  0  0  0  0  0  0  0  0
   54.2350   42.7529   21.8220 C   0  0  0  0  0  0  0  0  0  0  0  0
   53.2586   41.7225   21.7387 C   0  0  0  0  0  0  0  0  0  0  0  0
   53.3303   40.6090   22.5279 N   0  0  0  0  0  0  0  0  0  0  0  0
   55.3428   42.9627   22.5597 N   0  0  0  0  0  0  0  0  0  0  0  0
   55.8854   44.1103   22.2172 C   0  0  0  0  0  0  0  0  0  0  0  0
   55.1748   44.7218   21.2136 N   0  0  0  0  0  0  0  0  0  0  0  0
  2  1  1  1  0  0  0
  2  3  1  0  0  0  0
  2  5  1  0  0  0  0
  3  4  1  0  0  0  0
  3 17  1  0  0  0  0
  5  6  1  0  0  0  0
  7  6  1  1  0  0  0
  7  8  1  0  0  0  0
  7  9  1  0  0  0  0
 10  9  1  1  0  0  0
 10 11  1  0  0  0  0
 10 12  1  0  0  0  0
 11 16  1  0  0  0  0
 12 13  1  6  0  0  0
 12 14  1  0  0  0  0
 14 15  1  1  0  0  0
 14 16  1  0  0  0  0
 16 27  1  1  0  0  0
 18 19  2  0  0  0  0
 18 23  1  0  0  0  0
 19 20  1  0  0  0  0
 20 21  2  0  0  0  0
 21 22  1  0  0  0  0
 21 27  1  0  0  0  0
 22 23  2  0  0  0  0
 22 25  1  0  0  0  0
 23 24  1  0  0  0  0
 25 26  2  0  0  0  0
 26 27  1  0  0  0  0
M  END
>  <CHROM.1>
123.71416871,-175.45436844,113.47655167,45.87640745,-179.83372574,57.30335344
140.48843848,54.31070899,47.04405687,22.21816301,1.72044630,0.82213701,0.32584233

>  <Name>
ligand

>  <RI>
0

>  <Rbt.Current_Directory>
/home/itssahil/PROJECTS/Mol_Feturizer/New_Systems/rnas/3IQN

>  <Rbt.Executable>
rbdock ($Id: //depot/dev/client3/rdock/2013.1/src/exe/rbdock.cxx#4 $)

>  <Rbt.Library>
libRbt.so (2013.1, Build901 2013/11/27)

>  <Rbt.Parameter_File>
/export/apps/rDock/src/rDock_2013.1_src/data/scripts/dock_solv.prm

>  <Rbt.Receptor>
prm/blind_docking_100.prm

>  <SCORE>
-21.9466

>  <SCORE.INTER>
-21.2578

>  <SCORE.INTER.CONST>
1

>  <SCORE.INTER.POLAR>
0

>  <SCORE.INTER.ROT>
7

>  <SCORE.INTER.SOLV>
14.2083

>  <SCORE.INTER.VDW>
-27.1747

>  <SCORE.INTER.norm>
-0.787327

>  <SCORE.INTRA>
-0.71276

>  <SCORE.INTRA.DIHEDRAL>
-1.23058

>  <SCORE.INTRA.DIHEDRAL.0>
10.0365

>  <SCORE.INTRA.POLAR>
0

>  <SCORE.INTRA.POLAR.0>
0

>  <SCORE.INTRA.REPUL>
0

>  <SCORE.INTRA.REPUL.0>
0

>  <SCORE.INTRA.SOLV>
-1.11447

>  <SCORE.INTRA.SOLV.lig_0>
-48.6728

>  <SCORE.INTRA.VDW>
0.459765

>  <SCORE.INTRA.VDW.0>
-1.10662

>  <SCORE.INTRA.norm>
-0.0263985

>  <SCORE.RESTR>
0.0240207

>  <SCORE.RESTR.CAVITY>
0.0240207

>  <SCORE.RESTR.norm>
0.000889657

>  <SCORE.SYSTEM>
0

>  <SCORE.SYSTEM.CONST>
0

>  <SCORE.SYSTEM.DIHEDRAL>
0

>  <SCORE.SYSTEM.SOLV>
0

>  <SCORE.SYSTEM.norm>
0

>  <SCORE.heavy>
27

>  <SCORE.norm>
-0.812836

>  <RMSD>
15.964

$$$$
ligand
 OpenBabel11021811483D
libRbt.so/2013.1/901 2013/11/27
 27 29  0  0  0  0  0  0  0  0999 V2000
   54.8386   44.6208   36.4451 N   0  0  0  0  0  0  0  0  0  0  0  0
   53.3823   44.6756   36.6284 C   0  0  2  0  0  0  0  0  0  0  0  0
   53.0156   43.7938   37.7840 C   0  0  0  0  0  0  0  0  0  0  0  0
   52.1335   44.1359   38.5554 O   0  0  0  0  0  0  0  0  0  0  0  0
   52.6664   44.1825   35.3621 C   0  0  0  0  0  0  0  0  0  0  0  0
   51.1690   44.4356   35.5103 C   0  0  0  0  0  0  0  0  0  0  0  0
   50.2055   43.9735   34.0353 S   0  0  2  0  0  0  0  0  0  0  0  0
   48.4736   44.0077   34.5919 C   0  0  0  0  0  0  0  0  0  0  0  0
   50.3471   42.1808   33.7009 C   0  0  0  0  0  0  0  0  0  0  0  0
   50.5800   42.1279   32.2109 C   0  0  1  0  0  0  0  0  0  0  0  0
   51.9191   42.4712   32.0708 O   0  0  0  0  0  0  0  0  0  0  0  0
   50.5240   40.8141   31.4299 C   0  0  1  0  0  0  0  0  0  0  0  0
   49.2447   40.5361   30.9372 O   0  0  0  0  0  0  0  0  0  0  0  0
   51.5988   41.1669   30.2936 C   0  0  1  0  0  0  0  0  0  0  0  0
   51.3126   42.3625   29.5532 O   0  0  0  0  0  0  0  0  0  0  0  0
   52.6120   41.3457   31.4007 C   0  0  1  0  0  0  0  0  0  0  0  0
   53.5912   42.7283   37.9392 O   0  0  0  0  0  0  0  0  0  0  0  0
   56.0852   41.5388   35.0295 N   0  0  0  0  0  0  0  0  0  0  0  0
   54.8222   41.1100   35.0441 C   0  0  0  0  0  0  0  0  0  0  0  0
   54.0720   41.0950   33.9430 N   0  0  0  0  0  0  0  0  0  0  0  0
   54.5163   41.6291   32.7975 C   0  0  0  0  0  0  0  0  0  0  0  0
   55.8443   42.1616   32.7585 C   0  0  0  0  0  0  0  0  0  0  0  0
   56.6237   42.0819   33.9452 C   0  0  0  0  0  0  0  0  0  0  0  0
   57.9067   42.5508   33.9865 N   0  0  0  0  0  0  0  0  0  0  0  0
   56.0444   42.6364   31.5136 N   0  0  0  0  0  0  0  0  0  0  0  0
   54.9604   42.4472   30.7939 C   0  0  0  0  0  0  0  0  0  0  0  0
   53.9803   41.8153   31.5193 N   0  0  0  0  0  0  0  0  0  0  0  0
  2  1  1  6  0  0  0
  2  3  1  0  0  0  0
  2  5  1  0  0  0  0
  3  4  1  0  0  0  0
  3 17  1  0  0  0  0
  5  6  1  0  0  0  0
  7  6  1  1  0  0  0
  7  8  1  0  0  0  0
  7  9  1  0  0  0  0
 10  9  1  1  0  0  0
 10 11  1  0  0  0  0
 10 12  1  0  0  0  0
 11 16  1  0  0  0  0
 12 13  1  6  0  0  0
 12 14  1  0  0  0  0
 14 15  1  1  0  0  0
 14 16  1  0  0  0  0
 16 27  1  6  0  0  0
 18 19  2  0  0  0  0
 18 23  1  0  0  0  0
 19 20  1  0  0  0  0
 20 21  2  0  0  0  0
 21 22  1  0  0  0  0
 21 27  1  0  0  0  0
 22 23  2  0  0  0  0
 22 25  1  0  0  0  0
 23 24  1  0  0  0  0
 25 26  2  0  0  0  0
 26 27  1  0  0  0  0
M  END
>  <CHROM.1>
141.99133117,-172.11219811,177.01675608,167.54095898,-135.22558652,77.57249393
77.59053876,52.83231817,42.62636938,33.72838158,1.04337180,-0.12679006,1.19508956

>  <Name>
ligand

>  <RI>
0

>  <Rbt.Current_Directory>
/home/itssahil/PROJECTS/Mol_Feturizer/New_Systems/rnas/3IQN

>  <Rbt.Executable>
rbdock ($Id: //depot/dev/client3/rdock/2013.1/src/exe/rbdock.cxx#4 $)

>  <Rbt.Library>
libRbt.so (2013.1, Build901 2013/11/27)

>  <Rbt.Parameter_File>
/export/apps/rDock/src/rDock_2013.1_src/data/scripts/dock_solv.prm

>  <Rbt.Receptor>
prm/blind_docking_80.prm

>  <SCORE>
-11.7006

>  <SCORE.INTER>
-7.69711

>  <SCORE.INTER.CONST>
1

>  <SCORE.INTER.POLAR>
0

>  <SCORE.INTER.ROT>
7

>  <SCORE.INTER.SOLV>
8.46239

>  <SCORE.INTER.VDW>
-16.2189

>  <SCORE.INTER.norm>
-0.285078

>  <SCORE.INTRA>
-4.00348

>  <SCORE.INTRA.DIHEDRAL>
-1.40688

>  <SCORE.INTRA.DIHEDRAL.0>
10.0365

>  <SCORE.INTRA.POLAR>
0

>  <SCORE.INTRA.POLAR.0>
0

>  <SCORE.INTRA.REPUL>
0

>  <SCORE.INTRA.REPUL.0>
0

>  <SCORE.INTRA.SOLV>
-0.751921

>  <SCORE.INTRA.SOLV.lig_0>
-48.6728

>  <SCORE.INTRA.VDW>
-2.92408

>  <SCORE.INTRA.VDW.0>
-1.10662

>  <SCORE.INTRA.norm>
-0.148277

>  <SCORE.RESTR>
0

>  <SCORE.RESTR.CAVITY>
0

>  <SCORE.RESTR.norm>
0

>  <SCORE.SYSTEM>
0

>  <SCORE.SYSTEM.CONST>
0

>  <SCORE.SYSTEM.DIHEDRAL>
0

>  <SCORE.SYSTEM.SOLV>
0

>  <SCORE.SYSTEM.norm>
0

>  <SCORE.heavy>
27

>  <SCORE.norm>
-0.433355

>  <RMSD>
16.035

$$$$
ligand
 OpenBabel11021811483D
libRbt.so/2013.1/901 2013/11/27
 27 29  0  0  0  0  0  0  0  0999 V2000
   51.3336   43.1080   34.7816 N   0  0  0  0  0  0  0  0  0  0  0  0
   50.5943   42.2174   33.8774 C   0  0  2  0  0  0  0  0  0  0  0  0
   50.6393   40.8277   34.4380 C   0  0  0  0  0  0  0  0  0  0  0  0
   51.5487   40.5008   35.1839 O   0  0  0  0  0  0  0  0  0  0  0  0
   51.2330   42.2257   32.4805 C   0  0  0  0  0  0  0  0  0  0  0  0
   52.6966   41.8121   32.6036 C   0  0  0  0  0  0  0  0  0  0  0  0
   53.4976   41.4923   30.9993 S   0  0  2  0  0  0  0  0  0  0  0  0
   52.8853   39.8528   30.5017 C   0  0  0  0  0  0  0  0  0  0  0  0
   55.2616   41.0649   31.2264 C   0  0  0  0  0  0  0  0  0  0  0  0
   55.9198   42.4111   31.4044 C   0  0  1  0  0  0  0  0  0  0  0  0
   55.4175   42.8697   32.6161 O   0  0  0  0  0  0  0  0  0  0  0  0
   57.4257   42.5512   31.6319 C   0  0  1  0  0  0  0  0  0  0  0  0
   58.1383   42.6956   30.4369 O   0  0  0  0  0  0  0  0  0  0  0  0
   57.4068   43.8695   32.5443 C   0  0  1  0  0  0  0  0  0  0  0  0
   56.7433   44.9953   31.9511 O   0  0  0  0  0  0  0  0  0  0  0  0
   56.5622   43.0950   33.5297 C   0  0  1  0  0  0  0  0  0  0  0  0
   49.7560   40.0327   34.1577 O   0  0  0  0  0  0  0  0  0  0  0  0
   54.0100   40.4253   36.9396 N   0  0  0  0  0  0  0  0  0  0  0  0
   54.6245   40.0556   35.8148 C   0  0  0  0  0  0  0  0  0  0  0  0
   55.3008   40.9248   35.0648 N   0  0  0  0  0  0  0  0  0  0  0  0
   55.2865   42.2351   35.3437 C   0  0  0  0  0  0  0  0  0  0  0  0
   54.5812   42.6814   36.5065 C   0  0  0  0  0  0  0  0  0  0  0  0
   53.9406   41.6978   37.3093 C   0  0  0  0  0  0  0  0  0  0  0  0
   53.2615   42.0387   38.4452 N   0  0  0  0  0  0  0  0  0  0  0  0
   54.7130   44.0211   36.5601 N   0  0  0  0  0  0  0  0  0  0  0  0
   55.4280   44.4315   35.5357 C   0  0  0  0  0  0  0  0  0  0  0  0
   55.8294   43.3790   34.7501 N   0  0  0  0  0  0  0  0  0  0  0  0
  2  1  1  1  0  0  0
  2  3  1  0  0  0  0
  2  5  1  0  0  0  0
  3  4  1  0  0  0  0
  3 17  1  0  0  0  0
  5  6  1  0  0  0  0
  7  6  1  1  0  0  0
  7  8  1  0  0  0  0
  7  9  1  0  0  0  0
 10  9  1  1  0  0  0
 10 11  1  0  0  0  0
 10 12  1  0  0  0  0
 11 16  1  0  0  0  0
 12 13  1  6  0  0  0
 12 14  1  0  0  0  0
 14 15  1  6  0  0  0
 14 16  1  0  0  0  0
 16 27  1  1  0  0  0
 18 19  2  0  0  0  0
 18 23  1  0  0  0  0
 19 20  1  0  0  0  0
 20 21  2  0  0  0  0
 21 22  1  0  0  0  0
 21 27  1  0  0  0  0
 22 23  2  0  0  0  0
 22 25  1  0  0  0  0
 23 24  1  0  0  0  0
 25 26  2  0  0  0  0
 26 27  1  0  0  0  0
M  END
>  <CHROM.1>
-24.68176528,57.20123919,169.73179031,-76.94168929,-80.55250736,66.84462613
75.67506706,54.17585610,42.09230037,33.73563815,2.53915468,0.42005639,1.45609398

>  <Name>
ligand

>  <RI>
0

>  <Rbt.Current_Directory>
/home/itssahil/PROJECTS/Mol_Feturizer/New_Systems/rnas/3IQN

>  <Rbt.Executable>
rbdock ($Id: //depot/dev/client3/rdock/2013.1/src/exe/rbdock.cxx#4 $)

>  <Rbt.Library>
libRbt.so (2013.1, Build901 2013/11/27)

>  <Rbt.Parameter_File>
/export/apps/rDock/src/rDock_2013.1_src/data/scripts/dock_solv.prm

>  <Rbt.Receptor>
prm/blind_docking_80.prm

>  <SCORE>
-10.7552

>  <SCORE.INTER>
-5.66783

>  <SCORE.INTER.CONST>
1

>  <SCORE.INTER.POLAR>
0

>  <SCORE.INTER.ROT>
7

>  <SCORE.INTER.SOLV>
9.47169

>  <SCORE.INTER.VDW>
-15.2024

>  <SCORE.INTER.norm>
-0.20992

>  <SCORE.INTRA>
-5.08734

>  <SCORE.INTRA.DIHEDRAL>
-5.48765

>  <SCORE.INTRA.DIHEDRAL.0>
10.0365

>  <SCORE.INTRA.POLAR>
0

>  <SCORE.INTRA.POLAR.0>
0

>  <SCORE.INTRA.REPUL>
0

>  <SCORE.INTRA.REPUL.0>
0

>  <SCORE.INTRA.SOLV>
0.186369

>  <SCORE.INTRA.SOLV.lig_0>
-48.6728

>  <SCORE.INTRA.VDW>
-2.4367

>  <SCORE.INTRA.VDW.0>
-1.10662

>  <SCORE.INTRA.norm>
-0.18842

>  <SCORE.RESTR>
0

>  <SCORE.RESTR.CAVITY>
0

>  <SCORE.RESTR.norm>
0

>  <SCORE.SYSTEM>
0

>  <SCORE.SYSTEM.CONST>
0

>  <SCORE.SYSTEM.DIHEDRAL>
0

>  <SCORE.SYSTEM.SOLV>
0

>  <SCORE.SYSTEM.norm>
0

>  <SCORE.heavy>
27

>  <SCORE.norm>
-0.39834

>  <RMSD>
16.295

$$$$
ligand
 OpenBabel11021811483D
libRbt.so/2013.1/901 2013/11/27
 27 29  0  0  0  0  0  0  0  0999 V2000
   56.4655   55.6114   11.1266 N   0  0  0  0  0  0  0  0  0  0  0  0
   55.5548   56.5228   11.8319 C   0  0  2  0  0  0  0  0  0  0  0  0
   56.2454   57.8416   12.0086 C   0  0  0  0  0  0  0  0  0  0  0  0
   55.6568   58.8777   11.7438 O   0  0  0  0  0  0  0  0  0  0  0  0
   55.1876   55.9498   13.2089 C   0  0  0  0  0  0  0  0  0  0  0  0
   54.0203   56.7483   13.7814 C   0  0  0  0  0  0  0  0  0  0  0  0
   53.2037   55.9314   15.1897 S   0  0  2  0  0  0  0  0  0  0  0  0
   53.9009   56.7481   16.6585 C   0  0  0  0  0  0  0  0  0  0  0  0
   53.8908   54.2577   15.4589 C   0  0  0  0  0  0  0  0  0  0  0  0
   52.7048   53.4795   15.9735 C   0  0  1  0  0  0  0  0  0  0  0  0
   53.2658   52.5580   16.8492 O   0  0  0  0  0  0  0  0  0  0  0  0
   51.6377   54.1238   16.8596 C   0  0  1  0  0  0  0  0  0  0  0  0
   50.5811   54.6657   16.1202 O   0  0  0  0  0  0  0  0  0  0  0  0
   51.2359   52.8344   17.7239 C   0  0  1  0  0  0  0  0  0  0  0  0
   50.8215   51.7014   16.9466 O   0  0  0  0  0  0  0  0  0  0  0  0
   52.6730   52.7806   18.1889 C   0  0  1  0  0  0  0  0  0  0  0  0
   57.3901   57.8738   12.4322 O   0  0  0  0  0  0  0  0  0  0  0  0
   52.7854   51.0987   22.9247 N   0  0  0  0  0  0  0  0  0  0  0  0
   51.9811   51.9764   22.3228 C   0  0  0  0  0  0  0  0  0  0  0  0
   52.0869   52.2507   21.0232 N   0  0  0  0  0  0  0  0  0  0  0  0
   53.0899   51.7483   20.2908 C   0  0  0  0  0  0  0  0  0  0  0  0
   54.0153   50.8537   20.9170 C   0  0  0  0  0  0  0  0  0  0  0  0
   53.8072   50.5405   22.2884 C   0  0  0  0  0  0  0  0  0  0  0  0
   54.6347   49.6814   22.9554 N   0  0  0  0  0  0  0  0  0  0  0  0
   54.9179   50.4989   19.9818 N   0  0  0  0  0  0  0  0  0  0  0  0
   54.6308   51.0982   18.8473 C   0  0  0  0  0  0  0  0  0  0  0  0
   53.5037   51.8746   18.9610 N   0  0  0  0  0  0  0  0  0  0  0  0
  2  1  1  1  0  0  0
  2  3  1  0  0  0  0
  2  5  1  0  0  0  0
  3  4  1  0  0  0  0
  3 17  1  0  0  0  0
  5  6  1  0  0  0  0
  7  6  1  6  0  0  0
  7  8  1  0  0  0  0
  7  9  1  0  0  0  0
 10  9  1  1  0  0  0
 10 11  1  0  0  0  0
 10 12  1  0  0  0  0
 11 16  1  0  0  0  0
 12 13  1  6  0  0  0
 12 14  1  0  0  0  0
 14 15  1  6  0  0  0
 14 16  1  0  0  0  0
 16 27  1  1  0  0  0
 18 19  2  0  0  0  0
 18 23  1  0  0  0  0
 19 20  1  0  0  0  0
 20 21  2  0  0  0  0
 21 22  1  0  0  0  0
 21 27  1  0  0  0  0
 22 23  2  0  0  0  0
 22 25  1  0  0  0  0
 23 24  1  0  0  0  0
 25 26  2  0  0  0  0
 26 27  1  0  0  0  0
M  END
>  <CHROM.1>
133.26581643,-167.67923302,165.10343758,99.37471447,-147.38135514,-147.43271005
-173.62342845,53.67711861,53.89480606,16.92511914,-1.35713209,-0.03433009
2.19155965

>  <Name>
ligand

>  <RI>
0

>  <Rbt.Current_Directory>
/home/itssahil/PROJECTS/Mol_Feturizer/New_Systems/rnas/3IQN

>  <Rbt.Executable>
rbdock ($Id: //depot/dev/client3/rdock/2013.1/src/exe/rbdock.cxx#4 $)

>  <Rbt.Library>
libRbt.so (2013.1, Build901 2013/11/27)

>  <Rbt.Parameter_File>
/export/apps/rDock/src/rDock_2013.1_src/data/scripts/dock_solv.prm

>  <Rbt.Receptor>
prm/blind_docking_100.prm

>  <SCORE>
-12.6429

>  <SCORE.INTER>
-14.7545

>  <SCORE.INTER.CONST>
1

>  <SCORE.INTER.POLAR>
0

>  <SCORE.INTER.ROT>
7

>  <SCORE.INTER.SOLV>
18.5199

>  <SCORE.INTER.VDW>
-24.2763

>  <SCORE.INTER.norm>
-0.546462

>  <SCORE.INTRA>
1.83904

>  <SCORE.INTRA.DIHEDRAL>
4.41263

>  <SCORE.INTRA.DIHEDRAL.0>
10.0365

>  <SCORE.INTRA.POLAR>
0

>  <SCORE.INTRA.POLAR.0>
0

>  <SCORE.INTRA.REPUL>
0

>  <SCORE.INTRA.REPUL.0>
0

>  <SCORE.INTRA.SOLV>
-0.847507

>  <SCORE.INTRA.SOLV.lig_0>
-48.6728

>  <SCORE.INTRA.VDW>
0.0564788

>  <SCORE.INTRA.VDW.0>
-1.10662

>  <SCORE.INTRA.norm>
0.0681127

>  <SCORE.RESTR>
0.272507

>  <SCORE.RESTR.CAVITY>
0.272507

>  <SCORE.RESTR.norm>
0.0100929

>  <SCORE.SYSTEM>
0

>  <SCORE.SYSTEM.CONST>
0

>  <SCORE.SYSTEM.DIHEDRAL>
0

>  <SCORE.SYSTEM.SOLV>
0

>  <SCORE.SYSTEM.norm>
0

>  <SCORE.heavy>
27

>  <SCORE.norm>
-0.468257

>  <RMSD>
16.309

$$$$
ligand
 OpenBabel11021811483D
libRbt.so/2013.1/901 2013/11/27
 27 29  0  0  0  0  0  0  0  0999 V2000
   53.4650   53.0622   20.4800 N   0  0  0  0  0  0  0  0  0  0  0  0
   52.3350   53.4866   19.6432 C   0  0  2  0  0  0  0  0  0  0  0  0
   51.1066   53.5495   20.5003 C   0  0  0  0  0  0  0  0  0  0  0  0
   51.1467   53.1488   21.6527 O   0  0  0  0  0  0  0  0  0  0  0  0
   52.1105   52.4839   18.5015 C   0  0  0  0  0  0  0  0  0  0  0  0
   53.2869   52.5658   17.5331 C   0  0  0  0  0  0  0  0  0  0  0  0
   53.3489   54.1271   16.5972 S   0  0  2  0  0  0  0  0  0  0  0  0
   51.7055   54.2647   15.8288 C   0  0  0  0  0  0  0  0  0  0  0  0
   54.3443   53.9341   15.0748 C   0  0  0  0  0  0  0  0  0  0  0  0
   54.4163   55.3403   14.5323 C   0  0  1  0  0  0  0  0  0  0  0  0
   55.0661   56.0508   15.5342 O   0  0  0  0  0  0  0  0  0  0  0  0
   55.2690   55.6939   13.3129 C   0  0  1  0  0  0  0  0  0  0  0  0
   54.5593   55.5876   12.1121 O   0  0  0  0  0  0  0  0  0  0  0  0
   55.6483   57.1987   13.7161 C   0  0  1  0  0  0  0  0  0  0  0  0
   54.5212   58.0484   13.9751 O   0  0  0  0  0  0  0  0  0  0  0  0
   56.3006   56.6316   14.9559 C   0  0  1  0  0  0  0  0  0  0  0  0
   50.0742   54.0165   20.0456 O   0  0  0  0  0  0  0  0  0  0  0  0
   54.9534   59.8380   18.5853 N   0  0  0  0  0  0  0  0  0  0  0  0
   54.3236   59.4538   17.4739 C   0  0  0  0  0  0  0  0  0  0  0  0
   54.8385   58.5377   16.6549 N   0  0  0  0  0  0  0  0  0  0  0  0
   56.0727   58.0539   16.8487 C   0  0  0  0  0  0  0  0  0  0  0  0
   56.8092   58.4922   17.9950 C   0  0  0  0  0  0  0  0  0  0  0  0
   56.1777   59.4153   18.8733 C   0  0  0  0  0  0  0  0  0  0  0  0
   56.8054   59.8694   19.9991 N   0  0  0  0  0  0  0  0  0  0  0  0
   58.0046   57.8718   17.9589 N   0  0  0  0  0  0  0  0  0  0  0  0
   58.0656   57.1015   16.8951 C   0  0  0  0  0  0  0  0  0  0  0  0
   56.9000   57.1529   16.1708 N   0  0  0  0  0  0  0  0  0  0  0  0
  2  1  1  1  0  0  0
  2  3  1  0  0  0  0
  2  5  1  0  0  0  0
  3  4  1  0  0  0  0
  3 17  1  0  0  0  0
  5  6  1  0  0  0  0
  7  6  1  1  0  0  0
  7  8  1  0  0  0  0
  7  9  1  0  0  0  0
 10  9  1  1  0  0  0
 10 11  1  0  0  0  0
 10 12  1  0  0  0  0
 11 16  1  0  0  0  0
 12 13  1  6  0  0  0
 12 14  1  0  0  0  0
 14 15  1  1  0  0  0
 14 16  1  0  0  0  0
 16 27  1  1  0  0  0
 18 19  2  0  0  0  0
 18 23  1  0  0  0  0
 19 20  1  0  0  0  0
 20 21  2  0  0  0  0
 21 22  1  0  0  0  0
 21 27  1  0  0  0  0
 22 23  2  0  0  0  0
 22 25  1  0  0  0  0
 23 24  1  0  0  0  0
 25 26  2  0  0  0  0
 26 27  1  0  0  0  0
M  END
>  <CHROM.1>
-6.87059581,-68.26131955,-68.94645318,-53.80448505,-173.57728945,61.30429253
-57.21751560,54.37624710,55.95181032,17.04634006,-2.87145499,-0.89683285
-1.85787720

>  <Name>
ligand

>  <RI>
0

>  <Rbt.Current_Directory>
/home/itssahil/PROJECTS/Mol_Feturizer/New_Systems/rnas/3IQN

>  <Rbt.Executable>
rbdock ($Id: //depot/dev/client3/rdock/2013.1/src/exe/rbdock.cxx#4 $)

>  <Rbt.Library>
libRbt.so (2013.1, Build901 2013/11/27)

>  <Rbt.Parameter_File>
/export/apps/rDock/src/rDock_2013.1_src/data/scripts/dock_solv.prm

>  <Rbt.Receptor>
prm/blind_docking_100.prm

>  <SCORE>
-10.3862

>  <SCORE.INTER>
-7.86973

>  <SCORE.INTER.CONST>
1

>  <SCORE.INTER.POLAR>
0

>  <SCORE.INTER.ROT>
7

>  <SCORE.INTER.SOLV>
6.59547

>  <SCORE.INTER.VDW>
-15.7116

>  <SCORE.INTER.norm>
-0.291471

>  <SCORE.INTRA>
-2.51647

>  <SCORE.INTRA.DIHEDRAL>
-5.47029

>  <SCORE.INTRA.DIHEDRAL.0>
10.0365

>  <SCORE.INTRA.POLAR>
0

>  <SCORE.INTRA.POLAR.0>
0

>  <SCORE.INTRA.REPUL>
0

>  <SCORE.INTRA.REPUL.0>
0

>  <SCORE.INTRA.SOLV>
0.270636

>  <SCORE.INTRA.SOLV.lig_0>
-48.6728

>  <SCORE.INTRA.VDW>
0.0833531

>  <SCORE.INTRA.VDW.0>
-1.10662

>  <SCORE.INTRA.norm>
-0.0932027

>  <SCORE.RESTR>
0

>  <SCORE.RESTR.CAVITY>
0

>  <SCORE.RESTR.norm>
0

>  <SCORE.SYSTEM>
0

>  <SCORE.SYSTEM.CONST>
0

>  <SCORE.SYSTEM.DIHEDRAL>
0

>  <SCORE.SYSTEM.SOLV>
0

>  <SCORE.SYSTEM.norm>
0

>  <SCORE.heavy>
27

>  <SCORE.norm>
-0.384674

>  <RMSD>
16.401

$$$$
ligand
 OpenBabel11021811483D
libRbt.so/2013.1/901 2013/11/27
 27 29  0  0  0  0  0  0  0  0999 V2000
   53.8136   40.5469   30.1037 N   0  0  0  0  0  0  0  0  0  0  0  0
   52.8175   39.9868   31.0264 C   0  0  2  0  0  0  0  0  0  0  0  0
   52.0627   38.9066   30.3117 C   0  0  0  0  0  0  0  0  0  0  0  0
   51.6934   37.9157   30.9215 O   0  0  0  0  0  0  0  0  0  0  0  0
   51.8382   41.0791   31.4814 C   0  0  0  0  0  0  0  0  0  0  0  0
   50.9938   40.5383   32.6315 C   0  0  0  0  0  0  0  0  0  0  0  0
   51.9443   40.2561   34.1593 S   0  0  2  0  0  0  0  0  0  0  0  0
   50.9783   39.0164   35.0760 C   0  0  0  0  0  0  0  0  0  0  0  0
   51.7496   41.6601   35.3156 C   0  0  0  0  0  0  0  0  0  0  0  0
   52.7344   41.3390   36.4129 C   0  0  1  0  0  0  0  0  0  0  0  0
   53.9477   41.2182   35.7466 O   0  0  0  0  0  0  0  0  0  0  0  0
   53.0901   42.3519   37.5021 C   0  0  1  0  0  0  0  0  0  0  0  0
   52.2624   42.2464   38.6248 O   0  0  0  0  0  0  0  0  0  0  0  0
   54.6055   41.8982   37.7632 C   0  0  1  0  0  0  0  0  0  0  0  0
   54.7627   40.5130   38.1038 O   0  0  0  0  0  0  0  0  0  0  0  0
   54.8818   42.2197   36.3125 C   0  0  1  0  0  0  0  0  0  0  0  0
   51.8068   39.0306   29.1243 O   0  0  0  0  0  0  0  0  0  0  0  0
   55.9411   43.7252   31.6348 N   0  0  0  0  0  0  0  0  0  0  0  0
   54.8586   43.9077   32.3928 C   0  0  0  0  0  0  0  0  0  0  0  0
   54.7958   43.4639   33.6475 N   0  0  0  0  0  0  0  0  0  0  0  0
   55.7723   42.7036   34.1607 C   0  0  0  0  0  0  0  0  0  0  0  0
   56.9226   42.4281   33.3547 C   0  0  0  0  0  0  0  0  0  0  0  0
   56.9657   42.9912   32.0496 C   0  0  0  0  0  0  0  0  0  0  0  0
   58.0358   42.7910   31.2235 N   0  0  0  0  0  0  0  0  0  0  0  0
   57.7432   41.6508   34.0879 N   0  0  0  0  0  0  0  0  0  0  0  0
   57.1969   41.4237   35.2621 C   0  0  0  0  0  0  0  0  0  0  0  0
   55.9842   42.0568   35.3823 N   0  0  0  0  0  0  0  0  0  0  0  0
  2  1  1  6  0  0  0
  2  3  1  0  0  0  0
  2  5  1  0  0  0  0
  3  4  1  0  0  0  0
  3 17  1  0  0  0  0
  5  6  1  0  0  0  0
  7  6  1  6  0  0  0
  7  8  1  0  0  0  0
  7  9  1  0  0  0  0
 10  9  1  6  0  0  0
 10 11  1  0  0  0  0
 10 12  1  0  0  0  0
 11 16  1  0  0  0  0
 12 13  1  1  0  0  0
 12 14  1  0  0  0  0
 14 15  1  6  0  0  0
 14 16  1  0  0  0  0
 16 27  1  6  0  0  0
 18 19  2  0  0  0  0
 18 23  1  0  0  0  0
 19 20  1  0  0  0  0
 20 21  2  0  0  0  0
 21 22  1  0  0  0  0
 21 27  1  0  0  0  0
 22 23  2  0  0  0  0
 22 25  1  0  0  0  0
 23 24  1  0  0  0  0
 25 26  2  0  0  0  0
 26 27  1  0  0  0  0
M  END
>  <CHROM.1>
144.65570597,-169.19451839,68.10785995,-156.63683217,-172.70342475,56.84407366
78.65264457,53.90200653,41.28982627,33.88295833,-1.98332446,0.50929752,1.41487685

>  <Name>
ligand

>  <RI>
0

>  <Rbt.Current_Directory>
/home/itssahil/PROJECTS/Mol_Feturizer/New_Systems/rnas/3IQN

>  <Rbt.Executable>
rbdock ($Id: //depot/dev/client3/rdock/2013.1/src/exe/rbdock.cxx#4 $)

>  <Rbt.Library>
libRbt.so (2013.1, Build901 2013/11/27)

>  <Rbt.Parameter_File>
/export/apps/rDock/src/rDock_2013.1_src/data/scripts/dock_solv.prm

>  <Rbt.Receptor>
prm/blind_docking_80.prm

>  <SCORE>
-6.42995

>  <SCORE.INTER>
-2.77168

>  <SCORE.INTER.CONST>
1

>  <SCORE.INTER.POLAR>
0

>  <SCORE.INTER.ROT>
7

>  <SCORE.INTER.SOLV>
15.3611

>  <SCORE.INTER.VDW>
-15.2348

>  <SCORE.INTER.norm>
-0.102655

>  <SCORE.INTRA>
-3.66078

>  <SCORE.INTRA.DIHEDRAL>
-3.57568

>  <SCORE.INTRA.DIHEDRAL.0>
10.0365

>  <SCORE.INTRA.POLAR>
0

>  <SCORE.INTRA.POLAR.0>
0

>  <SCORE.INTRA.REPUL>
0

>  <SCORE.INTRA.REPUL.0>
0

>  <SCORE.INTRA.SOLV>
-0.91985

>  <SCORE.INTRA.SOLV.lig_0>
-48.6728

>  <SCORE.INTRA.VDW>
-1.41301

>  <SCORE.INTRA.VDW.0>
-1.10662

>  <SCORE.INTRA.norm>
-0.135584

>  <SCORE.RESTR>
0.00250283

>  <SCORE.RESTR.CAVITY>
0.00250283

>  <SCORE.RESTR.norm>
9.26975e-05

>  <SCORE.SYSTEM>
0

>  <SCORE.SYSTEM.CONST>
0

>  <SCORE.SYSTEM.DIHEDRAL>
0

>  <SCORE.SYSTEM.SOLV>
0

>  <SCORE.SYSTEM.norm>
0

>  <SCORE.heavy>
27

>  <SCORE.norm>
-0.238146

>  <RMSD>
16.587

$$$$
ligand
 OpenBabel11021811483D
libRbt.so/2013.1/901 2013/11/27
 27 29  0  0  0  0  0  0  0  0999 V2000
   52.0637   54.2463   23.0862 N   0  0  0  0  0  0  0  0  0  0  0  0
   51.3525   53.8355   21.8684 C   0  0  2  0  0  0  0  0  0  0  0  0
   50.2111   52.9469   22.2619 C   0  0  0  0  0  0  0  0  0  0  0  0
   50.2590   52.3213   23.3091 O   0  0  0  0  0  0  0  0  0  0  0  0
   52.2978   53.0684   20.9318 C   0  0  0  0  0  0  0  0  0  0  0  0
   51.6264   52.9134   19.5703 C   0  0  0  0  0  0  0  0  0  0  0  0
   51.3143   54.4991   18.7305 S   0  0  2  0  0  0  0  0  0  0  0  0
   49.6649   55.0052   19.3082 C   0  0  0  0  0  0  0  0  0  0  0  0
   50.9131   54.2330   16.9658 C   0  0  0  0  0  0  0  0  0  0  0  0
   52.2561   53.9209   16.3526 C   0  0  1  0  0  0  0  0  0  0  0  0
   52.3806   54.8544   15.3309 O   0  0  0  0  0  0  0  0  0  0  0  0
   53.5635   54.1365   17.1165 C   0  0  1  0  0  0  0  0  0  0  0  0
   53.9616   53.0016   17.8308 O   0  0  0  0  0  0  0  0  0  0  0  0
   54.5106   54.4901   15.8720 C   0  0  1  0  0  0  0  0  0  0  0  0
   54.5320   53.4955   14.8378 O   0  0  0  0  0  0  0  0  0  0  0  0
   53.5958   55.6607   15.5937 C   0  0  1  0  0  0  0  0  0  0  0  0
   49.2303   52.8650   21.5393 O   0  0  0  0  0  0  0  0  0  0  0  0
   55.7528   56.6566   11.1638 N   0  0  0  0  0  0  0  0  0  0  0  0
   56.0078   55.7147   12.0733 C   0  0  0  0  0  0  0  0  0  0  0  0
   55.2735   55.5865   13.1776 N   0  0  0  0  0  0  0  0  0  0  0  0
   54.3232   56.4802   13.4826 C   0  0  0  0  0  0  0  0  0  0  0  0
   54.0638   57.5464   12.5636 C   0  0  0  0  0  0  0  0  0  0  0  0
   54.8297   57.5881   11.3661 C   0  0  0  0  0  0  0  0  0  0  0  0
   54.6318   58.5627   10.4287 N   0  0  0  0  0  0  0  0  0  0  0  0
   53.0818   58.2991   13.0968 N   0  0  0  0  0  0  0  0  0  0  0  0
   52.7238   57.7932   14.2564 C   0  0  0  0  0  0  0  0  0  0  0  0
   53.4391   56.6586   14.5514 N   0  0  0  0  0  0  0  0  0  0  0  0
  2  1  1  1  0  0  0
  2  3  1  0  0  0  0
  2  5  1  0  0  0  0
  3  4  1  0  0  0  0
  3 17  1  0  0  0  0
  5  6  1  0  0  0  0
  7  6  1  1  0  0  0
  7  8  1  0  0  0  0
  7  9  1  0  0  0  0
 10  9  1  1  0  0  0
 10 11  1  0  0  0  0
 10 12  1  0  0  0  0
 11 16  1  0  0  0  0
 12 13  1  6  0  0  0
 12 14  1  0  0  0  0
 14 15  1  6  0  0  0
 14 16  1  0  0  0  0
 16 27  1  6  0  0  0
 18 19  2  0  0  0  0
 18 23  1  0  0  0  0
 19 20  1  0  0  0  0
 20 21  2  0  0  0  0
 21 22  1  0  0  0  0
 21 27  1  0  0  0  0
 22 23  2  0  0  0  0
 22 25  1  0  0  0  0
 23 24  1  0  0  0  0
 25 26  2  0  0  0  0
 26 27  1  0  0  0  0
M  END
>  <CHROM.1>
-24.99015147,-168.27344179,63.42798944,-89.17796128,-75.63106069,-124.65053618
-106.07202785,52.75477526,54.94913245,16.76117849,-2.03403969,0.62798062
-0.90644506

>  <Name>
ligand

>  <RI>
0

>  <Rbt.Current_Directory>
/home/itssahil/PROJECTS/Mol_Feturizer/New_Systems/rnas/3IQN

>  <Rbt.Executable>
rbdock ($Id: //depot/dev/client3/rdock/2013.1/src/exe/rbdock.cxx#4 $)

>  <Rbt.Library>
libRbt.so (2013.1, Build901 2013/11/27)

>  <Rbt.Parameter_File>
/export/apps/rDock/src/rDock_2013.1_src/data/scripts/dock_solv.prm

>  <Rbt.Receptor>
prm/blind_docking_100.prm

>  <SCORE>
-9.51018

>  <SCORE.INTER>
-10.1257

>  <SCORE.INTER.CONST>
1

>  <SCORE.INTER.POLAR>
0

>  <SCORE.INTER.ROT>
7

>  <SCORE.INTER.SOLV>
12.6126

>  <SCORE.INTER.VDW>
-19.2213

>  <SCORE.INTER.norm>
-0.375025

>  <SCORE.INTRA>
0.615479

>  <SCORE.INTRA.DIHEDRAL>
0.274397

>  <SCORE.INTRA.DIHEDRAL.0>
10.0365

>  <SCORE.INTRA.POLAR>
0

>  <SCORE.INTRA.POLAR.0>
0

>  <SCORE.INTRA.REPUL>
0

>  <SCORE.INTRA.REPUL.0>
0

>  <SCORE.INTRA.SOLV>
0.0658941

>  <SCORE.INTRA.SOLV.lig_0>
-48.6728

>  <SCORE.INTRA.VDW>
0.445333

>  <SCORE.INTRA.VDW.0>
-1.10662

>  <SCORE.INTRA.norm>
0.0227955

>  <SCORE.RESTR>
0

>  <SCORE.RESTR.CAVITY>
0

>  <SCORE.RESTR.norm>
0

>  <SCORE.SYSTEM>
0

>  <SCORE.SYSTEM.CONST>
0

>  <SCORE.SYSTEM.DIHEDRAL>
0

>  <SCORE.SYSTEM.SOLV>
0

>  <SCORE.SYSTEM.norm>
0

>  <SCORE.heavy>
27

>  <SCORE.norm>
-0.352229

>  <RMSD>
16.752

$$$$
ligand
 OpenBabel11021811483D
libRbt.so/2013.1/901 2013/11/27
 27 29  0  0  0  0  0  0  0  0999 V2000
   53.5858   59.8358   11.2811 N   0  0  0  0  0  0  0  0  0  0  0  0
   53.1027   59.1700   12.4980 C   0  0  2  0  0  0  0  0  0  0  0  0
   53.5906   59.9416   13.6871 C   0  0  0  0  0  0  0  0  0  0  0  0
   54.0660   61.0559   13.5370 O   0  0  0  0  0  0  0  0  0  0  0  0
   53.6380   57.7319   12.5674 C   0  0  0  0  0  0  0  0  0  0  0  0
   55.1627   57.7734   12.6098 C   0  0  0  0  0  0  0  0  0  0  0  0
   55.9291   56.1287   12.7687 S   0  0  2  0  0  0  0  0  0  0  0  0
   55.4761   55.2634   11.2336 C   0  0  0  0  0  0  0  0  0  0  0  0
   54.9981   55.0884   13.9506 C   0  0  0  0  0  0  0  0  0  0  0  0
   54.8967   55.9666   15.1735 C   0  0  1  0  0  0  0  0  0  0  0  0
   54.0481   55.2630   16.0193 O   0  0  0  0  0  0  0  0  0  0  0  0
   56.0945   56.2167   16.0910 C   0  0  1  0  0  0  0  0  0  0  0  0
   56.8350   57.3418   15.7131 O   0  0  0  0  0  0  0  0  0  0  0  0
   55.3024   56.3909   17.4741 C   0  0  1  0  0  0  0  0  0  0  0  0
   54.2886   57.4064   17.4566 O   0  0  0  0  0  0  0  0  0  0  0  0
   54.7821   54.9857   17.2764 C   0  0  1  0  0  0  0  0  0  0  0  0
   53.4956   59.4573   14.8039 O   0  0  0  0  0  0  0  0  0  0  0  0
   49.9867   55.3317   18.7438 N   0  0  0  0  0  0  0  0  0  0  0  0
   50.8015   56.2280   18.1852 C   0  0  0  0  0  0  0  0  0  0  0  0
   52.0437   55.9162   17.8179 N   0  0  0  0  0  0  0  0  0  0  0  0
   52.5702   54.7194   18.1096 C   0  0  0  0  0  0  0  0  0  0  0  0
   51.7486   53.7510   18.7698 C   0  0  0  0  0  0  0  0  0  0  0  0
   50.4075   54.1163   19.0701 C   0  0  0  0  0  0  0  0  0  0  0  0
   49.5527   53.2437   19.6830 N   0  0  0  0  0  0  0  0  0  0  0  0
   52.5028   52.6495   18.9518 N   0  0  0  0  0  0  0  0  0  0  0  0
   53.7075   52.8597   18.4688 C   0  0  0  0  0  0  0  0  0  0  0  0
   53.8160   54.1133   17.9187 N   0  0  0  0  0  0  0  0  0  0  0  0
  2  1  1  6  0  0  0
  2  3  1  0  0  0  0
  2  5  1  0  0  0  0
  3  4  1  0  0  0  0
  3 17  1  0  0  0  0
  5  6  1  0  0  0  0
  7  6  1  6  0  0  0
  7  8  1  0  0  0  0
  7  9  1  0  0  0  0
 10  9  1  6  0  0  0
 10 11  1  0  0  0  0
 10 12  1  0  0  0  0
 11 16  1  0  0  0  0
 12 13  1  6  0  0  0
 12 14  1  0  0  0  0
 14 15  1  6  0  0  0
 14 16  1  0  0  0  0
 16 27  1  1  0  0  0
 18 19  2  0  0  0  0
 18 23  1  0  0  0  0
 19 20  1  0  0  0  0
 20 21  2  0  0  0  0
 21 22  1  0  0  0  0
 21 27  1  0  0  0  0
 22 23  2  0  0  0  0
 22 25  1  0  0  0  0
 23 24  1  0  0  0  0
 25 26  2  0  0  0  0
 26 27  1  0  0  0  0
M  END
>  <CHROM.1>
12.70907685,60.97314822,177.43035815,64.29155966,-51.72476167,172.66171958
-58.92964152,53.73853100,56.28674229,15.69930833,1.08268395,0.63065691,-0.65994809

>  <Name>
ligand

>  <RI>
0

>  <Rbt.Current_Directory>
/home/itssahil/PROJECTS/Mol_Feturizer/New_Systems/rnas/3IQN

>  <Rbt.Executable>
rbdock ($Id: //depot/dev/client3/rdock/2013.1/src/exe/rbdock.cxx#4 $)

>  <Rbt.Library>
libRbt.so (2013.1, Build901 2013/11/27)

>  <Rbt.Parameter_File>
/export/apps/rDock/src/rDock_2013.1_src/data/scripts/dock_solv.prm

>  <Rbt.Receptor>
prm/blind_docking_100.prm

>  <SCORE>
-14.174

>  <SCORE.INTER>
-11.0793

>  <SCORE.INTER.CONST>
1

>  <SCORE.INTER.POLAR>
0

>  <SCORE.INTER.ROT>
7

>  <SCORE.INTER.SOLV>
10.4754

>  <SCORE.INTER.VDW>
-19.1447

>  <SCORE.INTER.norm>
-0.410344

>  <SCORE.INTRA>
-3.09473

>  <SCORE.INTRA.DIHEDRAL>
-5.86841

>  <SCORE.INTRA.DIHEDRAL.0>
10.0365

>  <SCORE.INTRA.POLAR>
0

>  <SCORE.INTRA.POLAR.0>
0

>  <SCORE.INTRA.REPUL>
0

>  <SCORE.INTRA.REPUL.0>
0

>  <SCORE.INTRA.SOLV>
0.173488

>  <SCORE.INTRA.SOLV.lig_0>
-48.6728

>  <SCORE.INTRA.VDW>
-0.247268

>  <SCORE.INTRA.VDW.0>
-1.10662

>  <SCORE.INTRA.norm>
-0.11462

>  <SCORE.RESTR>
0

>  <SCORE.RESTR.CAVITY>
0

>  <SCORE.RESTR.norm>
0

>  <SCORE.SYSTEM>
0

>  <SCORE.SYSTEM.CONST>
0

>  <SCORE.SYSTEM.DIHEDRAL>
0

>  <SCORE.SYSTEM.SOLV>
0

>  <SCORE.SYSTEM.norm>
0

>  <SCORE.heavy>
27

>  <SCORE.norm>
-0.524964

>  <RMSD>
16.778

$$$$
ligand
 OpenBabel11021811483D
libRbt.so/2013.1/901 2013/11/27
 27 29  0  0  0  0  0  0  0  0999 V2000
   53.2261   53.1651   24.8129 N   0  0  0  0  0  0  0  0  0  0  0  0
   52.2340   52.1543   24.4239 C   0  0  2  0  0  0  0  0  0  0  0  0
   51.7743   51.4401   25.6593 C   0  0  0  0  0  0  0  0  0  0  0  0
   52.2955   51.6869   26.7352 O   0  0  0  0  0  0  0  0  0  0  0  0
   52.8570   51.1423   23.4507 C   0  0  0  0  0  0  0  0  0  0  0  0
   54.0360   50.4581   24.1365 C   0  0  0  0  0  0  0  0  0  0  0  0
   54.4385   48.8274   23.4321 S   0  0  2  0  0  0  0  0  0  0  0  0
   55.8953   48.2716   24.3698 C   0  0  0  0  0  0  0  0  0  0  0  0
   55.2248   49.0040   21.7900 C   0  0  0  0  0  0  0  0  0  0  0  0
   55.1015   47.6202   21.2008 C   0  0  1  0  0  0  0  0  0  0  0  0
   55.2724   47.8227   19.8368 O   0  0  0  0  0  0  0  0  0  0  0  0
   56.1383   46.5296   21.4742 C   0  0  1  0  0  0  0  0  0  0  0  0
   55.8204   45.7550   22.5948 O   0  0  0  0  0  0  0  0  0  0  0  0
   56.0268   45.7412   20.0826 C   0  0  1  0  0  0  0  0  0  0  0  0
   54.7027   45.2955   19.7545 O   0  0  0  0  0  0  0  0  0  0  0  0
   56.4411   47.0238   19.3988 C   0  0  1  0  0  0  0  0  0  0  0  0
   50.8684   50.6248   25.5857 O   0  0  0  0  0  0  0  0  0  0  0  0
   59.4245   46.1221   15.4549 N   0  0  0  0  0  0  0  0  0  0  0  0
   59.4368   45.6331   16.6959 C   0  0  0  0  0  0  0  0  0  0  0  0
   58.5100   45.9678   17.5927 N   0  0  0  0  0  0  0  0  0  0  0  0
   57.5960   46.9093   17.3226 C   0  0  0  0  0  0  0  0  0  0  0  0
   57.5912   47.5079   16.0225 C   0  0  0  0  0  0  0  0  0  0  0  0
   58.5585   47.0562   15.0831 C   0  0  0  0  0  0  0  0  0  0  0  0
   58.6099   47.5635   13.8152 N   0  0  0  0  0  0  0  0  0  0  0  0
   56.5941   48.4139   16.0070 N   0  0  0  0  0  0  0  0  0  0  0  0
   55.9960   48.4259   17.1779 C   0  0  0  0  0  0  0  0  0  0  0  0
   56.5533   47.5096   18.0356 N   0  0  0  0  0  0  0  0  0  0  0  0
  2  1  1  1  0  0  0
  2  3  1  0  0  0  0
  2  5  1  0  0  0  0
  3  4  1  0  0  0  0
  3 17  1  0  0  0  0
  5  6  1  0  0  0  0
  7  6  1  1  0  0  0
  7  8  1  0  0  0  0
  7  9  1  0  0  0  0
 10  9  1  1  0  0  0
 10 11  1  0  0  0  0
 10 12  1  0  0  0  0
 11 16  1  0  0  0  0
 12 13  1  1  0  0  0
 12 14  1  0  0  0  0
 14 15  1  6  0  0  0
 14 16  1  0  0  0  0
 16 27  1  6  0  0  0
 18 19  2  0  0  0  0
 18 23  1  0  0  0  0
 19 20  1  0  0  0  0
 20 21  2  0  0  0  0
 21 22  1  0  0  0  0
 21 27  1  0  0  0  0
 22 23  2  0  0  0  0
 22 25  1  0  0  0  0
 23 24  1  0  0  0  0
 25 26  2  0  0  0  0
 26 27  1  0  0  0  0
M  END
>  <CHROM.1>
-4.84587257,59.91151799,156.44788355,177.80591489,-163.61424389,160.96085073
-179.19925490,55.46912250,48.32824008,20.71829071,2.84960924,-1.05093526
2.35852548

>  <Name>
ligand

>  <RI>
0

>  <Rbt.Current_Directory>
/home/itssahil/PROJECTS/Mol_Feturizer/New_Systems/rnas/3IQN

>  <Rbt.Executable>
rbdock ($Id: //depot/dev/client3/rdock/2013.1/src/exe/rbdock.cxx#4 $)

>  <Rbt.Library>
libRbt.so (2013.1, Build901 2013/11/27)

>  <Rbt.Parameter_File>
/export/apps/rDock/src/rDock_2013.1_src/data/scripts/dock_solv.prm

>  <Rbt.Receptor>
prm/blind_docking_100.prm

>  <SCORE>
-11.8967

>  <SCORE.INTER>
-10.2143

>  <SCORE.INTER.CONST>
1

>  <SCORE.INTER.POLAR>
0

>  <SCORE.INTER.ROT>
7

>  <SCORE.INTER.SOLV>
23.0905

>  <SCORE.INTER.VDW>
-22.773

>  <SCORE.INTER.norm>
-0.378306

>  <SCORE.INTRA>
-1.68246

>  <SCORE.INTRA.DIHEDRAL>
-2.61674

>  <SCORE.INTRA.DIHEDRAL.0>
10.0365

>  <SCORE.INTRA.POLAR>
0

>  <SCORE.INTRA.POLAR.0>
0

>  <SCORE.INTRA.REPUL>
0

>  <SCORE.INTRA.REPUL.0>
0

>  <SCORE.INTRA.SOLV>
-0.18938

>  <SCORE.INTRA.SOLV.lig_0>
-48.6728

>  <SCORE.INTRA.VDW>
-0.279395

>  <SCORE.INTRA.VDW.0>
-1.10662

>  <SCORE.INTRA.norm>
-0.0623132

>  <SCORE.RESTR>
0

>  <SCORE.RESTR.CAVITY>
0

>  <SCORE.RESTR.norm>
0

>  <SCORE.SYSTEM>
0

>  <SCORE.SYSTEM.CONST>
0

>  <SCORE.SYSTEM.DIHEDRAL>
0

>  <SCORE.SYSTEM.SOLV>
0

>  <SCORE.SYSTEM.norm>
0

>  <SCORE.heavy>
27

>  <SCORE.norm>
-0.440619

>  <RMSD>
16.826

$$$$
ligand
 OpenBabel11021811483D
libRbt.so/2013.1/901 2013/11/27
 27 29  0  0  0  0  0  0  0  0999 V2000
   49.4918   55.1226   21.2727 N   0  0  0  0  0  0  0  0  0  0  0  0
   49.7359   53.6769   21.1862 C   0  0  2  0  0  0  0  0  0  0  0  0
   51.1504   53.4082   21.6040 C   0  0  0  0  0  0  0  0  0  0  0  0
   51.8254   54.3060   22.0820 O   0  0  0  0  0  0  0  0  0  0  0  0
   49.5265   53.1858   19.7460 C   0  0  0  0  0  0  0  0  0  0  0  0
   50.5095   53.9084   18.8294 C   0  0  0  0  0  0  0  0  0  0  0  0
   50.7806   53.0579   17.2417 S   0  0  2  0  0  0  0  0  0  0  0  0
   52.3677   52.1935   17.4517 C   0  0  0  0  0  0  0  0  0  0  0  0
   51.2882   54.2450   15.9460 C   0  0  0  0  0  0  0  0  0  0  0  0
   52.3214   55.0940   16.6453 C   0  0  1  0  0  0  0  0  0  0  0  0
   53.4070   55.0788   15.7782 O   0  0  0  0  0  0  0  0  0  0  0  0
   52.1262   56.5963   16.8548 C   0  0  1  0  0  0  0  0  0  0  0  0
   51.4977   56.8921   18.0690 O   0  0  0  0  0  0  0  0  0  0  0  0
   53.6633   57.0475   16.7884 C   0  0  1  0  0  0  0  0  0  0  0  0
   54.5217   56.3786   17.7239 O   0  0  0  0  0  0  0  0  0  0  0  0
   53.7010   56.4780   15.3889 C   0  0  1  0  0  0  0  0  0  0  0  0
   51.6163   52.2866   21.4784 O   0  0  0  0  0  0  0  0  0  0  0  0
   55.5108   58.9209   11.3857 N   0  0  0  0  0  0  0  0  0  0  0  0
   54.5395   59.2379   12.2434 C   0  0  0  0  0  0  0  0  0  0  0  0
   54.2431   58.4644   13.2870 N   0  0  0  0  0  0  0  0  0  0  0  0
   54.8261   57.2691   13.4483 C   0  0  0  0  0  0  0  0  0  0  0  0
   55.8272   56.8619   12.5099 C   0  0  0  0  0  0  0  0  0  0  0  0
   56.1538   57.7625   11.4590 C   0  0  0  0  0  0  0  0  0  0  0  0
   57.1107   57.4574   10.5323 N   0  0  0  0  0  0  0  0  0  0  0  0
   56.2478   55.6381   12.8852 N   0  0  0  0  0  0  0  0  0  0  0  0
   55.5922   55.2613   13.9609 C   0  0  0  0  0  0  0  0  0  0  0  0
   54.7077   56.2272   14.3737 N   0  0  0  0  0  0  0  0  0  0  0  0
  2  1  1  6  0  0  0
  2  3  1  0  0  0  0
  2  5  1  0  0  0  0
  3  4  1  0  0  0  0
  3 17  1  0  0  0  0
  5  6  1  0  0  0  0
  7  6  1  1  0  0  0
  7  8  1  0  0  0  0
  7  9  1  0  0  0  0
 10  9  1  6  0  0  0
 10 11  1  0  0  0  0
 10 12  1  0  0  0  0
 11 16  1  0  0  0  0
 12 13  1  1  0  0  0
 12 14  1  0  0  0  0
 14 15  1  1  0  0  0
 14 16  1  0  0  0  0
 16 27  1  1  0  0  0
 18 19  2  0  0  0  0
 18 23  1  0  0  0  0
 19 20  1  0  0  0  0
 20 21  2  0  0  0  0
 21 22  1  0  0  0  0
 21 27  1  0  0  0  0
 22 23  2  0  0  0  0
 22 25  1  0  0  0  0
 23 24  1  0  0  0  0
 25 26  2  0  0  0  0
 26 27  1  0  0  0  0
M  END
>  <CHROM.1>
8.36371319,60.54805342,160.35868258,-100.88350296,44.83995474,129.18481274
156.38095663,52.95960804,55.45435457,16.46977115,2.98632320,-1.05827873,-2.86018242

>  <Name>
ligand

>  <RI>
0

>  <Rbt.Current_Directory>
/home/itssahil/PROJECTS/Mol_Feturizer/New_Systems/rnas/3IQN

>  <Rbt.Executable>
rbdock ($Id: //depot/dev/client3/rdock/2013.1/src/exe/rbdock.cxx#4 $)

>  <Rbt.Library>
libRbt.so (2013.1, Build901 2013/11/27)

>  <Rbt.Parameter_File>
/export/apps/rDock/src/rDock_2013.1_src/data/scripts/dock_solv.prm

>  <Rbt.Receptor>
prm/blind_docking_100.prm

>  <SCORE>
-11.2445

>  <SCORE.INTER>
-12.6607

>  <SCORE.INTER.CONST>
1

>  <SCORE.INTER.POLAR>
0

>  <SCORE.INTER.ROT>
7

>  <SCORE.INTER.SOLV>
21.1922

>  <SCORE.INTER.VDW>
-23.7712

>  <SCORE.INTER.norm>
-0.468914

>  <SCORE.INTRA>
1.41617

>  <SCORE.INTRA.DIHEDRAL>
2.05903

>  <SCORE.INTRA.DIHEDRAL.0>
10.0365

>  <SCORE.INTRA.POLAR>
0

>  <SCORE.INTRA.POLAR.0>
0

>  <SCORE.INTRA.REPUL>
0

>  <SCORE.INTRA.REPUL.0>
0

>  <SCORE.INTRA.SOLV>
-0.0900409

>  <SCORE.INTRA.SOLV.lig_0>
-48.6728

>  <SCORE.INTRA.VDW>
0.431681

>  <SCORE.INTRA.VDW.0>
-1.10662

>  <SCORE.INTRA.norm>
0.0524508

>  <SCORE.RESTR>
0

>  <SCORE.RESTR.CAVITY>
0

>  <SCORE.RESTR.norm>
0

>  <SCORE.SYSTEM>
0

>  <SCORE.SYSTEM.CONST>
0

>  <SCORE.SYSTEM.DIHEDRAL>
0

>  <SCORE.SYSTEM.SOLV>
0

>  <SCORE.SYSTEM.norm>
0

>  <SCORE.heavy>
27

>  <SCORE.norm>
-0.416463

>  <RMSD>
16.935

$$$$
ligand
 OpenBabel11021811483D
libRbt.so/2013.1/901 2013/11/27
 27 29  0  0  0  0  0  0  0  0999 V2000
   61.4116   41.6081   34.7640 N   0  0  0  0  0  0  0  0  0  0  0  0
   61.2662   42.3932   33.5312 C   0  0  2  0  0  0  0  0  0  0  0  0
   62.5581   43.1065   33.2673 C   0  0  0  0  0  0  0  0  0  0  0  0
   63.1227   42.9672   32.1940 O   0  0  0  0  0  0  0  0  0  0  0  0
   60.1364   43.4225   33.6845 C   0  0  0  0  0  0  0  0  0  0  0  0
   58.8085   42.6828   33.8181 C   0  0  0  0  0  0  0  0  0  0  0  0
   57.3647   43.7909   33.8897 S   0  0  2  0  0  0  0  0  0  0  0  0
   57.4490   44.5447   35.5435 C   0  0  0  0  0  0  0  0  0  0  0  0
   55.8206   42.8346   34.1065 C   0  0  0  0  0  0  0  0  0  0  0  0
   55.8218   41.9079   32.9156 C   0  0  1  0  0  0  0  0  0  0  0  0
   54.6001   41.2517   33.0031 O   0  0  0  0  0  0  0  0  0  0  0  0
   55.7767   42.4352   31.4807 C   0  0  1  0  0  0  0  0  0  0  0  0
   57.0519   42.6406   30.9436 O   0  0  0  0  0  0  0  0  0  0  0  0
   54.9720   41.2230   30.8070 C   0  0  1  0  0  0  0  0  0  0  0  0
   55.5714   39.9326   30.9944 O   0  0  0  0  0  0  0  0  0  0  0  0
   53.8412   41.5308   31.7613 C   0  0  1  0  0  0  0  0  0  0  0  0
   63.0324   43.8370   34.1230 O   0  0  0  0  0  0  0  0  0  0  0  0
   49.4712   43.1450   33.6497 N   0  0  0  0  0  0  0  0  0  0  0  0
   50.6056   43.7935   33.3815 C   0  0  0  0  0  0  0  0  0  0  0  0
   51.6504   43.1820   32.8250 N   0  0  0  0  0  0  0  0  0  0  0  0
   51.6496   41.8572   32.6260 C   0  0  0  0  0  0  0  0  0  0  0  0
   50.4741   41.1135   32.9637 C   0  0  0  0  0  0  0  0  0  0  0  0
   49.3637   41.8327   33.4851 C   0  0  0  0  0  0  0  0  0  0  0  0
   48.1982   41.2002   33.8157 N   0  0  0  0  0  0  0  0  0  0  0  0
   50.7269   39.8214   32.6776 N   0  0  0  0  0  0  0  0  0  0  0  0
   51.9479   39.7095   32.2027 C   0  0  0  0  0  0  0  0  0  0  0  0
   52.5715   40.9307   32.1285 N   0  0  0  0  0  0  0  0  0  0  0  0
  2  1  1  1  0  0  0
  2  3  1  0  0  0  0
  2  5  1  0  0  0  0
  3  4  1  0  0  0  0
  3 17  1  0  0  0  0
  5  6  1  0  0  0  0
  7  6  1  1  0  0  0
  7  8  1  0  0  0  0
  7  9  1  0  0  0  0
 10  9  1  1  0  0  0
 10 11  1  0  0  0  0
 10 12  1  0  0  0  0
 11 16  1  0  0  0  0
 12 13  1  6  0  0  0
 12 14  1  0  0  0  0
 14 15  1  1  0  0  0
 14 16  1  0  0  0  0
 16 27  1  6  0  0  0
 18 19  2  0  0  0  0
 18 23  1  0  0  0  0
 19 20  1  0  0  0  0
 20 21  2  0  0  0  0
 21 22  1  0  0  0  0
 21 27  1  0  0  0  0
 22 23  2  0  0  0  0
 22 25  1  0  0  0  0
 23 24  1  0  0  0  0
 25 26  2  0  0  0  0
 26 27  1  0  0  0  0
M  END
>  <CHROM.1>
125.14332649,-66.13058793,-175.93362716,-72.86404856,-57.72918597,-175.17708976
96.45922075,55.63004782,42.26564814,33.02569533,-0.14044087,-0.05537227,-2.37163666

>  <Name>
ligand

>  <RI>
0

>  <Rbt.Current_Directory>
/home/itssahil/PROJECTS/Mol_Feturizer/New_Systems/rnas/3IQN

>  <Rbt.Executable>
rbdock ($Id: //depot/dev/client3/rdock/2013.1/src/exe/rbdock.cxx#4 $)

>  <Rbt.Library>
libRbt.so (2013.1, Build901 2013/11/27)

>  <Rbt.Parameter_File>
/export/apps/rDock/src/rDock_2013.1_src/data/scripts/dock_solv.prm

>  <Rbt.Receptor>
prm/blind_docking_100.prm

>  <SCORE>
-10.389

>  <SCORE.INTER>
-5.52534

>  <SCORE.INTER.CONST>
1

>  <SCORE.INTER.POLAR>
0

>  <SCORE.INTER.ROT>
7

>  <SCORE.INTER.SOLV>
7.92157

>  <SCORE.INTER.VDW>
-14.5908

>  <SCORE.INTER.norm>
-0.204642

>  <SCORE.INTRA>
-4.86363

>  <SCORE.INTRA.DIHEDRAL>
-6.51711

>  <SCORE.INTRA.DIHEDRAL.0>
10.0365

>  <SCORE.INTRA.POLAR>
0

>  <SCORE.INTRA.POLAR.0>
0

>  <SCORE.INTRA.REPUL>
0

>  <SCORE.INTRA.REPUL.0>
0

>  <SCORE.INTRA.SOLV>
-0.159707

>  <SCORE.INTRA.SOLV.lig_0>
-48.6728

>  <SCORE.INTRA.VDW>
-1.52523

>  <SCORE.INTRA.VDW.0>
-1.10662

>  <SCORE.INTRA.norm>
-0.180135

>  <SCORE.RESTR>
0

>  <SCORE.RESTR.CAVITY>
0

>  <SCORE.RESTR.norm>
0

>  <SCORE.SYSTEM>
0

>  <SCORE.SYSTEM.CONST>
0

>  <SCORE.SYSTEM.DIHEDRAL>
0

>  <SCORE.SYSTEM.SOLV>
0

>  <SCORE.SYSTEM.norm>
0

>  <SCORE.heavy>
27

>  <SCORE.norm>
-0.384777

>  <RMSD>
17.056

$$$$
ligand
 OpenBabel11021811483D
libRbt.so/2013.1/901 2013/11/27
 27 29  0  0  0  0  0  0  0  0999 V2000
   59.5285   40.4721   35.5503 N   0  0  0  0  0  0  0  0  0  0  0  0
   59.2518   41.9089   35.4222 C   0  0  2  0  0  0  0  0  0  0  0  0
   60.1821   42.4821   34.3960 C   0  0  0  0  0  0  0  0  0  0  0  0
   59.7532   43.2405   33.5409 O   0  0  0  0  0  0  0  0  0  0  0  0
   59.4754   42.6170   36.7668 C   0  0  0  0  0  0  0  0  0  0  0  0
   58.9608   44.0497   36.6626 C   0  0  0  0  0  0  0  0  0  0  0  0
   57.1474   44.1793   36.7732 S   0  0  2  0  0  0  0  0  0  0  0  0
   56.7194   43.3008   38.3079 C   0  0  0  0  0  0  0  0  0  0  0  0
   56.3405   43.0505   35.5812 C   0  0  0  0  0  0  0  0  0  0  0  0
   56.7174   43.6388   34.2437 C   0  0  1  0  0  0  0  0  0  0  0  0
   56.4050   42.6328   33.3375 O   0  0  0  0  0  0  0  0  0  0  0  0
   55.9662   44.8276   33.6425 C   0  0  1  0  0  0  0  0  0  0  0  0
   56.5279   46.0566   34.0043 O   0  0  0  0  0  0  0  0  0  0  0  0
   56.1421   44.4606   32.0917 C   0  0  1  0  0  0  0  0  0  0  0  0
   57.5031   44.2866   31.6711 O   0  0  0  0  0  0  0  0  0  0  0  0
   55.4087   43.1713   32.3819 C   0  0  1  0  0  0  0  0  0  0  0  0
   61.3695   42.1996   34.4299 O   0  0  0  0  0  0  0  0  0  0  0  0
   51.2805   41.0700   30.4298 N   0  0  0  0  0  0  0  0  0  0  0  0
   51.4510   42.2040   31.1112 C   0  0  0  0  0  0  0  0  0  0  0  0
   52.6566   42.6149   31.5023 N   0  0  0  0  0  0  0  0  0  0  0  0
   53.7374   41.8409   31.3360 C   0  0  0  0  0  0  0  0  0  0  0  0
   53.5850   40.5841   30.6680 C   0  0  0  0  0  0  0  0  0  0  0  0
   52.2862   40.2334   30.2074 C   0  0  0  0  0  0  0  0  0  0  0  0
   52.0591   39.0599   29.5449 N   0  0  0  0  0  0  0  0  0  0  0  0
   54.8005   40.0040   30.6332 N   0  0  0  0  0  0  0  0  0  0  0  0
   55.6763   40.7881   31.2222 C   0  0  0  0  0  0  0  0  0  0  0  0
   55.0918   41.9484   31.6671 N   0  0  0  0  0  0  0  0  0  0  0  0
  2  1  1  1  0  0  0
  2  3  1  0  0  0  0
  2  5  1  0  0  0  0
  3  4  1  0  0  0  0
  3 17  1  0  0  0  0
  5  6  1  0  0  0  0
  7  6  1  6  0  0  0
  7  8  1  0  0  0  0
  7  9  1  0  0  0  0
 10  9  1  1  0  0  0
 10 11  1  0  0  0  0
 10 12  1  0  0  0  0
 11 16  1  0  0  0  0
 12 13  1  6  0  0  0
 12 14  1  0  0  0  0
 14 15  1  1  0  0  0
 14 16  1  0  0  0  0
 16 27  1  6  0  0  0
 18 19  2  0  0  0  0
 18 23  1  0  0  0  0
 19 20  1  0  0  0  0
 20 21  2  0  0  0  0
 21 22  1  0  0  0  0
 21 27  1  0  0  0  0
 22 23  2  0  0  0  0
 22 25  1  0  0  0  0
 23 24  1  0  0  0  0
 25 26  2  0  0  0  0
 26 27  1  0  0  0  0
M  END
>  <CHROM.1>
134.57050755,-170.67826465,77.48071420,53.21686217,-67.01085901,165.76721018
141.82544178,56.29629045,42.61052524,33.45817540,-0.69397671,0.33654045,-2.34638056

>  <Name>
ligand

>  <RI>
0

>  <Rbt.Current_Directory>
/home/itssahil/PROJECTS/Mol_Feturizer/New_Systems/rnas/3IQN

>  <Rbt.Executable>
rbdock ($Id: //depot/dev/client3/rdock/2013.1/src/exe/rbdock.cxx#4 $)

>  <Rbt.Library>
libRbt.so (2013.1, Build901 2013/11/27)

>  <Rbt.Parameter_File>
/export/apps/rDock/src/rDock_2013.1_src/data/scripts/dock_solv.prm

>  <Rbt.Receptor>
prm/blind_docking_100.prm

>  <SCORE>
-11.8657

>  <SCORE.INTER>
-7.05786

>  <SCORE.INTER.CONST>
1

>  <SCORE.INTER.POLAR>
0

>  <SCORE.INTER.ROT>
7

>  <SCORE.INTER.SOLV>
11.0118

>  <SCORE.INTER.VDW>
-16.6425

>  <SCORE.INTER.norm>
-0.261402

>  <SCORE.INTRA>
-4.8104

>  <SCORE.INTRA.DIHEDRAL>
-4.86973

>  <SCORE.INTRA.DIHEDRAL.0>
10.0365

>  <SCORE.INTRA.POLAR>
0

>  <SCORE.INTRA.POLAR.0>
0

>  <SCORE.INTRA.REPUL>
0

>  <SCORE.INTRA.REPUL.0>
0

>  <SCORE.INTRA.SOLV>
-0.104323

>  <SCORE.INTRA.SOLV.lig_0>
-48.6728

>  <SCORE.INTRA.VDW>
-2.32337

>  <SCORE.INTRA.VDW.0>
-1.10662

>  <SCORE.INTRA.norm>
-0.178163

>  <SCORE.RESTR>
0.002508

>  <SCORE.RESTR.CAVITY>
0.002508

>  <SCORE.RESTR.norm>
9.28891e-05

>  <SCORE.SYSTEM>
0

>  <SCORE.SYSTEM.CONST>
0

>  <SCORE.SYSTEM.DIHEDRAL>
0

>  <SCORE.SYSTEM.SOLV>
0

>  <SCORE.SYSTEM.norm>
0

>  <SCORE.heavy>
27

>  <SCORE.norm>
-0.439472

>  <RMSD>
17.154

$$$$
ligand
 OpenBabel11021811483D
libRbt.so/2013.1/901 2013/11/27
 27 29  0  0  0  0  0  0  0  0999 V2000
   52.9835   38.2849   20.0378 N   0  0  0  0  0  0  0  0  0  0  0  0
   54.0602   38.5593   20.9984 C   0  0  2  0  0  0  0  0  0  0  0  0
   53.9346   37.5963   22.1404 C   0  0  0  0  0  0  0  0  0  0  0  0
   52.9098   36.9481   22.2808 O   0  0  0  0  0  0  0  0  0  0  0  0
   53.9492   39.9970   21.5278 C   0  0  0  0  0  0  0  0  0  0  0  0
   52.4781   40.3229   21.7687 C   0  0  0  0  0  0  0  0  0  0  0  0
   52.1828   42.0675   22.2008 S   0  0  2  0  0  0  0  0  0  0  0  0
   50.3834   42.2805   22.0367 C   0  0  0  0  0  0  0  0  0  0  0  0
   52.7112   43.1728   20.8424 C   0  0  0  0  0  0  0  0  0  0  0  0
   54.1947   43.3185   21.0771 C   0  0  1  0  0  0  0  0  0  0  0  0
   54.4882   44.5817   20.5782 O   0  0  0  0  0  0  0  0  0  0  0  0
   54.7858   43.4074   22.4848 C   0  0  1  0  0  0  0  0  0  0  0  0
   55.1309   42.1546   23.0026 O   0  0  0  0  0  0  0  0  0  0  0  0
   56.0429   44.3468   22.1560 C   0  0  1  0  0  0  0  0  0  0  0  0
   56.9107   43.8435   21.1298 O   0  0  0  0  0  0  0  0  0  0  0  0
   55.0560   45.3893   21.6834 C   0  0  1  0  0  0  0  0  0  0  0  0
   54.8657   37.4533   22.9172 O   0  0  0  0  0  0  0  0  0  0  0  0
   54.5424   50.2014   23.0429 N   0  0  0  0  0  0  0  0  0  0  0  0
   54.4307   49.0731   23.7456 C   0  0  0  0  0  0  0  0  0  0  0  0
   54.6605   47.8793   23.2002 N   0  0  0  0  0  0  0  0  0  0  0  0
   54.8921   47.7534   21.8866 C   0  0  0  0  0  0  0  0  0  0  0  0
   54.9533   48.9371   21.0842 C   0  0  0  0  0  0  0  0  0  0  0  0
   54.7735   50.1880   21.7364 C   0  0  0  0  0  0  0  0  0  0  0  0
   54.8348   51.3656   21.0457 N   0  0  0  0  0  0  0  0  0  0  0  0
   55.1892   48.5451   19.8170 N   0  0  0  0  0  0  0  0  0  0  0  0
   55.2718   47.2336   19.7732 C   0  0  0  0  0  0  0  0  0  0  0  0
   55.1133   46.6788   21.0195 N   0  0  0  0  0  0  0  0  0  0  0  0
  2  1  1  6  0  0  0
  2  3  1  0  0  0  0
  2  5  1  0  0  0  0
  3  4  1  0  0  0  0
  3 17  1  0  0  0  0
  5  6  1  0  0  0  0
  7  6  1  6  0  0  0
  7  8  1  0  0  0  0
  7  9  1  0  0  0  0
 10  9  1  1  0  0  0
 10 11  1  0  0  0  0
 10 12  1  0  0  0  0
 11 16  1  0  0  0  0
 12 13  1  6  0  0  0
 12 14  1  0  0  0  0
 14 15  1  6  0  0  0
 14 16  1  0  0  0  0
 16 27  1  6  0  0  0
 18 19  2  0  0  0  0
 18 23  1  0  0  0  0
 19 20  1  0  0  0  0
 20 21  2  0  0  0  0
 21 22  1  0  0  0  0
 21 27  1  0  0  0  0
 22 23  2  0  0  0  0
 22 25  1  0  0  0  0
 23 24  1  0  0  0  0
 25 26  2  0  0  0  0
 26 27  1  0  0  0  0
M  END
>  <CHROM.1>
-13.99987587,40.35380177,-172.78775314,166.75764200,-83.01535706,-150.45301394
146.64636029,54.17336333,43.88423346,21.70598517,1.72157968,-0.14050013,-3.13738884

>  <Name>
ligand

>  <RI>
0

>  <Rbt.Current_Directory>
/home/itssahil/PROJECTS/Mol_Feturizer/New_Systems/rnas/3IQN

>  <Rbt.Executable>
rbdock ($Id: //depot/dev/client3/rdock/2013.1/src/exe/rbdock.cxx#4 $)

>  <Rbt.Library>
libRbt.so (2013.1, Build901 2013/11/27)

>  <Rbt.Parameter_File>
/export/apps/rDock/src/rDock_2013.1_src/data/scripts/dock_solv.prm

>  <Rbt.Receptor>
prm/blind_docking_100.prm

>  <SCORE>
-11.7179

>  <SCORE.INTER>
-11.8232

>  <SCORE.INTER.CONST>
1

>  <SCORE.INTER.POLAR>
0

>  <SCORE.INTER.ROT>
7

>  <SCORE.INTER.SOLV>
20.3342

>  <SCORE.INTER.VDW>
-22.9269

>  <SCORE.INTER.norm>
-0.437896

>  <SCORE.INTRA>
-0.354609

>  <SCORE.INTRA.DIHEDRAL>
-1.76274

>  <SCORE.INTRA.DIHEDRAL.0>
10.0365

>  <SCORE.INTRA.POLAR>
0

>  <SCORE.INTRA.POLAR.0>
0

>  <SCORE.INTRA.REPUL>
0

>  <SCORE.INTRA.REPUL.0>
0

>  <SCORE.INTRA.SOLV>
0.437731

>  <SCORE.INTRA.SOLV.lig_0>
-48.6728

>  <SCORE.INTRA.VDW>
0.307895

>  <SCORE.INTRA.VDW.0>
-1.10662

>  <SCORE.INTRA.norm>
-0.0131337

>  <SCORE.RESTR>
0.459869

>  <SCORE.RESTR.CAVITY>
0.459869

>  <SCORE.RESTR.norm>
0.0170322

>  <SCORE.SYSTEM>
0

>  <SCORE.SYSTEM.CONST>
0

>  <SCORE.SYSTEM.DIHEDRAL>
0

>  <SCORE.SYSTEM.SOLV>
0

>  <SCORE.SYSTEM.norm>
0

>  <SCORE.heavy>
27

>  <SCORE.norm>
-0.433998

>  <RMSD>
17.264

$$$$
ligand
 OpenBabel11021811483D
libRbt.so/2013.1/901 2013/11/27
 27 29  0  0  0  0  0  0  0  0999 V2000
   53.4994   60.2919   10.9917 N   0  0  0  0  0  0  0  0  0  0  0  0
   54.3783   59.1158   10.9519 C   0  0  2  0  0  0  0  0  0  0  0  0
   55.1710   59.1580    9.6802 C   0  0  0  0  0  0  0  0  0  0  0  0
   56.2656   58.6203    9.6266 O   0  0  0  0  0  0  0  0  0  0  0  0
   53.5453   57.8258   10.9922 C   0  0  0  0  0  0  0  0  0  0  0  0
   54.4894   56.6301   11.0775 C   0  0  0  0  0  0  0  0  0  0  0  0
   55.4320   56.5596   12.6344 S   0  0  2  0  0  0  0  0  0  0  0  0
   56.4873   55.0873   12.4633 C   0  0  0  0  0  0  0  0  0  0  0  0
   54.3753   55.9770   14.0091 C   0  0  0  0  0  0  0  0  0  0  0  0
   54.5379   57.0590   15.0483 C   0  0  1  0  0  0  0  0  0  0  0  0
   53.3820   56.9625   15.8132 O   0  0  0  0  0  0  0  0  0  0  0  0
   55.6187   56.9874   16.1280 C   0  0  1  0  0  0  0  0  0  0  0  0
   56.8122   57.6021   15.7350 O   0  0  0  0  0  0  0  0  0  0  0  0
   54.8396   57.7613   17.2962 C   0  0  1  0  0  0  0  0  0  0  0  0
   54.3802   59.0731   16.9387 O   0  0  0  0  0  0  0  0  0  0  0  0
   53.7817   56.6851   17.2129 C   0  0  1  0  0  0  0  0  0  0  0  0
   54.7103   59.7176    8.6977 O   0  0  0  0  0  0  0  0  0  0  0  0
   51.2285   52.6931   18.8902 N   0  0  0  0  0  0  0  0  0  0  0  0
   52.4406   52.7941   18.3425 C   0  0  0  0  0  0  0  0  0  0  0  0
   52.9648   53.9724   18.0076 N   0  0  0  0  0  0  0  0  0  0  0  0
   52.2433   55.0981   18.0917 C   0  0  0  0  0  0  0  0  0  0  0  0
   50.9122   55.0225   18.6124 C   0  0  0  0  0  0  0  0  0  0  0  0
   50.4342   53.7476   19.0227 C   0  0  0  0  0  0  0  0  0  0  0  0
   49.1816   53.5925   19.5469 N   0  0  0  0  0  0  0  0  0  0  0  0
   50.4059   56.2709   18.5887 N   0  0  0  0  0  0  0  0  0  0  0  0
   51.3029   57.0972   18.0974 C   0  0  0  0  0  0  0  0  0  0  0  0
   52.4689   56.4433   17.7829 N   0  0  0  0  0  0  0  0  0  0  0  0
  2  1  1  6  0  0  0
  2  3  1  0  0  0  0
  2  5  1  0  0  0  0
  3  4  1  0  0  0  0
  3 17  1  0  0  0  0
  5  6  1  0  0  0  0
  7  6  1  6  0  0  0
  7  8  1  0  0  0  0
  7  9  1  0  0  0  0
 10  9  1  6  0  0  0
 10 11  1  0  0  0  0
 10 12  1  0  0  0  0
 11 16  1  0  0  0  0
 12 13  1  6  0  0  0
 12 14  1  0  0  0  0
 14 15  1  6  0  0  0
 14 16  1  0  0  0  0
 16 27  1  1  0  0  0
 18 19  2  0  0  0  0
 18 23  1  0  0  0  0
 19 20  1  0  0  0  0
 20 21  2  0  0  0  0
 21 22  1  0  0  0  0
 21 27  1  0  0  0  0
 22 23  2  0  0  0  0
 22 25  1  0  0  0  0
 23 24  1  0  0  0  0
 25 26  2  0  0  0  0
 26 27  1  0  0  0  0
M  END
>  <CHROM.1>
153.00491451,-174.91436006,65.86281121,-178.80042677,-126.07101259,155.74793218
108.15745030,53.69585653,56.64979485,14.96638784,1.16985768,-0.15046380,-1.19135512

>  <Name>
ligand

>  <RI>
0

>  <Rbt.Current_Directory>
/home/itssahil/PROJECTS/Mol_Feturizer/New_Systems/rnas/3IQN

>  <Rbt.Executable>
rbdock ($Id: //depot/dev/client3/rdock/2013.1/src/exe/rbdock.cxx#4 $)

>  <Rbt.Library>
libRbt.so (2013.1, Build901 2013/11/27)

>  <Rbt.Parameter_File>
/export/apps/rDock/src/rDock_2013.1_src/data/scripts/dock_solv.prm

>  <Rbt.Receptor>
prm/blind_docking_100.prm

>  <SCORE>
-12.931

>  <SCORE.INTER>
-10.6258

>  <SCORE.INTER.CONST>
1

>  <SCORE.INTER.POLAR>
0

>  <SCORE.INTER.ROT>
7

>  <SCORE.INTER.SOLV>
11.0573

>  <SCORE.INTER.VDW>
-19.0363

>  <SCORE.INTER.norm>
-0.393547

>  <SCORE.INTRA>
-2.30524

>  <SCORE.INTRA.DIHEDRAL>
-0.284114

>  <SCORE.INTRA.DIHEDRAL.0>
10.0365

>  <SCORE.INTRA.POLAR>
0

>  <SCORE.INTRA.POLAR.0>
0

>  <SCORE.INTRA.REPUL>
0

>  <SCORE.INTRA.REPUL.0>
0

>  <SCORE.INTRA.SOLV>
-0.890838

>  <SCORE.INTRA.SOLV.lig_0>
-48.6728

>  <SCORE.INTRA.VDW>
-1.71776

>  <SCORE.INTRA.VDW.0>
-1.10662

>  <SCORE.INTRA.norm>
-0.0853792

>  <SCORE.RESTR>
0

>  <SCORE.RESTR.CAVITY>
0

>  <SCORE.RESTR.norm>
0

>  <SCORE.SYSTEM>
0

>  <SCORE.SYSTEM.CONST>
0

>  <SCORE.SYSTEM.DIHEDRAL>
0

>  <SCORE.SYSTEM.SOLV>
0

>  <SCORE.SYSTEM.norm>
0

>  <SCORE.heavy>
27

>  <SCORE.norm>
-0.478926

>  <RMSD>
17.475

$$$$
ligand
 OpenBabel11021811483D
libRbt.so/2013.1/901 2013/11/27
 27 29  0  0  0  0  0  0  0  0999 V2000
   53.7978   60.6884   10.1321 N   0  0  0  0  0  0  0  0  0  0  0  0
   53.1828   59.5586   10.8410 C   0  0  2  0  0  0  0  0  0  0  0  0
   52.9143   59.9751   12.2559 C   0  0  0  0  0  0  0  0  0  0  0  0
   52.5203   59.1537   13.0684 O   0  0  0  0  0  0  0  0  0  0  0  0
   54.1275   58.3474   10.8356 C   0  0  0  0  0  0  0  0  0  0  0  0
   55.4464   58.7462   11.4912 C   0  0  0  0  0  0  0  0  0  0  0  0
   56.1010   57.4846   12.6302 S   0  0  2  0  0  0  0  0  0  0  0  0
   56.5080   56.0703   11.5603 C   0  0  0  0  0  0  0  0  0  0  0  0
   54.7506   56.7147   13.5944 C   0  0  0  0  0  0  0  0  0  0  0  0
   54.7347   57.5242   14.8678 C   0  0  1  0  0  0  0  0  0  0  0  0
   53.6201   57.0509   15.5492 O   0  0  0  0  0  0  0  0  0  0  0  0
   55.8221   57.3770   15.9331 C   0  0  1  0  0  0  0  0  0  0  0  0
   56.8883   58.2614   15.7383 O   0  0  0  0  0  0  0  0  0  0  0  0
   54.9329   57.7014   17.2272 C   0  0  1  0  0  0  0  0  0  0  0  0
   54.2512   58.9634   17.1808 O   0  0  0  0  0  0  0  0  0  0  0  0
   54.0752   56.5144   16.8534 C   0  0  1  0  0  0  0  0  0  0  0  0
   53.1062   61.1328   12.5932 O   0  0  0  0  0  0  0  0  0  0  0  0
   51.8875   51.9969   16.5795 N   0  0  0  0  0  0  0  0  0  0  0  0
   53.0426   52.4452   16.0855 C   0  0  0  0  0  0  0  0  0  0  0  0
   53.4734   53.6843   16.3186 N   0  0  0  0  0  0  0  0  0  0  0  0
   52.7023   54.5748   16.9568 C   0  0  0  0  0  0  0  0  0  0  0  0
   51.4250   54.1513   17.4446 C   0  0  0  0  0  0  0  0  0  0  0  0
   51.0516   52.7960   17.2302 C   0  0  0  0  0  0  0  0  0  0  0  0
   49.8571   52.3076   17.6800 N   0  0  0  0  0  0  0  0  0  0  0  0
   50.8525   55.2186   18.0348 N   0  0  0  0  0  0  0  0  0  0  0  0
   51.6600   56.2525   17.9467 C   0  0  0  0  0  0  0  0  0  0  0  0
   52.8291   55.9231   17.3058 N   0  0  0  0  0  0  0  0  0  0  0  0
  2  1  1  6  0  0  0
  2  3  1  0  0  0  0
  2  5  1  0  0  0  0
  3  4  1  0  0  0  0
  3 17  1  0  0  0  0
  5  6  1  0  0  0  0
  7  6  1  6  0  0  0
  7  8  1  0  0  0  0
  7  9  1  0  0  0  0
 10  9  1  6  0  0  0
 10 11  1  0  0  0  0
 10 12  1  0  0  0  0
 11 16  1  0  0  0  0
 12 13  1  6  0  0  0
 12 14  1  0  0  0  0
 14 15  1  6  0  0  0
 14 16  1  0  0  0  0
 16 27  1  1  0  0  0
 18 19  2  0  0  0  0
 18 23  1  0  0  0  0
 19 20  1  0  0  0  0
 20 21  2  0  0  0  0
 21 22  1  0  0  0  0
 21 27  1  0  0  0  0
 22 23  2  0  0  0  0
 22 25  1  0  0  0  0
 23 24  1  0  0  0  0
 25 26  2  0  0  0  0
 26 27  1  0  0  0  0
M  END
>  <CHROM.1>
-173.05935483,58.15694008,137.12546946,65.90356187,-94.51664419,173.62235874
92.48774831,53.70985600,56.81911832,14.79588237,0.61747650,-1.14322335,-1.69894598

>  <Name>
ligand

>  <RI>
0

>  <Rbt.Current_Directory>
/home/itssahil/PROJECTS/Mol_Feturizer/New_Systems/rnas/3IQN

>  <Rbt.Executable>
rbdock ($Id: //depot/dev/client3/rdock/2013.1/src/exe/rbdock.cxx#4 $)

>  <Rbt.Library>
libRbt.so (2013.1, Build901 2013/11/27)

>  <Rbt.Parameter_File>
/export/apps/rDock/src/rDock_2013.1_src/data/scripts/dock_solv.prm

>  <Rbt.Receptor>
prm/blind_docking_100.prm

>  <SCORE>
-7.36834

>  <SCORE.INTER>
-6.15406

>  <SCORE.INTER.CONST>
1

>  <SCORE.INTER.POLAR>
0

>  <SCORE.INTER.ROT>
7

>  <SCORE.INTER.SOLV>
17.0033

>  <SCORE.INTER.VDW>
-18.0371

>  <SCORE.INTER.norm>
-0.227928

>  <SCORE.INTRA>
-1.21429

>  <SCORE.INTRA.DIHEDRAL>
0.256015

>  <SCORE.INTRA.DIHEDRAL.0>
10.0365

>  <SCORE.INTRA.POLAR>
0

>  <SCORE.INTRA.POLAR.0>
0

>  <SCORE.INTRA.REPUL>
0

>  <SCORE.INTRA.REPUL.0>
0

>  <SCORE.INTRA.SOLV>
-0.250503

>  <SCORE.INTRA.SOLV.lig_0>
-48.6728

>  <SCORE.INTRA.VDW>
-1.21704

>  <SCORE.INTRA.VDW.0>
-1.10662

>  <SCORE.INTRA.norm>
-0.0449736

>  <SCORE.RESTR>
0

>  <SCORE.RESTR.CAVITY>
0

>  <SCORE.RESTR.norm>
0

>  <SCORE.SYSTEM>
0

>  <SCORE.SYSTEM.CONST>
0

>  <SCORE.SYSTEM.DIHEDRAL>
0

>  <SCORE.SYSTEM.SOLV>
0

>  <SCORE.SYSTEM.norm>
0

>  <SCORE.heavy>
27

>  <SCORE.norm>
-0.272902

>  <RMSD>
17.752

$$$$
ligand
 OpenBabel11021811483D
libRbt.so/2013.1/901 2013/11/27
 27 29  0  0  0  0  0  0  0  0999 V2000
   57.0574   61.1984   21.6558 N   0  0  0  0  0  0  0  0  0  0  0  0
   55.8208   61.5277   20.9349 C   0  0  2  0  0  0  0  0  0  0  0  0
   54.6548   61.2072   21.8210 C   0  0  0  0  0  0  0  0  0  0  0  0
   54.8456   60.7646   22.9425 O   0  0  0  0  0  0  0  0  0  0  0  0
   55.7216   60.7041   19.6421 C   0  0  0  0  0  0  0  0  0  0  0  0
   55.7562   59.2205   19.9972 C   0  0  0  0  0  0  0  0  0  0  0  0
   55.8452   58.1282   18.5424 S   0  0  2  0  0  0  0  0  0  0  0  0
   57.4768   58.4702   17.8134 C   0  0  0  0  0  0  0  0  0  0  0  0
   54.8018   58.7683   17.1832 C   0  0  0  0  0  0  0  0  0  0  0  0
   54.6277   57.5650   16.2894 C   0  0  1  0  0  0  0  0  0  0  0  0
   54.0001   58.0768   15.1604 O   0  0  0  0  0  0  0  0  0  0  0  0
   55.8221   56.8410   15.6662 C   0  0  1  0  0  0  0  0  0  0  0  0
   56.2987   55.8002   16.4703 O   0  0  0  0  0  0  0  0  0  0  0  0
   55.1216   56.3501   14.3101 C   0  0  1  0  0  0  0  0  0  0  0  0
   53.9319   55.5708   14.5022 O   0  0  0  0  0  0  0  0  0  0  0  0
   54.8697   57.8059   13.9914 C   0  0  1  0  0  0  0  0  0  0  0  0
   53.5182   61.4056   21.4216 O   0  0  0  0  0  0  0  0  0  0  0  0
   55.5383   58.9872    9.1514 N   0  0  0  0  0  0  0  0  0  0  0  0
   56.3048   58.3042   10.0032 C   0  0  0  0  0  0  0  0  0  0  0  0
   55.9157   58.0523   11.2524 N   0  0  0  0  0  0  0  0  0  0  0  0
   54.7891   58.5839   11.7452 C   0  0  0  0  0  0  0  0  0  0  0  0
   53.9710   59.3798   10.8814 C   0  0  0  0  0  0  0  0  0  0  0  0
   54.4011   59.5518    9.5370 C   0  0  0  0  0  0  0  0  0  0  0  0
   53.6687   60.2821    8.6437 N   0  0  0  0  0  0  0  0  0  0  0  0
   52.9149   59.7951   11.6077 N   0  0  0  0  0  0  0  0  0  0  0  0
   53.0173   59.3305   12.8334 C   0  0  0  0  0  0  0  0  0  0  0  0
   54.1441   58.5604   12.9858 N   0  0  0  0  0  0  0  0  0  0  0  0
  2  1  1  1  0  0  0
  2  3  1  0  0  0  0
  2  5  1  0  0  0  0
  3  4  1  0  0  0  0
  3 17  1  0  0  0  0
  5  6  1  0  0  0  0
  7  6  1  1  0  0  0
  7  8  1  0  0  0  0
  7  9  1  0  0  0  0
 10  9  1  1  0  0  0
 10 11  1  0  0  0  0
 10 12  1  0  0  0  0
 11 16  1  0  0  0  0
 12 13  1  1  0  0  0
 12 14  1  0  0  0  0
 14 15  1  1  0  0  0
 14 16  1  0  0  0  0
 16 27  1  6  0  0  0
 18 19  2  0  0  0  0
 18 23  1  0  0  0  0
 19 20  1  0  0  0  0
 20 21  2  0  0  0  0
 21 22  1  0  0  0  0
 21 27  1  0  0  0  0
 22 23  2  0  0  0  0
 22 25  1  0  0  0  0
 23 24  1  0  0  0  0
 25 26  2  0  0  0  0
 26 27  1  0  0  0  0
M  END
>  <CHROM.1>
0.76560401,58.48117068,-173.14948504,66.38281294,-161.85741704,-171.85151726
175.48365005,55.03891696,58.84216343,15.73269887,1.32257972,-1.20988582,1.18494905

>  <Name>
ligand

>  <RI>
0

>  <Rbt.Current_Directory>
/home/itssahil/PROJECTS/Mol_Feturizer/New_Systems/rnas/3IQN

>  <Rbt.Executable>
rbdock ($Id: //depot/dev/client3/rdock/2013.1/src/exe/rbdock.cxx#4 $)

>  <Rbt.Library>
libRbt.so (2013.1, Build901 2013/11/27)

>  <Rbt.Parameter_File>
/export/apps/rDock/src/rDock_2013.1_src/data/scripts/dock_solv.prm

>  <Rbt.Receptor>
prm/blind_docking_100.prm

>  <SCORE>
-7.11232

>  <SCORE.INTER>
-5.42173

>  <SCORE.INTER.CONST>
1

>  <SCORE.INTER.POLAR>
0

>  <SCORE.INTER.ROT>
7

>  <SCORE.INTER.SOLV>
9.51289

>  <SCORE.INTER.VDW>
-15.0521

>  <SCORE.INTER.norm>
-0.200805

>  <SCORE.INTRA>
-1.69165

>  <SCORE.INTRA.DIHEDRAL>
-4.46799

>  <SCORE.INTRA.DIHEDRAL.0>
10.0365

>  <SCORE.INTRA.POLAR>
0

>  <SCORE.INTRA.POLAR.0>
0

>  <SCORE.INTRA.REPUL>
0

>  <SCORE.INTRA.REPUL.0>
0

>  <SCORE.INTRA.SOLV>
-0.00407349

>  <SCORE.INTRA.SOLV.lig_0>
-48.6728

>  <SCORE.INTRA.VDW>
0.544384

>  <SCORE.INTRA.VDW.0>
-1.10662

>  <SCORE.INTRA.norm>
-0.0626535

>  <SCORE.RESTR>
0.00105571

>  <SCORE.RESTR.CAVITY>
0.00105571

>  <SCORE.RESTR.norm>
3.91004e-05

>  <SCORE.SYSTEM>
0

>  <SCORE.SYSTEM.CONST>
0

>  <SCORE.SYSTEM.DIHEDRAL>
0

>  <SCORE.SYSTEM.SOLV>
0

>  <SCORE.SYSTEM.norm>
0

>  <SCORE.heavy>
27

>  <SCORE.norm>
-0.263419

>  <RMSD>
18.619

$$$$
ligand
 OpenBabel11021811483D
libRbt.so/2013.1/901 2013/11/27
 27 29  0  0  0  0  0  0  0  0999 V2000
   55.5674   60.4944   17.6577 N   0  0  0  0  0  0  0  0  0  0  0  0
   55.5661   59.0948   18.1030 C   0  0  2  0  0  0  0  0  0  0  0  0
   54.1689   58.7239   18.4999 C   0  0  0  0  0  0  0  0  0  0  0  0
   53.3729   59.5950   18.8126 O   0  0  0  0  0  0  0  0  0  0  0  0
   56.5034   58.9172   19.3069 C   0  0  0  0  0  0  0  0  0  0  0  0
   57.9445   59.1106   18.8443 C   0  0  0  0  0  0  0  0  0  0  0  0
   58.6150   57.6783   17.9408 S   0  0  2  0  0  0  0  0  0  0  0  0
   60.4205   57.8775   18.0439 C   0  0  0  0  0  0  0  0  0  0  0  0
   58.4209   57.8988   16.1354 C   0  0  0  0  0  0  0  0  0  0  0  0
   56.9608   57.5929   15.9081 C   0  0  1  0  0  0  0  0  0  0  0  0
   56.7848   57.8024   14.5458 O   0  0  0  0  0  0  0  0  0  0  0  0
   56.3958   56.1809   16.0696 C   0  0  1  0  0  0  0  0  0  0  0  0
   55.9375   55.9309   17.3673 O   0  0  0  0  0  0  0  0  0  0  0  0
   55.2314   56.2634   14.9705 C   0  0  1  0  0  0  0  0  0  0  0  0
   54.3085   57.3459   15.1601 O   0  0  0  0  0  0  0  0  0  0  0  0
   56.3089   56.5339   13.9457 C   0  0  1  0  0  0  0  0  0  0  0  0
   53.8285   57.5513   18.4935 O   0  0  0  0  0  0  0  0  0  0  0  0
   54.0840   59.9403   10.9936 N   0  0  0  0  0  0  0  0  0  0  0  0
   53.9213   59.6585   12.2873 C   0  0  0  0  0  0  0  0  0  0  0  0
   54.6594   58.7366   12.9043 N   0  0  0  0  0  0  0  0  0  0  0  0
   55.5126   57.9634   12.2195 C   0  0  0  0  0  0  0  0  0  0  0  0
   55.6670   58.1894   10.8146 C   0  0  0  0  0  0  0  0  0  0  0  0
   54.9068   59.2372   10.2260 C   0  0  0  0  0  0  0  0  0  0  0  0
   55.0094   59.5294    8.8949 N   0  0  0  0  0  0  0  0  0  0  0  0
   56.5649   57.2911   10.3650 N   0  0  0  0  0  0  0  0  0  0  0  0
   56.9667   56.5368   11.3643 C   0  0  0  0  0  0  0  0  0  0  0  0
   56.3688   56.9064   12.5440 N   0  0  0  0  0  0  0  0  0  0  0  0
  2  1  1  1  0  0  0
  2  3  1  0  0  0  0
  2  5  1  0  0  0  0
  3  4  1  0  0  0  0
  3 17  1  0  0  0  0
  5  6  1  0  0  0  0
  7  6  1  1  0  0  0
  7  8  1  0  0  0  0
  7  9  1  0  0  0  0
 10  9  1  6  0  0  0
 10 11  1  0  0  0  0
 10 12  1  0  0  0  0
 11 16  1  0  0  0  0
 12 13  1  1  0  0  0
 12 14  1  0  0  0  0
 14 15  1  1  0  0  0
 14 16  1  0  0  0  0
 16 27  1  6  0  0  0
 18 19  2  0  0  0  0
 18 23  1  0  0  0  0
 19 20  1  0  0  0  0
 20 21  2  0  0  0  0
 21 22  1  0  0  0  0
 21 27  1  0  0  0  0
 22 23  2  0  0  0  0
 22 25  1  0  0  0  0
 23 24  1  0  0  0  0
 25 26  2  0  0  0  0
 26 27  1  0  0  0  0
M  END
>  <CHROM.1>
-22.40707255,-68.43937663,-76.51305579,-159.93357430,-77.12960414,177.94790165
-62.55159045,56.05514899,58.06761840,15.16422175,1.36602071,-0.39548918,1.51163098

>  <Name>
ligand

>  <RI>
0

>  <Rbt.Current_Directory>
/home/itssahil/PROJECTS/Mol_Feturizer/New_Systems/rnas/3IQN

>  <Rbt.Executable>
rbdock ($Id: //depot/dev/client3/rdock/2013.1/src/exe/rbdock.cxx#4 $)

>  <Rbt.Library>
libRbt.so (2013.1, Build901 2013/11/27)

>  <Rbt.Parameter_File>
/export/apps/rDock/src/rDock_2013.1_src/data/scripts/dock_solv.prm

>  <Rbt.Receptor>
prm/blind_docking_100.prm

>  <SCORE>
-14.0257

>  <SCORE.INTER>
-10.4238

>  <SCORE.INTER.CONST>
1

>  <SCORE.INTER.POLAR>
0

>  <SCORE.INTER.ROT>
7

>  <SCORE.INTER.SOLV>
16.1705

>  <SCORE.INTER.VDW>
-20.606

>  <SCORE.INTER.norm>
-0.386066

>  <SCORE.INTRA>
-3.60189

>  <SCORE.INTRA.DIHEDRAL>
-3.36264

>  <SCORE.INTRA.DIHEDRAL.0>
10.0365

>  <SCORE.INTRA.POLAR>
0

>  <SCORE.INTRA.POLAR.0>
0

>  <SCORE.INTRA.REPUL>
0

>  <SCORE.INTRA.REPUL.0>
0

>  <SCORE.INTRA.SOLV>
2.29831

>  <SCORE.INTRA.SOLV.lig_0>
-48.6728

>  <SCORE.INTRA.VDW>
-3.06973

>  <SCORE.INTRA.VDW.0>
-1.10662

>  <SCORE.INTRA.norm>
-0.133403

>  <SCORE.RESTR>
0

>  <SCORE.RESTR.CAVITY>
0

>  <SCORE.RESTR.norm>
0

>  <SCORE.SYSTEM>
0

>  <SCORE.SYSTEM.CONST>
0

>  <SCORE.SYSTEM.DIHEDRAL>
0

>  <SCORE.SYSTEM.SOLV>
0

>  <SCORE.SYSTEM.norm>
0

>  <SCORE.heavy>
27

>  <SCORE.norm>
-0.51947

>  <RMSD>
18.937

$$$$
ligand
 OpenBabel11021811483D
libRbt.so/2013.1/901 2013/11/27
 27 29  0  0  0  0  0  0  0  0999 V2000
   48.3856   36.5572   21.1812 N   0  0  0  0  0  0  0  0  0  0  0  0
   49.8521   36.5514   21.2638 C   0  0  2  0  0  0  0  0  0  0  0  0
   50.2648   35.5634   22.3130 C   0  0  0  0  0  0  0  0  0  0  0  0
   51.2999   34.9301   22.1800 O   0  0  0  0  0  0  0  0  0  0  0  0
   50.3704   37.9465   21.6438 C   0  0  0  0  0  0  0  0  0  0  0  0
   51.8722   38.0047   21.3802 C   0  0  0  0  0  0  0  0  0  0  0  0
   52.5787   39.6724   21.5734 S   0  0  2  0  0  0  0  0  0  0  0  0
   54.3412   39.3843   21.9215 C   0  0  0  0  0  0  0  0  0  0  0  0
   52.1003   40.3994   23.1822 C   0  0  0  0  0  0  0  0  0  0  0  0
   51.4767   41.7166   22.7908 C   0  0  1  0  0  0  0  0  0  0  0  0
   52.5599   42.5809   22.6899 O   0  0  0  0  0  0  0  0  0  0  0  0
   50.8031   41.9205   21.4329 C   0  0  1  0  0  0  0  0  0  0  0  0
   49.4363   41.6241   21.4615 O   0  0  0  0  0  0  0  0  0  0  0  0
   51.1294   43.4780   21.2370 C   0  0  1  0  0  0  0  0  0  0  0  0
   50.6774   44.3209   22.3069 O   0  0  0  0  0  0  0  0  0  0  0  0
   52.5941   43.1118   21.3068 C   0  0  1  0  0  0  0  0  0  0  0  0
   49.5702   35.4078   23.3051 O   0  0  0  0  0  0  0  0  0  0  0  0
   55.0046   46.4828   18.4617 N   0  0  0  0  0  0  0  0  0  0  0  0
   53.8357   45.8634   18.2899 C   0  0  0  0  0  0  0  0  0  0  0  0
   53.3414   45.0287   19.2033 N   0  0  0  0  0  0  0  0  0  0  0  0
   54.0590   44.6788   20.2792 C   0  0  0  0  0  0  0  0  0  0  0  0
   55.3487   45.2710   20.4659 C   0  0  0  0  0  0  0  0  0  0  0  0
   55.7911   46.2115   19.4953 C   0  0  0  0  0  0  0  0  0  0  0  0
   57.0018   46.8351   19.6092 N   0  0  0  0  0  0  0  0  0  0  0  0
   55.8599   44.7574   21.6017 N   0  0  0  0  0  0  0  0  0  0  0  0
   55.0039   43.9046   22.1200 C   0  0  0  0  0  0  0  0  0  0  0  0
   53.8613   43.8175   21.3630 N   0  0  0  0  0  0  0  0  0  0  0  0
  2  1  1  1  0  0  0
  2  3  1  0  0  0  0
  2  5  1  0  0  0  0
  3  4  1  0  0  0  0
  3 17  1  0  0  0  0
  5  6  1  0  0  0  0
  7  6  1  1  0  0  0
  7  8  1  0  0  0  0
  7  9  1  0  0  0  0
 10  9  1  6  0  0  0
 10 11  1  0  0  0  0
 10 12  1  0  0  0  0
 11 16  1  0  0  0  0
 12 13  1  1  0  0  0
 12 14  1  0  0  0  0
 14 15  1  1  0  0  0
 14 16  1  0  0  0  0
 16 27  1  1  0  0  0
 18 19  2  0  0  0  0
 18 23  1  0  0  0  0
 19 20  1  0  0  0  0
 20 21  2  0  0  0  0
 21 22  1  0  0  0  0
 21 27  1  0  0  0  0
 22 23  2  0  0  0  0
 22 25  1  0  0  0  0
 23 24  1  0  0  0  0
 25 26  2  0  0  0  0
 26 27  1  0  0  0  0
M  END
>  <CHROM.1>
146.37678740,-165.85412269,172.16424508,156.50982318,-125.66262235,-85.45834090
-167.10646574,52.46485296,41.50144229,21.32569757,2.03194060,-0.08445634
2.95648725

>  <Name>
ligand

>  <RI>
0

>  <Rbt.Current_Directory>
/home/itssahil/PROJECTS/Mol_Feturizer/New_Systems/rnas/3IQN

>  <Rbt.Executable>
rbdock ($Id: //depot/dev/client3/rdock/2013.1/src/exe/rbdock.cxx#4 $)

>  <Rbt.Library>
libRbt.so (2013.1, Build901 2013/11/27)

>  <Rbt.Parameter_File>
/export/apps/rDock/src/rDock_2013.1_src/data/scripts/dock_solv.prm

>  <Rbt.Receptor>
prm/blind_docking_80.prm

>  <SCORE>
-15.0078

>  <SCORE.INTER>
-14.4664

>  <SCORE.INTER.CONST>
1

>  <SCORE.INTER.POLAR>
0

>  <SCORE.INTER.ROT>
7

>  <SCORE.INTER.SOLV>
19.2436

>  <SCORE.INTER.VDW>
-24.3255

>  <SCORE.INTER.norm>
-0.535794

>  <SCORE.INTRA>
-0.557114

>  <SCORE.INTRA.DIHEDRAL>
1.14628

>  <SCORE.INTRA.DIHEDRAL.0>
10.0365

>  <SCORE.INTRA.POLAR>
0

>  <SCORE.INTRA.POLAR.0>
0

>  <SCORE.INTRA.REPUL>
0

>  <SCORE.INTRA.REPUL.0>
0

>  <SCORE.INTRA.SOLV>
-0.717501

>  <SCORE.INTRA.SOLV.lig_0>
-48.6728

>  <SCORE.INTRA.VDW>
-0.771506

>  <SCORE.INTRA.VDW.0>
-1.10662

>  <SCORE.INTRA.norm>
-0.0206339

>  <SCORE.RESTR>
0.01573

>  <SCORE.RESTR.CAVITY>
0.01573

>  <SCORE.RESTR.norm>
0.000582592

>  <SCORE.SYSTEM>
0

>  <SCORE.SYSTEM.CONST>
0

>  <SCORE.SYSTEM.DIHEDRAL>
0

>  <SCORE.SYSTEM.SOLV>
0

>  <SCORE.SYSTEM.norm>
0

>  <SCORE.heavy>
27

>  <SCORE.norm>
-0.555845

>  <RMSD>
18.937

$$$$
ligand
 OpenBabel11021811483D
libRbt.so/2013.1/901 2013/11/27
 27 29  0  0  0  0  0  0  0  0999 V2000
   50.9179   53.3565   19.5405 N   0  0  0  0  0  0  0  0  0  0  0  0
   50.9047   54.1178   18.2845 C   0  0  2  0  0  0  0  0  0  0  0  0
   50.7364   53.1553   17.1475 C   0  0  0  0  0  0  0  0  0  0  0  0
   50.3020   53.5478   16.0764 O   0  0  0  0  0  0  0  0  0  0  0  0
   52.2237   54.8860   18.1126 C   0  0  0  0  0  0  0  0  0  0  0  0
   52.1478   55.7194   16.8367 C   0  0  0  0  0  0  0  0  0  0  0  0
   53.7801   56.1456   16.1501 S   0  0  2  0  0  0  0  0  0  0  0  0
   54.3090   57.6038   17.1010 C   0  0  0  0  0  0  0  0  0  0  0  0
   53.6096   56.9387   14.5107 C   0  0  0  0  0  0  0  0  0  0  0  0
   54.9152   56.6051   13.8316 C   0  0  1  0  0  0  0  0  0  0  0  0
   54.7377   57.0555   12.5291 O   0  0  0  0  0  0  0  0  0  0  0  0
   56.2247   57.2975   14.2122 C   0  0  1  0  0  0  0  0  0  0  0  0
   56.9194   56.6174   15.2181 O   0  0  0  0  0  0  0  0  0  0  0  0
   56.9422   57.2538   12.7791 C   0  0  1  0  0  0  0  0  0  0  0  0
   57.0561   55.9416   12.2094 O   0  0  0  0  0  0  0  0  0  0  0  0
   55.7838   58.0666   12.2483 C   0  0  1  0  0  0  0  0  0  0  0  0
   51.0500   51.9844   17.2938 O   0  0  0  0  0  0  0  0  0  0  0  0
   51.5412   60.0322   10.4029 N   0  0  0  0  0  0  0  0  0  0  0  0
   51.8515   59.6047   11.6278 C   0  0  0  0  0  0  0  0  0  0  0  0
   53.0702   59.1583   11.9290 N   0  0  0  0  0  0  0  0  0  0  0  0
   54.0026   59.0022   10.9797 C   0  0  0  0  0  0  0  0  0  0  0  0
   53.6864   59.3869    9.6378 C   0  0  0  0  0  0  0  0  0  0  0  0
   52.3939   59.9263    9.3917 C   0  0  0  0  0  0  0  0  0  0  0  0
   52.0194   60.3343    8.1423 N   0  0  0  0  0  0  0  0  0  0  0  0
   54.7738   59.1292    8.8851 N   0  0  0  0  0  0  0  0  0  0  0  0
   55.7193   58.6189    9.6430 C   0  0  0  0  0  0  0  0  0  0  0  0
   55.3172   58.5260   10.9528 N   0  0  0  0  0  0  0  0  0  0  0  0
  2  1  1  1  0  0  0
  2  3  1  0  0  0  0
  2  5  1  0  0  0  0
  3  4  1  0  0  0  0
  3 17  1  0  0  0  0
  5  6  1  0  0  0  0
  7  6  1  1  0  0  0
  7  8  1  0  0  0  0
  7  9  1  0  0  0  0
 10  9  1  1  0  0  0
 10 11  1  0  0  0  0
 10 12  1  0  0  0  0
 11 16  1  0  0  0  0
 12 13  1  1  0  0  0
 12 14  1  0  0  0  0
 14 15  1  6  0  0  0
 14 16  1  0  0  0  0
 16 27  1  6  0  0  0
 18 19  2  0  0  0  0
 18 23  1  0  0  0  0
 19 20  1  0  0  0  0
 20 21  2  0  0  0  0
 21 22  1  0  0  0  0
 21 27  1  0  0  0  0
 22 23  2  0  0  0  0
 22 25  1  0  0  0  0
 23 24  1  0  0  0  0
 25 26  2  0  0  0  0
 26 27  1  0  0  0  0
M  END
>  <CHROM.1>
158.00352527,-177.14898253,-157.15825403,-82.64082677,-153.22319535,172.85065044
56.80559521,53.61038508,56.91275239,13.75888644,1.82367702,0.03784006,2.15716101

>  <Name>
ligand

>  <RI>
0

>  <Rbt.Current_Directory>
/home/itssahil/PROJECTS/Mol_Feturizer/New_Systems/rnas/3IQN

>  <Rbt.Executable>
rbdock ($Id: //depot/dev/client3/rdock/2013.1/src/exe/rbdock.cxx#4 $)

>  <Rbt.Library>
libRbt.so (2013.1, Build901 2013/11/27)

>  <Rbt.Parameter_File>
/export/apps/rDock/src/rDock_2013.1_src/data/scripts/dock_solv.prm

>  <Rbt.Receptor>
prm/blind_docking_100.prm

>  <SCORE>
-12.0926

>  <SCORE.INTER>
-10.6132

>  <SCORE.INTER.CONST>
1

>  <SCORE.INTER.POLAR>
0

>  <SCORE.INTER.ROT>
7

>  <SCORE.INTER.SOLV>
12.7285

>  <SCORE.INTER.VDW>
-19.585

>  <SCORE.INTER.norm>
-0.393081

>  <SCORE.INTRA>
-1.93125

>  <SCORE.INTRA.DIHEDRAL>
-1.84519

>  <SCORE.INTRA.DIHEDRAL.0>
10.0365

>  <SCORE.INTRA.POLAR>
0

>  <SCORE.INTRA.POLAR.0>
0

>  <SCORE.INTRA.REPUL>
0

>  <SCORE.INTRA.REPUL.0>
0

>  <SCORE.INTRA.SOLV>
-0.848987

>  <SCORE.INTRA.SOLV.lig_0>
-48.6728

>  <SCORE.INTRA.VDW>
-0.584161

>  <SCORE.INTRA.VDW.0>
-1.10662

>  <SCORE.INTRA.norm>
-0.0715277

>  <SCORE.RESTR>
0.451878

>  <SCORE.RESTR.CAVITY>
0.451878

>  <SCORE.RESTR.norm>
0.0167362

>  <SCORE.SYSTEM>
0

>  <SCORE.SYSTEM.CONST>
0

>  <SCORE.SYSTEM.DIHEDRAL>
0

>  <SCORE.SYSTEM.SOLV>
0

>  <SCORE.SYSTEM.norm>
0

>  <SCORE.heavy>
27

>  <SCORE.norm>
-0.447872

>  <RMSD>
19.425

$$$$
ligand
 OpenBabel11021811483D
libRbt.so/2013.1/901 2013/11/27
 27 29  0  0  0  0  0  0  0  0999 V2000
   50.2588   42.2460   20.6003 N   0  0  0  0  0  0  0  0  0  0  0  0
   51.6216   42.0050   21.0920 C   0  0  2  0  0  0  0  0  0  0  0  0
   51.6723   40.6351   21.6988 C   0  0  0  0  0  0  0  0  0  0  0  0
   52.3526   39.7640   21.1805 O   0  0  0  0  0  0  0  0  0  0  0  0
   51.9976   43.0486   22.1546 C   0  0  0  0  0  0  0  0  0  0  0  0
   52.7511   44.1914   21.4803 C   0  0  0  0  0  0  0  0  0  0  0  0
   54.4224   43.7294   20.9228 S   0  0  2  0  0  0  0  0  0  0  0  0
   55.1358   42.8164   22.3256 C   0  0  0  0  0  0  0  0  0  0  0  0
   55.5396   45.1775   20.9460 C   0  0  0  0  0  0  0  0  0  0  0  0
   55.1089   45.9617   19.7309 C   0  0  1  0  0  0  0  0  0  0  0  0
   56.2967   46.4829   19.2327 O   0  0  0  0  0  0  0  0  0  0  0  0
   54.5371   45.2779   18.4881 C   0  0  1  0  0  0  0  0  0  0  0  0
   53.1441   45.1584   18.5337 O   0  0  0  0  0  0  0  0  0  0  0  0
   55.0679   46.3110   17.3827 C   0  0  1  0  0  0  0  0  0  0  0  0
   54.6720   47.6730   17.6011 O   0  0  0  0  0  0  0  0  0  0  0  0
   56.4688   45.9858   17.8474 C   0  0  1  0  0  0  0  0  0  0  0  0
   51.0440   40.4011   22.7192 O   0  0  0  0  0  0  0  0  0  0  0  0
   59.5941   46.1402   13.9133 N   0  0  0  0  0  0  0  0  0  0  0  0
   58.3726   45.6208   14.0452 C   0  0  0  0  0  0  0  0  0  0  0  0
   57.6793   45.7330   15.1775 N   0  0  0  0  0  0  0  0  0  0  0  0
   58.2321   46.2652   16.2757 C   0  0  0  0  0  0  0  0  0  0  0  0
   59.5674   46.7741   16.1939 C   0  0  0  0  0  0  0  0  0  0  0  0
   60.2300   46.6933   14.9383 C   0  0  0  0  0  0  0  0  0  0  0  0
   61.4990   47.1722   14.7714 N   0  0  0  0  0  0  0  0  0  0  0  0
   59.8880   47.2436   17.4154 N   0  0  0  0  0  0  0  0  0  0  0  0
   58.8745   47.0629   18.2332 C   0  0  0  0  0  0  0  0  0  0  0  0
   57.8107   46.4769   17.5923 N   0  0  0  0  0  0  0  0  0  0  0  0
  2  1  1  1  0  0  0
  2  3  1  0  0  0  0
  2  5  1  0  0  0  0
  3  4  1  0  0  0  0
  3 17  1  0  0  0  0
  5  6  1  0  0  0  0
  7  6  1  1  0  0  0
  7  8  1  0  0  0  0
  7  9  1  0  0  0  0
 10  9  1  1  0  0  0
 10 11  1  0  0  0  0
 10 12  1  0  0  0  0
 11 16  1  0  0  0  0
 12 13  1  1  0  0  0
 12 14  1  0  0  0  0
 14 15  1  1  0  0  0
 14 16  1  0  0  0  0
 16 27  1  6  0  0  0
 18 19  2  0  0  0  0
 18 23  1  0  0  0  0
 19 20  1  0  0  0  0
 20 21  2  0  0  0  0
 21 22  1  0  0  0  0
 21 27  1  0  0  0  0
 22 23  2  0  0  0  0
 22 25  1  0  0  0  0
 23 24  1  0  0  0  0
 25 26  2  0  0  0  0
 26 27  1  0  0  0  0
M  END
>  <CHROM.1>
113.97189968,-94.83652936,-70.57872407,-45.44289515,-75.49617820,-143.50967470
-174.42921837,55.53000996,44.78427630,18.80851524,2.95058021,0.80054329,0.94180638

>  <Name>
ligand

>  <RI>
0

>  <Rbt.Current_Directory>
/home/itssahil/PROJECTS/Mol_Feturizer/New_Systems/rnas/3IQN

>  <Rbt.Executable>
rbdock ($Id: //depot/dev/client3/rdock/2013.1/src/exe/rbdock.cxx#4 $)

>  <Rbt.Library>
libRbt.so (2013.1, Build901 2013/11/27)

>  <Rbt.Parameter_File>
/export/apps/rDock/src/rDock_2013.1_src/data/scripts/dock_solv.prm

>  <Rbt.Receptor>
prm/blind_docking_100.prm

>  <SCORE>
11.996

>  <SCORE.INTER>
10.5395

>  <SCORE.INTER.CONST>
1

>  <SCORE.INTER.POLAR>
0

>  <SCORE.INTER.ROT>
7

>  <SCORE.INTER.SOLV>
18.2129

>  <SCORE.INTER.VDW>
-7.31132

>  <SCORE.INTER.norm>
0.390351

>  <SCORE.INTRA>
0.864049

>  <SCORE.INTRA.DIHEDRAL>
2.086

>  <SCORE.INTRA.DIHEDRAL.0>
10.0365

>  <SCORE.INTRA.POLAR>
0

>  <SCORE.INTRA.POLAR.0>
0

>  <SCORE.INTRA.REPUL>
0

>  <SCORE.INTRA.REPUL.0>
0

>  <SCORE.INTRA.SOLV>
-0.135843

>  <SCORE.INTRA.SOLV.lig_0>
-48.6728

>  <SCORE.INTRA.VDW>
-0.111031

>  <SCORE.INTRA.VDW.0>
-1.10662

>  <SCORE.INTRA.norm>
0.0320018

>  <SCORE.RESTR>
0.592512

>  <SCORE.RESTR.CAVITY>
0.592512

>  <SCORE.RESTR.norm>
0.0219449

>  <SCORE.SYSTEM>
0

>  <SCORE.SYSTEM.CONST>
0

>  <SCORE.SYSTEM.DIHEDRAL>
0

>  <SCORE.SYSTEM.SOLV>
0

>  <SCORE.SYSTEM.norm>
0

>  <SCORE.heavy>
27

>  <SCORE.norm>
0.444297

>  <RMSD>
19.639

$$$$
ligand
 OpenBabel11021811483D
libRbt.so/2013.1/901 2013/11/27
 27 29  0  0  0  0  0  0  0  0999 V2000
   62.6821   45.1186   12.7014 N   0  0  0  0  0  0  0  0  0  0  0  0
   61.4768   44.3317   12.4094 C   0  0  2  0  0  0  0  0  0  0  0  0
   61.4749   43.9898   10.9497 C   0  0  0  0  0  0  0  0  0  0  0  0
   61.6105   42.8295   10.5956 O   0  0  0  0  0  0  0  0  0  0  0  0
   60.2161   45.1420   12.7460 C   0  0  0  0  0  0  0  0  0  0  0  0
   60.1145   45.2919   14.2611 C   0  0  0  0  0  0  0  0  0  0  0  0
   58.6095   46.1616   14.8049 S   0  0  2  0  0  0  0  0  0  0  0  0
   59.0194   47.9271   14.6460 C   0  0  0  0  0  0  0  0  0  0  0  0
   58.4360   46.0867   16.6243 C   0  0  0  0  0  0  0  0  0  0  0  0
   57.0016   46.4978   16.8487 C   0  0  1  0  0  0  0  0  0  0  0  0
   56.7014   45.9868   18.1054 O   0  0  0  0  0  0  0  0  0  0  0  0
   56.5972   47.9632   17.0165 C   0  0  1  0  0  0  0  0  0  0  0  0
   56.2673   48.5720   15.8011 O   0  0  0  0  0  0  0  0  0  0  0  0
   55.3497   47.7543   18.0019 C   0  0  1  0  0  0  0  0  0  0  0  0
   54.3387   46.8661   17.5035 O   0  0  0  0  0  0  0  0  0  0  0  0
   56.3125   47.1191   18.9786 C   0  0  1  0  0  0  0  0  0  0  0  0
   61.3218   44.8733   10.1211 O   0  0  0  0  0  0  0  0  0  0  0  0
   55.6287   48.3751   23.7977 N   0  0  0  0  0  0  0  0  0  0  0  0
   55.7287   49.1259   22.6996 C   0  0  0  0  0  0  0  0  0  0  0  0
   55.8584   48.5863   21.4883 N   0  0  0  0  0  0  0  0  0  0  0  0
   56.0203   47.2653   21.3346 C   0  0  0  0  0  0  0  0  0  0  0  0
   55.9863   46.4302   22.4965 C   0  0  0  0  0  0  0  0  0  0  0  0
   55.7705   47.0565   23.7548 C   0  0  0  0  0  0  0  0  0  0  0  0
   55.7067   46.3290   24.9099 N   0  0  0  0  0  0  0  0  0  0  0  0
   56.1754   45.1631   22.0794 N   0  0  0  0  0  0  0  0  0  0  0  0
   56.3265   45.1506   20.7733 C   0  0  0  0  0  0  0  0  0  0  0  0
   56.2267   46.4140   20.2444 N   0  0  0  0  0  0  0  0  0  0  0  0
  2  1  1  6  0  0  0
  2  3  1  0  0  0  0
  2  5  1  0  0  0  0
  3  4  1  0  0  0  0
  3 17  1  0  0  0  0
  5  6  1  0  0  0  0
  7  6  1  1  0  0  0
  7  8  1  0  0  0  0
  7  9  1  0  0  0  0
 10  9  1  1  0  0  0
 10 11  1  0  0  0  0
 10 12  1  0  0  0  0
 11 16  1  0  0  0  0
 12 13  1  6  0  0  0
 12 14  1  0  0  0  0
 14 15  1  6  0  0  0
 14 16  1  0  0  0  0
 16 27  1  1  0  0  0
 18 19  2  0  0  0  0
 18 23  1  0  0  0  0
 19 20  1  0  0  0  0
 20 21  2  0  0  0  0
 21 22  1  0  0  0  0
 21 27  1  0  0  0  0
 22 23  2  0  0  0  0
 22 25  1  0  0  0  0
 23 24  1  0  0  0  0
 25 26  2  0  0  0  0
 26 27  1  0  0  0  0
M  END
>  <CHROM.1>
112.73994975,-69.69132805,-176.92852224,-83.11227104,-165.02864213,158.67719054
172.90756791,57.75039345,46.35674100,17.32727987,-0.88540955,-0.79269940
1.86527726

>  <Name>
ligand

>  <RI>
0

>  <Rbt.Current_Directory>
/home/itssahil/PROJECTS/Mol_Feturizer/New_Systems/rnas/3IQN

>  <Rbt.Executable>
rbdock ($Id: //depot/dev/client3/rdock/2013.1/src/exe/rbdock.cxx#4 $)

>  <Rbt.Library>
libRbt.so (2013.1, Build901 2013/11/27)

>  <Rbt.Parameter_File>
/export/apps/rDock/src/rDock_2013.1_src/data/scripts/dock_solv.prm

>  <Rbt.Receptor>
prm/blind_docking_80.prm

>  <SCORE>
-11.0332

>  <SCORE.INTER>
-8.76651

>  <SCORE.INTER.CONST>
1

>  <SCORE.INTER.POLAR>
0

>  <SCORE.INTER.ROT>
7

>  <SCORE.INTER.SOLV>
29.7417

>  <SCORE.INTER.VDW>
-24.0249

>  <SCORE.INTER.norm>
-0.324686

>  <SCORE.INTRA>
-2.66555

>  <SCORE.INTRA.DIHEDRAL>
-3.28357

>  <SCORE.INTRA.DIHEDRAL.0>
10.0365

>  <SCORE.INTRA.POLAR>
0

>  <SCORE.INTRA.POLAR.0>
0

>  <SCORE.INTRA.REPUL>
0

>  <SCORE.INTRA.REPUL.0>
0

>  <SCORE.INTRA.SOLV>
-0.304112

>  <SCORE.INTRA.SOLV.lig_0>
-48.6728

>  <SCORE.INTRA.VDW>
-0.871707

>  <SCORE.INTRA.VDW.0>
-1.10662

>  <SCORE.INTRA.norm>
-0.0987241

>  <SCORE.RESTR>
0.398818

>  <SCORE.RESTR.CAVITY>
0.398818

>  <SCORE.RESTR.norm>
0.014771

>  <SCORE.SYSTEM>
0

>  <SCORE.SYSTEM.CONST>
0

>  <SCORE.SYSTEM.DIHEDRAL>
0

>  <SCORE.SYSTEM.SOLV>
0

>  <SCORE.SYSTEM.norm>
0

>  <SCORE.heavy>
27

>  <SCORE.norm>
-0.408639

>  <RMSD>
19.934

$$$$
ligand
 OpenBabel11021811483D
libRbt.so/2013.1/901 2013/11/27
 27 29  0  0  0  0  0  0  0  0999 V2000
   50.3864   42.8528   20.6519 N   0  0  0  0  0  0  0  0  0  0  0  0
   51.0229   42.7817   21.9737 C   0  0  2  0  0  0  0  0  0  0  0  0
   50.2250   43.6156   22.9305 C   0  0  0  0  0  0  0  0  0  0  0  0
   49.7691   44.6889   22.5694 O   0  0  0  0  0  0  0  0  0  0  0  0
   52.4601   43.3191   21.9034 C   0  0  0  0  0  0  0  0  0  0  0  0
   53.2695   42.7175   23.0485 C   0  0  0  0  0  0  0  0  0  0  0  0
   53.5502   40.9262   22.8759 S   0  0  2  0  0  0  0  0  0  0  0  0
   54.9568   40.7926   21.7296 C   0  0  0  0  0  0  0  0  0  0  0  0
   52.2662   40.1652   21.8186 C   0  0  0  0  0  0  0  0  0  0  0  0
   52.5396   38.6877   21.9577 C   0  0  1  0  0  0  0  0  0  0  0  0
   51.2757   38.1262   22.0911 O   0  0  0  0  0  0  0  0  0  0  0  0
   53.1154   37.8601   20.8076 C   0  0  1  0  0  0  0  0  0  0  0  0
   54.5134   37.8154   20.8253 O   0  0  0  0  0  0  0  0  0  0  0  0
   52.4131   36.4594   21.1476 C   0  0  1  0  0  0  0  0  0  0  0  0
   52.6658   35.9723   22.4736 O   0  0  0  0  0  0  0  0  0  0  0  0
   51.0846   37.1612   20.9829 C   0  0  1  0  0  0  0  0  0  0  0  0
   50.0213   43.2092   24.0637 O   0  0  0  0  0  0  0  0  0  0  0  0
   47.7746   33.8916   19.0797 N   0  0  0  0  0  0  0  0  0  0  0  0
   49.0527   34.1247   18.7772 C   0  0  0  0  0  0  0  0  0  0  0  0
   49.7827   35.0154   19.4473 N   0  0  0  0  0  0  0  0  0  0  0  0
   49.2266   35.8067   20.3743 C   0  0  0  0  0  0  0  0  0  0  0  0
   47.8393   35.6337   20.6811 C   0  0  0  0  0  0  0  0  0  0  0  0
   47.1301   34.6164   19.9852 C   0  0  0  0  0  0  0  0  0  0  0  0
   45.8078   34.3749   20.2321 N   0  0  0  0  0  0  0  0  0  0  0  0
   47.5266   36.5405   21.6273 N   0  0  0  0  0  0  0  0  0  0  0  0
   48.5928   37.2520   21.9204 C   0  0  0  0  0  0  0  0  0  0  0  0
   49.6844   36.8426   21.1947 N   0  0  0  0  0  0  0  0  0  0  0  0
  2  1  1  6  0  0  0
  2  3  1  0  0  0  0
  2  5  1  0  0  0  0
  3  4  1  0  0  0  0
  3 17  1  0  0  0  0
  5  6  1  0  0  0  0
  7  6  1  6  0  0  0
  7  8  1  0  0  0  0
  7  9  1  0  0  0  0
 10  9  1  6  0  0  0
 10 11  1  0  0  0  0
 10 12  1  0  0  0  0
 11 16  1  0  0  0  0
 12 13  1  1  0  0  0
 12 14  1  0  0  0  0
 14 15  1  1  0  0  0
 14 16  1  0  0  0  0
 16 27  1  1  0  0  0
 18 19  2  0  0  0  0
 18 23  1  0  0  0  0
 19 20  1  0  0  0  0
 20 21  2  0  0  0  0
 21 22  1  0  0  0  0
 21 27  1  0  0  0  0
 22 23  2  0  0  0  0
 22 25  1  0  0  0  0
 23 24  1  0  0  0  0
 25 26  2  0  0  0  0
 26 27  1  0  0  0  0
M  END
>  <CHROM.1>
-40.10326281,-156.21186819,68.03069178,81.33273815,-172.04174978,137.47412264
-172.94018115,50.87870011,38.76863693,21.49171082,1.13637616,-0.06885683
0.26853027

>  <Name>
ligand

>  <RI>
0

>  <Rbt.Current_Directory>
/home/itssahil/PROJECTS/Mol_Feturizer/New_Systems/rnas/3IQN

>  <Rbt.Executable>
rbdock ($Id: //depot/dev/client3/rdock/2013.1/src/exe/rbdock.cxx#4 $)

>  <Rbt.Library>
libRbt.so (2013.1, Build901 2013/11/27)

>  <Rbt.Parameter_File>
/export/apps/rDock/src/rDock_2013.1_src/data/scripts/dock_solv.prm

>  <Rbt.Receptor>
prm/blind_docking_100.prm

>  <SCORE>
-9.52675

>  <SCORE.INTER>
-10.8459

>  <SCORE.INTER.CONST>
1

>  <SCORE.INTER.POLAR>
0

>  <SCORE.INTER.ROT>
7

>  <SCORE.INTER.SOLV>
22.8957

>  <SCORE.INTER.VDW>
-23.1291

>  <SCORE.INTER.norm>
-0.4017

>  <SCORE.INTRA>
0.839349

>  <SCORE.INTRA.DIHEDRAL>
1.87414

>  <SCORE.INTRA.DIHEDRAL.0>
10.0365

>  <SCORE.INTRA.POLAR>
0

>  <SCORE.INTRA.POLAR.0>
0

>  <SCORE.INTRA.REPUL>
0

>  <SCORE.INTRA.REPUL.0>
0

>  <SCORE.INTRA.SOLV>
0.277913

>  <SCORE.INTRA.SOLV.lig_0>
-48.6728

>  <SCORE.INTRA.VDW>
-0.236675

>  <SCORE.INTRA.VDW.0>
-1.10662

>  <SCORE.INTRA.norm>
0.031087

>  <SCORE.RESTR>
0.47979

>  <SCORE.RESTR.CAVITY>
0.47979

>  <SCORE.RESTR.norm>
0.01777

>  <SCORE.SYSTEM>
0

>  <SCORE.SYSTEM.CONST>
0

>  <SCORE.SYSTEM.DIHEDRAL>
0

>  <SCORE.SYSTEM.SOLV>
0

>  <SCORE.SYSTEM.norm>
0

>  <SCORE.heavy>
27

>  <SCORE.norm>
-0.352843

>  <RMSD>
21.297

$$$$
ligand
 OpenBabel11021811483D
libRbt.so/2013.1/901 2013/11/27
 27 29  0  0  0  0  0  0  0  0999 V2000
   45.3039   36.2212   18.7798 N   0  0  0  0  0  0  0  0  0  0  0  0
   46.4238   36.7673   18.0020 C   0  0  2  0  0  0  0  0  0  0  0  0
   46.0462   38.1366   17.5227 C   0  0  0  0  0  0  0  0  0  0  0  0
   44.8753   38.4043   17.3045 O   0  0  0  0  0  0  0  0  0  0  0  0
   46.7228   35.8675   16.7935 C   0  0  0  0  0  0  0  0  0  0  0  0
   47.3421   34.5639   17.2889 C   0  0  0  0  0  0  0  0  0  0  0  0
   48.9438   34.7933   18.1251 S   0  0  2  0  0  0  0  0  0  0  0  0
   49.5982   33.1079   18.3290 C   0  0  0  0  0  0  0  0  0  0  0  0
   48.7030   35.2056   19.8909 C   0  0  0  0  0  0  0  0  0  0  0  0
   50.1127   35.2510   20.4272 C   0  0  1  0  0  0  0  0  0  0  0  0
   50.3686   36.6086   20.5764 O   0  0  0  0  0  0  0  0  0  0  0  0
   50.4657   34.7247   21.8191 C   0  0  1  0  0  0  0  0  0  0  0  0
   50.8341   33.3753   21.8056 O   0  0  0  0  0  0  0  0  0  0  0  0
   51.6713   35.7273   22.1538 C   0  0  1  0  0  0  0  0  0  0  0  0
   52.7301   35.7306   21.1851 O   0  0  0  0  0  0  0  0  0  0  0  0
   50.6829   36.8606   22.0024 C   0  0  1  0  0  0  0  0  0  0  0  0
   46.9114   38.9840   17.3676 O   0  0  0  0  0  0  0  0  0  0  0  0
   54.2567   40.3721   21.5954 N   0  0  0  0  0  0  0  0  0  0  0  0
   54.3342   39.0415   21.6474 C   0  0  0  0  0  0  0  0  0  0  0  0
   53.2455   38.2754   21.7044 N   0  0  0  0  0  0  0  0  0  0  0  0
   52.0271   38.8161   21.8387 C   0  0  0  0  0  0  0  0  0  0  0  0
   51.9074   40.2423   21.8548 C   0  0  0  0  0  0  0  0  0  0  0  0
   53.0980   41.0074   21.7156 C   0  0  0  0  0  0  0  0  0  0  0  0
   53.0683   42.3736   21.7032 N   0  0  0  0  0  0  0  0  0  0  0  0
   50.5992   40.5284   22.0030 N   0  0  0  0  0  0  0  0  0  0  0  0
   49.9133   39.4096   22.0839 C   0  0  0  0  0  0  0  0  0  0  0  0
   50.7301   38.3111   21.9742 N   0  0  0  0  0  0  0  0  0  0  0  0
  2  1  1  6  0  0  0
  2  3  1  0  0  0  0
  2  5  1  0  0  0  0
  3  4  1  0  0  0  0
  3 17  1  0  0  0  0
  5  6  1  0  0  0  0
  7  6  1  6  0  0  0
  7  8  1  0  0  0  0
  7  9  1  0  0  0  0
 10  9  1  1  0  0  0
 10 11  1  0  0  0  0
 10 12  1  0  0  0  0
 11 16  1  0  0  0  0
 12 13  1  6  0  0  0
 12 14  1  0  0  0  0
 14 15  1  6  0  0  0
 14 16  1  0  0  0  0
 16 27  1  6  0  0  0
 18 19  2  0  0  0  0
 18 23  1  0  0  0  0
 19 20  1  0  0  0  0
 20 21  2  0  0  0  0
 21 22  1  0  0  0  0
 21 27  1  0  0  0  0
 22 23  2  0  0  0  0
 22 25  1  0  0  0  0
 23 24  1  0  0  0  0
 25 26  2  0  0  0  0
 26 27  1  0  0  0  0
M  END
>  <CHROM.1>
-29.80276753,-70.74195161,-63.07883560,-169.76526452,175.84962457,105.03519474
-96.49720010,49.92490961,37.16545647,20.12327066,2.65270007,0.59044711,-3.09812073

>  <Name>
ligand

>  <RI>
0

>  <Rbt.Current_Directory>
/home/itssahil/PROJECTS/Mol_Feturizer/New_Systems/rnas/3IQN

>  <Rbt.Executable>
rbdock ($Id: //depot/dev/client3/rdock/2013.1/src/exe/rbdock.cxx#4 $)

>  <Rbt.Library>
libRbt.so (2013.1, Build901 2013/11/27)

>  <Rbt.Parameter_File>
/export/apps/rDock/src/rDock_2013.1_src/data/scripts/dock_solv.prm

>  <Rbt.Receptor>
prm/blind_docking_100.prm

>  <SCORE>
-9.78714

>  <SCORE.INTER>
-8.6749

>  <SCORE.INTER.CONST>
1

>  <SCORE.INTER.POLAR>
0

>  <SCORE.INTER.ROT>
7

>  <SCORE.INTER.SOLV>
13.5442

>  <SCORE.INTER.VDW>
-18.5647

>  <SCORE.INTER.norm>
-0.321293

>  <SCORE.INTRA>
-1.29507

>  <SCORE.INTRA.DIHEDRAL>
-1.17598

>  <SCORE.INTRA.DIHEDRAL.0>
10.0365

>  <SCORE.INTRA.POLAR>
0

>  <SCORE.INTRA.POLAR.0>
0

>  <SCORE.INTRA.REPUL>
0

>  <SCORE.INTRA.REPUL.0>
0

>  <SCORE.INTRA.SOLV>
1.02819

>  <SCORE.INTRA.SOLV.lig_0>
-48.6728

>  <SCORE.INTRA.VDW>
-1.22117

>  <SCORE.INTRA.VDW.0>
-1.10662

>  <SCORE.INTRA.norm>
-0.0479656

>  <SCORE.RESTR>
0.18283

>  <SCORE.RESTR.CAVITY>
0.18283

>  <SCORE.RESTR.norm>
0.00677147

>  <SCORE.SYSTEM>
0

>  <SCORE.SYSTEM.CONST>
0

>  <SCORE.SYSTEM.DIHEDRAL>
0

>  <SCORE.SYSTEM.SOLV>
0

>  <SCORE.SYSTEM.norm>
0

>  <SCORE.heavy>
27

>  <SCORE.norm>
-0.362487

>  <RMSD>
22.207

$$$$
ligand
 OpenBabel11021811483D
libRbt.so/2013.1/901 2013/11/27
 27 29  0  0  0  0  0  0  0  0999 V2000
   54.2871   43.2774   22.4811 N   0  0  0  0  0  0  0  0  0  0  0  0
   53.7123   42.2491   21.6039 C   0  0  2  0  0  0  0  0  0  0  0  0
   52.3539   42.7054   21.1638 C   0  0  0  0  0  0  0  0  0  0  0  0
   51.9834   42.4997   20.0189 O   0  0  0  0  0  0  0  0  0  0  0  0
   53.5845   40.9164   22.3569 C   0  0  0  0  0  0  0  0  0  0  0  0
   53.1454   39.8339   21.3752 C   0  0  0  0  0  0  0  0  0  0  0  0
   52.9228   38.2000   22.1486 S   0  0  2  0  0  0  0  0  0  0  0  0
   54.6149   37.5898   22.4223 C   0  0  0  0  0  0  0  0  0  0  0  0
   52.3854   36.9629   20.9130 C   0  0  0  0  0  0  0  0  0  0  0  0
   50.9111   36.8128   21.1977 C   0  0  1  0  0  0  0  0  0  0  0  0
   50.4626   35.9647   20.1926 O   0  0  0  0  0  0  0  0  0  0  0  0
   50.3978   36.0951   22.4468 C   0  0  1  0  0  0  0  0  0  0  0  0
   50.2122   36.9639   23.5274 O   0  0  0  0  0  0  0  0  0  0  0  0
   49.0350   35.5072   21.8403 C   0  0  1  0  0  0  0  0  0  0  0  0
   48.1637   36.4930   21.2669 O   0  0  0  0  0  0  0  0  0  0  0  0
   49.8820   34.7619   20.8346 C   0  0  1  0  0  0  0  0  0  0  0  0
   51.6170   43.2678   21.9585 O   0  0  0  0  0  0  0  0  0  0  0  0
   46.2398   34.2911   17.4021 N   0  0  0  0  0  0  0  0  0  0  0  0
   46.3263   35.0548   18.4924 C   0  0  0  0  0  0  0  0  0  0  0  0
   47.4188   35.0705   19.2550 N   0  0  0  0  0  0  0  0  0  0  0  0
   48.4316   34.2234   19.0279 C   0  0  0  0  0  0  0  0  0  0  0  0
   48.3480   33.3393   17.9054 C   0  0  0  0  0  0  0  0  0  0  0  0
   47.1896   33.4206   17.0846 C   0  0  0  0  0  0  0  0  0  0  0  0
   47.0402   32.6243   15.9840 N   0  0  0  0  0  0  0  0  0  0  0  0
   49.4730   32.5981   17.9002 N   0  0  0  0  0  0  0  0  0  0  0  0
   50.2301   32.9452   18.9176 C   0  0  0  0  0  0  0  0  0  0  0  0
   49.6556   33.9556   19.6490 N   0  0  0  0  0  0  0  0  0  0  0  0
  2  1  1  1  0  0  0
  2  3  1  0  0  0  0
  2  5  1  0  0  0  0
  3  4  1  0  0  0  0
  3 17  1  0  0  0  0
  5  6  1  0  0  0  0
  7  6  1  6  0  0  0
  7  8  1  0  0  0  0
  7  9  1  0  0  0  0
 10  9  1  1  0  0  0
 10 11  1  0  0  0  0
 10 12  1  0  0  0  0
 11 16  1  0  0  0  0
 12 13  1  1  0  0  0
 12 14  1  0  0  0  0
 14 15  1  6  0  0  0
 14 16  1  0  0  0  0
 16 27  1  6  0  0  0
 18 19  2  0  0  0  0
 18 23  1  0  0  0  0
 19 20  1  0  0  0  0
 20 21  2  0  0  0  0
 21 22  1  0  0  0  0
 21 27  1  0  0  0  0
 22 23  2  0  0  0  0
 22 25  1  0  0  0  0
 23 24  1  0  0  0  0
 25 26  2  0  0  0  0
 26 27  1  0  0  0  0
M  END
>  <CHROM.1>
140.99191257,-173.24229927,-178.87205936,-75.22167977,-103.21329232,174.96532860
-85.76928876,50.54634801,37.11167615,20.49544426,0.82105124,-0.70134265,-0.09988961

>  <Name>
ligand

>  <RI>
0

>  <Rbt.Current_Directory>
/home/itssahil/PROJECTS/Mol_Feturizer/New_Systems/rnas/3IQN

>  <Rbt.Executable>
rbdock ($Id: //depot/dev/client3/rdock/2013.1/src/exe/rbdock.cxx#4 $)

>  <Rbt.Library>
libRbt.so (2013.1, Build901 2013/11/27)

>  <Rbt.Parameter_File>
/export/apps/rDock/src/rDock_2013.1_src/data/scripts/dock_solv.prm

>  <Rbt.Receptor>
prm/blind_docking_80.prm

>  <SCORE>
-18.2416

>  <SCORE.INTER>
-14.9678

>  <SCORE.INTER.CONST>
1

>  <SCORE.INTER.POLAR>
0

>  <SCORE.INTER.ROT>
7

>  <SCORE.INTER.SOLV>
19.3866

>  <SCORE.INTER.VDW>
-24.7074

>  <SCORE.INTER.norm>
-0.554364

>  <SCORE.INTRA>
-3.27897

>  <SCORE.INTRA.DIHEDRAL>
-3.27858

>  <SCORE.INTRA.DIHEDRAL.0>
10.0365

>  <SCORE.INTRA.POLAR>
0

>  <SCORE.INTRA.POLAR.0>
0

>  <SCORE.INTRA.REPUL>
0

>  <SCORE.INTRA.REPUL.0>
0

>  <SCORE.INTRA.SOLV>
-0.798056

>  <SCORE.INTRA.SOLV.lig_0>
-48.6728

>  <SCORE.INTRA.VDW>
-1.24066

>  <SCORE.INTRA.VDW.0>
-1.10662

>  <SCORE.INTRA.norm>
-0.121443

>  <SCORE.RESTR>
0.00524017

>  <SCORE.RESTR.CAVITY>
0.00524017

>  <SCORE.RESTR.norm>
0.00019408

>  <SCORE.SYSTEM>
0

>  <SCORE.SYSTEM.CONST>
0

>  <SCORE.SYSTEM.DIHEDRAL>
0

>  <SCORE.SYSTEM.SOLV>
0

>  <SCORE.SYSTEM.norm>
0

>  <SCORE.heavy>
27

>  <SCORE.norm>
-0.675614

>  <RMSD>
23.139

$$$$
ligand
 OpenBabel11021811483D
libRbt.so/2013.1/901 2013/11/27
 27 29  0  0  0  0  0  0  0  0999 V2000
   40.1397   22.5338   11.2992 N   0  0  0  0  0  0  0  0  0  0  0  0
   40.0541   21.3935   12.2210 C   0  0  2  0  0  0  0  0  0  0  0  0
   40.2127   20.1302   11.4296 C   0  0  0  0  0  0  0  0  0  0  0  0
   40.0974   20.1539   10.2146 O   0  0  0  0  0  0  0  0  0  0  0  0
   38.6925   21.3835   12.9320 C   0  0  0  0  0  0  0  0  0  0  0  0
   38.9225   21.3848   14.4404 C   0  0  0  0  0  0  0  0  0  0  0  0
   39.4224   23.0085   15.0968 S   0  0  2  0  0  0  0  0  0  0  0  0
   38.0197   23.5358   16.1286 C   0  0  0  0  0  0  0  0  0  0  0  0
   39.3065   24.2969   13.8036 C   0  0  0  0  0  0  0  0  0  0  0  0
   39.9907   25.4824   14.4390 C   0  0  1  0  0  0  0  0  0  0  0  0
   39.9603   26.4553   13.4475 O   0  0  0  0  0  0  0  0  0  0  0  0
   39.3731   26.2362   15.6177 C   0  0  1  0  0  0  0  0  0  0  0  0
   39.7752   25.7214   16.8547 O   0  0  0  0  0  0  0  0  0  0  0  0
   39.9548   27.6957   15.2978 C   0  0  1  0  0  0  0  0  0  0  0  0
   41.3839   27.7550   15.1801 O   0  0  0  0  0  0  0  0  0  0  0  0
   39.2221   27.6257   13.9777 C   0  0  1  0  0  0  0  0  0  0  0  0
   40.4724   19.0845   12.0039 O   0  0  0  0  0  0  0  0  0  0  0  0
   42.3157   28.7606   10.1816 N   0  0  0  0  0  0  0  0  0  0  0  0
   42.5079   28.0366   11.2853 C   0  0  0  0  0  0  0  0  0  0  0  0
   41.5260   27.8088   12.1567 N   0  0  0  0  0  0  0  0  0  0  0  0
   40.3331   28.4039   12.0239 C   0  0  0  0  0  0  0  0  0  0  0  0
   40.1081   29.2436   10.8867 C   0  0  0  0  0  0  0  0  0  0  0  0
   41.1699   29.3892    9.9520 C   0  0  0  0  0  0  0  0  0  0  0  0
   41.0303   30.1584    8.8310 N   0  0  0  0  0  0  0  0  0  0  0  0
   38.8515   29.7189   10.9875 N   0  0  0  0  0  0  0  0  0  0  0  0
   38.2935   29.2509   12.0823 C   0  0  0  0  0  0  0  0  0  0  0  0
   39.1468   28.4186   12.7642 N   0  0  0  0  0  0  0  0  0  0  0  0
  2  1  1  6  0  0  0
  2  3  1  0  0  0  0
  2  5  1  0  0  0  0
  3  4  1  0  0  0  0
  3 17  1  0  0  0  0
  5  6  1  0  0  0  0
  7  6  1  6  0  0  0
  7  8  1  0  0  0  0
  7  9  1  0  0  0  0
 10  9  1  6  0  0  0
 10 11  1  0  0  0  0
 10 12  1  0  0  0  0
 11 16  1  0  0  0  0
 12 13  1  1  0  0  0
 12 14  1  0  0  0  0
 14 15  1  6  0  0  0
 14 16  1  0  0  0  0
 16 27  1  6  0  0  0
 18 19  2  0  0  0  0
 18 23  1  0  0  0  0
 19 20  1  0  0  0  0
 20 21  2  0  0  0  0
 21 22  1  0  0  0  0
 21 27  1  0  0  0  0
 22 23  2  0  0  0  0
 22 25  1  0  0  0  0
 23 24  1  0  0  0  0
 25 26  2  0  0  0  0
 26 27  1  0  0  0  0
M  END
>  <CHROM.1>
-15.42319745,-124.18485775,75.89773713,112.84319812,-169.80489324,177.63649574
-41.27724576,39.97681872,25.43952145,12.95932164,-2.00806157,1.30670220,0.23114488

>  <Name>
ligand

>  <RI>
0

>  <Rbt.Current_Directory>
/home/itssahil/PROJECTS/Mol_Feturizer/New_Systems/rnas/3IQN

>  <Rbt.Executable>
rbdock ($Id: //depot/dev/client3/rdock/2013.1/src/exe/rbdock.cxx#4 $)

>  <Rbt.Library>
libRbt.so (2013.1, Build901 2013/11/27)

>  <Rbt.Parameter_File>
/export/apps/rDock/src/rDock_2013.1_src/data/scripts/dock_solv.prm

>  <Rbt.Receptor>
prm/blind_docking_60.prm

>  <SCORE>
10.4913

>  <SCORE.INTER>
2.00723

>  <SCORE.INTER.CONST>
1

>  <SCORE.INTER.POLAR>
0

>  <SCORE.INTER.ROT>
7

>  <SCORE.INTER.SOLV>
10.5694

>  <SCORE.INTER.VDW>
-10.4517

>  <SCORE.INTER.norm>
0.0743418

>  <SCORE.INTRA>
5.45906

>  <SCORE.INTRA.DIHEDRAL>
4.83888

>  <SCORE.INTRA.DIHEDRAL.0>
10.0365

>  <SCORE.INTRA.POLAR>
0

>  <SCORE.INTRA.POLAR.0>
0

>  <SCORE.INTRA.REPUL>
0

>  <SCORE.INTRA.REPUL.0>
0

>  <SCORE.INTRA.SOLV>
1.54581

>  <SCORE.INTRA.SOLV.lig_0>
-48.6728

>  <SCORE.INTRA.VDW>
2.26671

>  <SCORE.INTRA.VDW.0>
-1.10662

>  <SCORE.INTRA.norm>
0.202187

>  <SCORE.RESTR>
3.02498

>  <SCORE.RESTR.CAVITY>
3.02498

>  <SCORE.RESTR.norm>
0.112036

>  <SCORE.SYSTEM>
0

>  <SCORE.SYSTEM.CONST>
0

>  <SCORE.SYSTEM.DIHEDRAL>
0

>  <SCORE.SYSTEM.SOLV>
0

>  <SCORE.SYSTEM.norm>
0

>  <SCORE.heavy>
27

>  <SCORE.norm>
0.388565

>  <RMSD>
36.995

$$$$
ligand
 OpenBabel11021811483D
libRbt.so/2013.1/901 2013/11/27
 27 29  0  0  0  0  0  0  0  0999 V2000
   38.9782   19.0025    9.5113 N   0  0  0  0  0  0  0  0  0  0  0  0
   40.3446   19.1369   10.0330 C   0  0  2  0  0  0  0  0  0  0  0  0
   40.6163   17.9863   10.9548 C   0  0  0  0  0  0  0  0  0  0  0  0
   39.8391   17.7361   11.8623 O   0  0  0  0  0  0  0  0  0  0  0  0
   40.4934   20.4564   10.8052 C   0  0  0  0  0  0  0  0  0  0  0  0
   39.4224   20.5177   11.8903 C   0  0  0  0  0  0  0  0  0  0  0  0
   39.2850   22.1519   12.6826 S   0  0  2  0  0  0  0  0  0  0  0  0
   38.9716   23.3014   11.3075 C   0  0  0  0  0  0  0  0  0  0  0  0
   40.9310   22.7724   13.1843 C   0  0  0  0  0  0  0  0  0  0  0  0
   40.6106   23.7142   14.3189 C   0  0  1  0  0  0  0  0  0  0  0  0
   41.0042   24.9579   13.8405 O   0  0  0  0  0  0  0  0  0  0  0  0
   39.1715   24.0006   14.7503 C   0  0  1  0  0  0  0  0  0  0  0  0
   38.7255   23.1265   15.7472 O   0  0  0  0  0  0  0  0  0  0  0  0
   39.3686   25.5120   15.2476 C   0  0  1  0  0  0  0  0  0  0  0  0
   40.3814   25.6824   16.2499 O   0  0  0  0  0  0  0  0  0  0  0  0
   39.8175   25.8454   13.8434 C   0  0  1  0  0  0  0  0  0  0  0  0
   41.6075   17.2941   10.7836 O   0  0  0  0  0  0  0  0  0  0  0  0
   38.7100   30.7278   13.3919 N   0  0  0  0  0  0  0  0  0  0  0  0
   38.0831   29.7403   14.0331 C   0  0  0  0  0  0  0  0  0  0  0  0
   38.5774   28.5037   14.0746 N   0  0  0  0  0  0  0  0  0  0  0  0
   39.6646   28.1705   13.3660 C   0  0  0  0  0  0  0  0  0  0  0  0
   40.3288   29.1880   12.6096 C   0  0  0  0  0  0  0  0  0  0  0  0
   39.7969   30.5057   12.6639 C   0  0  0  0  0  0  0  0  0  0  0  0
   40.3819   31.5376   11.9852 N   0  0  0  0  0  0  0  0  0  0  0  0
   41.3743   28.6040   11.9923 N   0  0  0  0  0  0  0  0  0  0  0  0
   41.4044   27.3256   12.2984 C   0  0  0  0  0  0  0  0  0  0  0  0
   40.3858   26.9908   13.1564 N   0  0  0  0  0  0  0  0  0  0  0  0
  2  1  1  1  0  0  0
  2  3  1  0  0  0  0
  2  5  1  0  0  0  0
  3  4  1  0  0  0  0
  3 17  1  0  0  0  0
  5  6  1  0  0  0  0
  7  6  1  6  0  0  0
  7  8  1  0  0  0  0
  7  9  1  0  0  0  0
 10  9  1  6  0  0  0
 10 11  1  0  0  0  0
 10 12  1  0  0  0  0
 11 16  1  0  0  0  0
 12 13  1  1  0  0  0
 12 14  1  0  0  0  0
 14 15  1  1  0  0  0
 14 16  1  0  0  0  0
 16 27  1  1  0  0  0
 18 19  2  0  0  0  0
 18 23  1  0  0  0  0
 19 20  1  0  0  0  0
 20 21  2  0  0  0  0
 21 22  1  0  0  0  0
 21 27  1  0  0  0  0
 22 23  2  0  0  0  0
 22 25  1  0  0  0  0
 23 24  1  0  0  0  0
 25 26  2  0  0  0  0
 26 27  1  0  0  0  0
M  END
>  <CHROM.1>
-52.08043818,54.96906471,-169.44396600,56.40995236,-154.62764664,-115.67391694
-160.57844498,39.91263109,24.35452345,12.84256713,-1.37510806,1.37349409
0.01237892

>  <Name>
ligand

>  <RI>
0

>  <Rbt.Current_Directory>
/home/itssahil/PROJECTS/Mol_Feturizer/New_Systems/rnas/3IQN

>  <Rbt.Executable>
rbdock ($Id: //depot/dev/client3/rdock/2013.1/src/exe/rbdock.cxx#4 $)

>  <Rbt.Library>
libRbt.so (2013.1, Build901 2013/11/27)

>  <Rbt.Parameter_File>
/export/apps/rDock/src/rDock_2013.1_src/data/scripts/dock_solv.prm

>  <Rbt.Receptor>
prm/blind_docking_60.prm

>  <SCORE>
-0.795588

>  <SCORE.INTER>
-4.43022

>  <SCORE.INTER.CONST>
1

>  <SCORE.INTER.POLAR>
0

>  <SCORE.INTER.ROT>
7

>  <SCORE.INTER.SOLV>
13.0144

>  <SCORE.INTER.VDW>
-15.5583

>  <SCORE.INTER.norm>
-0.164082

>  <SCORE.INTRA>
2.5194

>  <SCORE.INTRA.DIHEDRAL>
0.853193

>  <SCORE.INTRA.DIHEDRAL.0>
10.0365

>  <SCORE.INTRA.POLAR>
0

>  <SCORE.INTRA.POLAR.0>
0

>  <SCORE.INTRA.REPUL>
0

>  <SCORE.INTRA.REPUL.0>
0

>  <SCORE.INTRA.SOLV>
0.117339

>  <SCORE.INTRA.SOLV.lig_0>
-48.6728

>  <SCORE.INTRA.VDW>
2.03413

>  <SCORE.INTRA.VDW.0>
-1.10662

>  <SCORE.INTRA.norm>
0.0933111

>  <SCORE.RESTR>
1.11524

>  <SCORE.RESTR.CAVITY>
1.11524

>  <SCORE.RESTR.norm>
0.041305

>  <SCORE.SYSTEM>
0

>  <SCORE.SYSTEM.CONST>
0

>  <SCORE.SYSTEM.DIHEDRAL>
0

>  <SCORE.SYSTEM.SOLV>
0

>  <SCORE.SYSTEM.norm>
0

>  <SCORE.heavy>
27

>  <SCORE.norm>
-0.0294662

>  <RMSD>
37.817

$$$$
ligand
 OpenBabel11021811483D
libRbt.so/2013.1/901 2013/11/27
 27 29  0  0  0  0  0  0  0  0999 V2000
   40.5860   19.7832    8.9516 N   0  0  0  0  0  0  0  0  0  0  0  0
   40.5862   19.4882   10.3905 C   0  0  2  0  0  0  0  0  0  0  0  0
   40.3489   18.0194   10.5742 C   0  0  0  0  0  0  0  0  0  0  0  0
   39.4065   17.4801   10.0163 O   0  0  0  0  0  0  0  0  0  0  0  0
   39.4742   20.2778   11.0970 C   0  0  0  0  0  0  0  0  0  0  0  0
   39.4744   19.9139   12.5789 C   0  0  0  0  0  0  0  0  0  0  0  0
   39.2072   21.3423   13.6768 S   0  0  2  0  0  0  0  0  0  0  0  0
   37.6188   22.0447   13.1344 C   0  0  0  0  0  0  0  0  0  0  0  0
   40.2941   22.7365   13.2071 C   0  0  0  0  0  0  0  0  0  0  0  0
   40.2783   23.6121   14.4360 C   0  0  1  0  0  0  0  0  0  0  0  0
   40.7988   24.8209   13.9903 O   0  0  0  0  0  0  0  0  0  0  0  0
   38.9718   24.0697   15.0861 C   0  0  1  0  0  0  0  0  0  0  0  0
   38.5264   23.1873   16.0759 O   0  0  0  0  0  0  0  0  0  0  0  0
   39.4698   25.4856   15.6498 C   0  0  1  0  0  0  0  0  0  0  0  0
   40.6188   25.4152   16.5067 O   0  0  0  0  0  0  0  0  0  0  0  0
   39.7789   25.8708   14.2214 C   0  0  1  0  0  0  0  0  0  0  0  0
   41.1099   17.3654   11.2698 O   0  0  0  0  0  0  0  0  0  0  0  0
   38.6585   30.6590   13.1789 N   0  0  0  0  0  0  0  0  0  0  0  0
   37.9563   29.7061   13.7940 C   0  0  0  0  0  0  0  0  0  0  0  0
   38.4628   28.4948   14.0206 N   0  0  0  0  0  0  0  0  0  0  0  0
   39.6575   28.1425   13.5270 C   0  0  0  0  0  0  0  0  0  0  0  0
   40.4147   29.1171   12.8021 C   0  0  0  0  0  0  0  0  0  0  0  0
   39.8538   30.4157   12.6566 C   0  0  0  0  0  0  0  0  0  0  0  0
   40.5200   31.4082   11.9941 N   0  0  0  0  0  0  0  0  0  0  0  0
   41.5586   28.5209   12.4131 N   0  0  0  0  0  0  0  0  0  0  0  0
   41.5651   27.2736   12.8292 C   0  0  0  0  0  0  0  0  0  0  0  0
   40.4275   26.9752   13.5383 N   0  0  0  0  0  0  0  0  0  0  0  0
  2  1  1  6  0  0  0
  2  3  1  0  0  0  0
  2  5  1  0  0  0  0
  3  4  1  0  0  0  0
  3 17  1  0  0  0  0
  5  6  1  0  0  0  0
  7  6  1  6  0  0  0
  7  8  1  0  0  0  0
  7  9  1  0  0  0  0
 10  9  1  6  0  0  0
 10 11  1  0  0  0  0
 10 12  1  0  0  0  0
 11 16  1  0  0  0  0
 12 13  1  1  0  0  0
 12 14  1  0  0  0  0
 14 15  1  1  0  0  0
 14 16  1  0  0  0  0
 16 27  1  1  0  0  0
 18 19  2  0  0  0  0
 18 23  1  0  0  0  0
 19 20  1  0  0  0  0
 20 21  2  0  0  0  0
 21 22  1  0  0  0  0
 21 27  1  0  0  0  0
 22 23  2  0  0  0  0
 22 25  1  0  0  0  0
 23 24  1  0  0  0  0
 25 26  2  0  0  0  0
 26 27  1  0  0  0  0
M  END
>  <CHROM.1>
-51.00362914,178.19284675,139.27006295,57.13791777,-162.23535485,-165.07616924
177.25268666,39.80570768,24.20874775,13.06545011,-1.52009738,1.29371323,0.16212592

>  <Name>
ligand

>  <RI>
0

>  <Rbt.Current_Directory>
/home/itssahil/PROJECTS/Mol_Feturizer/New_Systems/rnas/3IQN

>  <Rbt.Executable>
rbdock ($Id: //depot/dev/client3/rdock/2013.1/src/exe/rbdock.cxx#4 $)

>  <Rbt.Library>
libRbt.so (2013.1, Build901 2013/11/27)

>  <Rbt.Parameter_File>
/export/apps/rDock/src/rDock_2013.1_src/data/scripts/dock_solv.prm

>  <Rbt.Receptor>
prm/blind_docking_60.prm

>  <SCORE>
-0.388089

>  <SCORE.INTER>
-0.712715

>  <SCORE.INTER.CONST>
1

>  <SCORE.INTER.POLAR>
0

>  <SCORE.INTER.ROT>
7

>  <SCORE.INTER.SOLV>
17.6492

>  <SCORE.INTER.VDW>
-14.6249

>  <SCORE.INTER.norm>
-0.0263969

>  <SCORE.INTRA>
-0.307573

>  <SCORE.INTRA.DIHEDRAL>
-0.419649

>  <SCORE.INTRA.DIHEDRAL.0>
10.0365

>  <SCORE.INTRA.POLAR>
0

>  <SCORE.INTRA.POLAR.0>
0

>  <SCORE.INTRA.REPUL>
0

>  <SCORE.INTRA.REPUL.0>
0

>  <SCORE.INTRA.SOLV>
-0.803279

>  <SCORE.INTRA.SOLV.lig_0>
-48.6728

>  <SCORE.INTRA.VDW>
0.303891

>  <SCORE.INTRA.VDW.0>
-1.10662

>  <SCORE.INTRA.norm>
-0.0113916

>  <SCORE.RESTR>
0.632199

>  <SCORE.RESTR.CAVITY>
0.632199

>  <SCORE.RESTR.norm>
0.0234148

>  <SCORE.SYSTEM>
0

>  <SCORE.SYSTEM.CONST>
0

>  <SCORE.SYSTEM.DIHEDRAL>
0

>  <SCORE.SYSTEM.SOLV>
0

>  <SCORE.SYSTEM.norm>
0

>  <SCORE.heavy>
27

>  <SCORE.norm>
-0.0143737

>  <RMSD>
37.827

$$$$
ligand
 OpenBabel11021811483D
libRbt.so/2013.1/901 2013/11/27
 27 29  0  0  0  0  0  0  0  0999 V2000
   41.5711   20.0409   10.0409 N   0  0  0  0  0  0  0  0  0  0  0  0
   40.8129   18.8174   10.3331 C   0  0  2  0  0  0  0  0  0  0  0  0
   39.8189   18.6003    9.2320 C   0  0  0  0  0  0  0  0  0  0  0  0
   39.4442   19.5442    8.5547 O   0  0  0  0  0  0  0  0  0  0  0  0
   40.0711   18.9563   11.6709 C   0  0  0  0  0  0  0  0  0  0  0  0
   39.2657   20.2522   11.6576 C   0  0  0  0  0  0  0  0  0  0  0  0
   39.4759   21.2527   13.1650 S   0  0  2  0  0  0  0  0  0  0  0  0
   37.9244   21.0214   14.0868 C   0  0  0  0  0  0  0  0  0  0  0  0
   39.3059   23.0353   12.7918 C   0  0  0  0  0  0  0  0  0  0  0  0
   39.7327   23.6968   14.0792 C   0  0  1  0  0  0  0  0  0  0  0  0
   40.3604   24.8640   13.6617 O   0  0  0  0  0  0  0  0  0  0  0  0
   38.7166   24.2452   15.0821 C   0  0  1  0  0  0  0  0  0  0  0  0
   38.3446   23.2982   16.0422 O   0  0  0  0  0  0  0  0  0  0  0  0
   39.5884   25.4580   15.6650 C   0  0  1  0  0  0  0  0  0  0  0  0
   40.8651   25.0733   16.1954 O   0  0  0  0  0  0  0  0  0  0  0  0
   39.6372   26.0110   14.2592 C   0  0  1  0  0  0  0  0  0  0  0  0
   39.3999   17.4757    9.0075 O   0  0  0  0  0  0  0  0  0  0  0  0
   38.6262   30.8097   13.1550 N   0  0  0  0  0  0  0  0  0  0  0  0
   37.8992   29.8787   13.7747 C   0  0  0  0  0  0  0  0  0  0  0  0
   38.3783   28.6596   14.0188 N   0  0  0  0  0  0  0  0  0  0  0  0
   39.5692   28.2769   13.5390 C   0  0  0  0  0  0  0  0  0  0  0  0
   40.3525   29.2272   12.8097 C   0  0  0  0  0  0  0  0  0  0  0  0
   39.8203   30.5356   12.6453 C   0  0  0  0  0  0  0  0  0  0  0  0
   40.5124   31.5065   11.9774 N   0  0  0  0  0  0  0  0  0  0  0  0
   41.4867   28.6029   12.4367 N   0  0  0  0  0  0  0  0  0  0  0  0
   41.4636   27.3605   12.8664 C   0  0  0  0  0  0  0  0  0  0  0  0
   40.3144   27.0939   13.5694 N   0  0  0  0  0  0  0  0  0  0  0  0
  2  1  1  6  0  0  0
  2  3  1  0  0  0  0
  2  5  1  0  0  0  0
  3  4  1  0  0  0  0
  3 17  1  0  0  0  0
  5  6  1  0  0  0  0
  7  6  1  6  0  0  0
  7  8  1  0  0  0  0
  7  9  1  0  0  0  0
 10  9  1  6  0  0  0
 10 11  1  0  0  0  0
 10 12  1  0  0  0  0
 11 16  1  0  0  0  0
 12 13  1  1  0  0  0
 12 14  1  0  0  0  0
 14 15  1  6  0  0  0
 14 16  1  0  0  0  0
 16 27  1  1  0  0  0
 18 19  2  0  0  0  0
 18 23  1  0  0  0  0
 19 20  1  0  0  0  0
 20 21  2  0  0  0  0
 21 22  1  0  0  0  0
 21 27  1  0  0  0  0
 22 23  2  0  0  0  0
 22 25  1  0  0  0  0
 23 24  1  0  0  0  0
 25 26  2  0  0  0  0
 26 27  1  0  0  0  0
M  END
>  <CHROM.1>
-23.42741683,51.74535717,-132.45146329,-105.52572172,-170.91504271,145.96564503
158.34825976,39.71160842,24.27723890,12.83931195,-1.55292360,1.32279641,0.25433070

>  <Name>
ligand

>  <RI>
0

>  <Rbt.Current_Directory>
/home/itssahil/PROJECTS/Mol_Feturizer/New_Systems/rnas/3IQN

>  <Rbt.Executable>
rbdock ($Id: //depot/dev/client3/rdock/2013.1/src/exe/rbdock.cxx#4 $)

>  <Rbt.Library>
libRbt.so (2013.1, Build901 2013/11/27)

>  <Rbt.Parameter_File>
/export/apps/rDock/src/rDock_2013.1_src/data/scripts/dock_solv.prm

>  <Rbt.Receptor>
prm/blind_docking_60.prm

>  <SCORE>
5.63884

>  <SCORE.INTER>
2.11701

>  <SCORE.INTER.CONST>
1

>  <SCORE.INTER.POLAR>
0

>  <SCORE.INTER.ROT>
7

>  <SCORE.INTER.SOLV>
18.8312

>  <SCORE.INTER.VDW>
-13.1324

>  <SCORE.INTER.norm>
0.0784079

>  <SCORE.INTRA>
2.38232

>  <SCORE.INTRA.DIHEDRAL>
5.10603

>  <SCORE.INTRA.DIHEDRAL.0>
10.0365

>  <SCORE.INTRA.POLAR>
0

>  <SCORE.INTRA.POLAR.0>
0

>  <SCORE.INTRA.REPUL>
0

>  <SCORE.INTRA.REPUL.0>
0

>  <SCORE.INTRA.SOLV>
0.344468

>  <SCORE.INTRA.SOLV.lig_0>
-48.6728

>  <SCORE.INTRA.VDW>
-0.342927

>  <SCORE.INTRA.VDW.0>
-1.10662

>  <SCORE.INTRA.norm>
0.0882341

>  <SCORE.RESTR>
1.1395

>  <SCORE.RESTR.CAVITY>
1.1395

>  <SCORE.RESTR.norm>
0.0422037

>  <SCORE.SYSTEM>
0

>  <SCORE.SYSTEM.CONST>
0

>  <SCORE.SYSTEM.DIHEDRAL>
0

>  <SCORE.SYSTEM.SOLV>
0

>  <SCORE.SYSTEM.norm>
0

>  <SCORE.heavy>
27

>  <SCORE.norm>
0.208846

>  <RMSD>
37.865

$$$$
ligand
 OpenBabel11021811483D
libRbt.so/2013.1/901 2013/11/27
 27 29  0  0  0  0  0  0  0  0999 V2000
   39.8014   17.7855   10.1179 N   0  0  0  0  0  0  0  0  0  0  0  0
   40.3413   17.8755   11.4808 C   0  0  2  0  0  0  0  0  0  0  0  0
   40.2128   16.5314   12.1323 C   0  0  0  0  0  0  0  0  0  0  0  0
   39.9422   15.5508   11.4575 O   0  0  0  0  0  0  0  0  0  0  0  0
   39.5592   18.9156   12.2968 C   0  0  0  0  0  0  0  0  0  0  0  0
   40.0350   20.3113   11.9046 C   0  0  0  0  0  0  0  0  0  0  0  0
   39.6684   21.5816   13.1574 S   0  0  2  0  0  0  0  0  0  0  0  0
   37.8793   21.8738   13.0017 C   0  0  0  0  0  0  0  0  0  0  0  0
   40.2595   23.2241   12.6109 C   0  0  0  0  0  0  0  0  0  0  0  0
   40.2791   24.0239   13.8904 C   0  0  1  0  0  0  0  0  0  0  0  0
   40.5534   25.3193   13.4691 O   0  0  0  0  0  0  0  0  0  0  0  0
   39.0177   24.2417   14.7273 C   0  0  1  0  0  0  0  0  0  0  0  0
   38.8414   23.2526   15.7007 O   0  0  0  0  0  0  0  0  0  0  0  0
   39.3737   25.6873   15.3225 C   0  0  1  0  0  0  0  0  0  0  0  0
   40.6241   25.7516   16.0238 O   0  0  0  0  0  0  0  0  0  0  0  0
   39.4308   26.1867   13.8971 C   0  0  1  0  0  0  0  0  0  0  0  0
   40.3952   16.4212   13.3345 O   0  0  0  0  0  0  0  0  0  0  0  0
   38.3985   31.0833   14.3737 N   0  0  0  0  0  0  0  0  0  0  0  0
   37.9507   30.0214   15.0455 C   0  0  0  0  0  0  0  0  0  0  0  0
   38.3959   28.7911   14.7937 N   0  0  0  0  0  0  0  0  0  0  0  0
   39.2224   28.5525   13.7667 C   0  0  0  0  0  0  0  0  0  0  0  0
   39.6739   29.6585   12.9783 C   0  0  0  0  0  0  0  0  0  0  0  0
   39.2228   30.9573   13.3416 C   0  0  0  0  0  0  0  0  0  0  0  0
   39.6213   32.0676   12.6515 N   0  0  0  0  0  0  0  0  0  0  0  0
   40.4786   29.1596   12.0198 N   0  0  0  0  0  0  0  0  0  0  0  0
   40.5541   27.8532   12.1486 C   0  0  0  0  0  0  0  0  0  0  0  0
   39.8145   27.4107   13.2177 N   0  0  0  0  0  0  0  0  0  0  0  0
  2  1  1  6  0  0  0
  2  3  1  0  0  0  0
  2  5  1  0  0  0  0
  3  4  1  0  0  0  0
  3 17  1  0  0  0  0
  5  6  1  0  0  0  0
  7  6  1  6  0  0  0
  7  8  1  0  0  0  0
  7  9  1  0  0  0  0
 10  9  1  6  0  0  0
 10 11  1  0  0  0  0
 10 12  1  0  0  0  0
 11 16  1  0  0  0  0
 12 13  1  1  0  0  0
 12 14  1  0  0  0  0
 14 15  1  6  0  0  0
 14 16  1  0  0  0  0
 16 27  1  1  0  0  0
 18 19  2  0  0  0  0
 18 23  1  0  0  0  0
 19 20  1  0  0  0  0
 20 21  2  0  0  0  0
 21 22  1  0  0  0  0
 21 27  1  0  0  0  0
 22 23  2  0  0  0  0
 22 25  1  0  0  0  0
 23 24  1  0  0  0  0
 25 26  2  0  0  0  0
 26 27  1  0  0  0  0
M  END
>  <CHROM.1>
12.73332621,-78.26746264,-159.17258089,-74.46787484,-162.80170035,-172.35025508
-159.39783513,39.62595393,24.15082366,13.29657790,-1.34698859,1.33412238
-0.07916719

>  <Name>
ligand

>  <RI>
0

>  <Rbt.Current_Directory>
/home/itssahil/PROJECTS/Mol_Feturizer/New_Systems/rnas/3IQN

>  <Rbt.Executable>
rbdock ($Id: //depot/dev/client3/rdock/2013.1/src/exe/rbdock.cxx#4 $)

>  <Rbt.Library>
libRbt.so (2013.1, Build901 2013/11/27)

>  <Rbt.Parameter_File>
/export/apps/rDock/src/rDock_2013.1_src/data/scripts/dock_solv.prm

>  <Rbt.Receptor>
prm/blind_docking_60.prm

>  <SCORE>
-3.08112

>  <SCORE.INTER>
-2.13262

>  <SCORE.INTER.CONST>
1

>  <SCORE.INTER.POLAR>
0

>  <SCORE.INTER.ROT>
7

>  <SCORE.INTER.SOLV>
11.0786

>  <SCORE.INTER.VDW>
-13.3813

>  <SCORE.INTER.norm>
-0.0789859

>  <SCORE.INTRA>
-1.6169

>  <SCORE.INTRA.DIHEDRAL>
-2.5789

>  <SCORE.INTRA.DIHEDRAL.0>
10.0365

>  <SCORE.INTRA.POLAR>
0

>  <SCORE.INTRA.POLAR.0>
0

>  <SCORE.INTRA.REPUL>
0

>  <SCORE.INTRA.REPUL.0>
0

>  <SCORE.INTRA.SOLV>
-0.249407

>  <SCORE.INTRA.SOLV.lig_0>
-48.6728

>  <SCORE.INTRA.VDW>
-0.202744

>  <SCORE.INTRA.VDW.0>
-1.10662

>  <SCORE.INTRA.norm>
-0.0598851

>  <SCORE.RESTR>
0.668392

>  <SCORE.RESTR.CAVITY>
0.668392

>  <SCORE.RESTR.norm>
0.0247553

>  <SCORE.SYSTEM>
0

>  <SCORE.SYSTEM.CONST>
0

>  <SCORE.SYSTEM.DIHEDRAL>
0

>  <SCORE.SYSTEM.SOLV>
0

>  <SCORE.SYSTEM.norm>
0

>  <SCORE.heavy>
27

>  <SCORE.norm>
-0.114116

>  <RMSD>
37.888

$$$$
ligand
 OpenBabel11021811483D
libRbt.so/2013.1/901 2013/11/27
 27 29  0  0  0  0  0  0  0  0999 V2000
   38.8244   19.0132    9.4856 N   0  0  0  0  0  0  0  0  0  0  0  0
   40.2144   19.1752    9.9320 C   0  0  2  0  0  0  0  0  0  0  0  0
   40.6677   17.8871   10.5506 C   0  0  0  0  0  0  0  0  0  0  0  0
   41.8236   17.7639   10.9232 O   0  0  0  0  0  0  0  0  0  0  0  0
   40.3132   20.3031   10.9700 C   0  0  0  0  0  0  0  0  0  0  0  0
   39.5124   19.9080   12.2072 C   0  0  0  0  0  0  0  0  0  0  0  0
   39.2836   21.2739   13.3902 S   0  0  2  0  0  0  0  0  0  0  0  0
   37.6444   21.9548   12.9905 C   0  0  0  0  0  0  0  0  0  0  0  0
   40.2997   22.7201   12.9188 C   0  0  0  0  0  0  0  0  0  0  0  0
   40.2946   23.5643   14.1696 C   0  0  1  0  0  0  0  0  0  0  0  0
   40.8047   24.7863   13.7485 O   0  0  0  0  0  0  0  0  0  0  0  0
   38.9939   23.9995   14.8461 C   0  0  1  0  0  0  0  0  0  0  0  0
   38.5639   23.0904   15.8185 O   0  0  0  0  0  0  0  0  0  0  0  0
   39.4925   25.4030   15.4396 C   0  0  1  0  0  0  0  0  0  0  0  0
   40.6518   25.3163   16.2811 O   0  0  0  0  0  0  0  0  0  0  0  0
   39.7832   25.8255   14.0179 C   0  0  1  0  0  0  0  0  0  0  0  0
   39.8731   16.9712   10.6933 O   0  0  0  0  0  0  0  0  0  0  0  0
   38.6330   30.6349   13.1151 N   0  0  0  0  0  0  0  0  0  0  0  0
   37.9422   29.6638   13.7143 C   0  0  0  0  0  0  0  0  0  0  0  0
   38.4557   28.4488   13.9026 N   0  0  0  0  0  0  0  0  0  0  0  0
   39.6450   28.1140   13.3845 C   0  0  0  0  0  0  0  0  0  0  0  0
   40.3893   29.1098   12.6754 C   0  0  0  0  0  0  0  0  0  0  0  0
   39.8222   30.4097   12.5711 C   0  0  0  0  0  0  0  0  0  0  0  0
   40.4762   31.4215   11.9260 N   0  0  0  0  0  0  0  0  0  0  0  0
   41.5300   28.5282   12.2561 N   0  0  0  0  0  0  0  0  0  0  0  0
   41.5461   27.2706   12.6395 C   0  0  0  0  0  0  0  0  0  0  0  0
   40.4190   26.9496   13.3553 N   0  0  0  0  0  0  0  0  0  0  0  0
  2  1  1  1  0  0  0
  2  3  1  0  0  0  0
  2  5  1  0  0  0  0
  3  4  1  0  0  0  0
  3 17  1  0  0  0  0
  5  6  1  0  0  0  0
  7  6  1  6  0  0  0
  7  8  1  0  0  0  0
  7  9  1  0  0  0  0
 10  9  1  6  0  0  0
 10 11  1  0  0  0  0
 10 12  1  0  0  0  0
 11 16  1  0  0  0  0
 12 13  1  1  0  0  0
 12 14  1  0  0  0  0
 14 15  1  1  0  0  0
 14 16  1  0  0  0  0
 16 27  1  1  0  0  0
 18 19  2  0  0  0  0
 18 23  1  0  0  0  0
 19 20  1  0  0  0  0
 20 21  2  0  0  0  0
 21 22  1  0  0  0  0
 21 27  1  0  0  0  0
 22 23  2  0  0  0  0
 22 25  1  0  0  0  0
 23 24  1  0  0  0  0
 25 26  2  0  0  0  0
 26 27  1  0  0  0  0
M  END
>  <CHROM.1>
175.66661012,63.82684802,-169.21456207,96.32251770,-164.61684039,-167.43810724
177.35658632,39.82535096,24.13010742,12.92401793,-1.49688540,1.27405220,0.12804683

>  <Name>
ligand

>  <RI>
0

>  <Rbt.Current_Directory>
/home/itssahil/PROJECTS/Mol_Feturizer/New_Systems/rnas/3IQN

>  <Rbt.Executable>
rbdock ($Id: //depot/dev/client3/rdock/2013.1/src/exe/rbdock.cxx#4 $)

>  <Rbt.Library>
libRbt.so (2013.1, Build901 2013/11/27)

>  <Rbt.Parameter_File>
/export/apps/rDock/src/rDock_2013.1_src/data/scripts/dock_solv.prm

>  <Rbt.Receptor>
prm/blind_docking_60.prm

>  <SCORE>
-1.87083

>  <SCORE.INTER>
-3.40414

>  <SCORE.INTER.CONST>
1

>  <SCORE.INTER.POLAR>
0

>  <SCORE.INTER.ROT>
7

>  <SCORE.INTER.SOLV>
12.7944

>  <SCORE.INTER.VDW>
-14.8009

>  <SCORE.INTER.norm>
-0.126079

>  <SCORE.INTRA>
0.72575

>  <SCORE.INTRA.DIHEDRAL>
-1.04537

>  <SCORE.INTRA.DIHEDRAL.0>
10.0365

>  <SCORE.INTRA.POLAR>
0

>  <SCORE.INTRA.POLAR.0>
0

>  <SCORE.INTRA.REPUL>
0

>  <SCORE.INTRA.REPUL.0>
0

>  <SCORE.INTRA.SOLV>
-0.0125775

>  <SCORE.INTRA.SOLV.lig_0>
-48.6728

>  <SCORE.INTRA.VDW>
1.25473

>  <SCORE.INTRA.VDW.0>
-1.10662

>  <SCORE.INTRA.norm>
0.0268796

>  <SCORE.RESTR>
0.807564

>  <SCORE.RESTR.CAVITY>
0.807564

>  <SCORE.RESTR.norm>
0.0299098

>  <SCORE.SYSTEM>
0

>  <SCORE.SYSTEM.CONST>
0

>  <SCORE.SYSTEM.DIHEDRAL>
0

>  <SCORE.SYSTEM.SOLV>
0

>  <SCORE.SYSTEM.norm>
0

>  <SCORE.heavy>
27

>  <SCORE.norm>
-0.0692899

>  <RMSD>
37.967

$$$$
ligand
 OpenBabel11021811483D
libRbt.so/2013.1/901 2013/11/27
 27 29  0  0  0  0  0  0  0  0999 V2000
   41.5158   17.3914   10.9558 N   0  0  0  0  0  0  0  0  0  0  0  0
   40.0697   17.5857   10.7870 C   0  0  2  0  0  0  0  0  0  0  0  0
   39.8282   18.2156    9.4482 C   0  0  0  0  0  0  0  0  0  0  0  0
   38.8349   17.9166    8.8047 O   0  0  0  0  0  0  0  0  0  0  0  0
   39.5227   18.5043   11.8899 C   0  0  0  0  0  0  0  0  0  0  0  0
   40.0620   19.9148   11.6713 C   0  0  0  0  0  0  0  0  0  0  0  0
   39.6302   21.0723   13.0096 S   0  0  2  0  0  0  0  0  0  0  0  0
   37.8117   21.1294   12.9952 C   0  0  0  0  0  0  0  0  0  0  0  0
   39.9592   22.8001   12.5071 C   0  0  0  0  0  0  0  0  0  0  0  0
   40.1028   23.5188   13.8261 C   0  0  1  0  0  0  0  0  0  0  0  0
   40.6630   24.7422   13.4794 O   0  0  0  0  0  0  0  0  0  0  0  0
   38.8875   23.9655   14.6401 C   0  0  1  0  0  0  0  0  0  0  0  0
   38.4684   22.9950   15.5563 O   0  0  0  0  0  0  0  0  0  0  0  0
   39.5225   25.2724   15.3180 C   0  0  1  0  0  0  0  0  0  0  0  0
   40.7313   25.0344   16.0539 O   0  0  0  0  0  0  0  0  0  0  0  0
   39.7370   25.8110   13.9222 C   0  0  1  0  0  0  0  0  0  0  0  0
   40.6196   19.0377    9.0141 O   0  0  0  0  0  0  0  0  0  0  0  0
   38.5999   30.6310   13.0599 N   0  0  0  0  0  0  0  0  0  0  0  0
   37.8860   29.6432   13.6022 C   0  0  0  0  0  0  0  0  0  0  0  0
   38.3980   28.4279   13.7920 N   0  0  0  0  0  0  0  0  0  0  0  0
   39.6150   28.1114   13.3298 C   0  0  0  0  0  0  0  0  0  0  0  0
   40.3878   29.1265   12.6810 C   0  0  0  0  0  0  0  0  0  0  0  0
   39.8173   30.4247   12.5740 C   0  0  0  0  0  0  0  0  0  0  0  0
   40.4965   31.4539   11.9849 N   0  0  0  0  0  0  0  0  0  0  0  0
   41.5530   28.5610   12.3099 N   0  0  0  0  0  0  0  0  0  0  0  0
   41.5585   27.2958   12.6676 C   0  0  0  0  0  0  0  0  0  0  0  0
   40.3981   26.9528   13.3170 N   0  0  0  0  0  0  0  0  0  0  0  0
  2  1  1  1  0  0  0
  2  3  1  0  0  0  0
  2  5  1  0  0  0  0
  3  4  1  0  0  0  0
  3 17  1  0  0  0  0
  5  6  1  0  0  0  0
  7  6  1  6  0  0  0
  7  8  1  0  0  0  0
  7  9  1  0  0  0  0
 10  9  1  6  0  0  0
 10 11  1  0  0  0  0
 10 12  1  0  0  0  0
 11 16  1  0  0  0  0
 12 13  1  1  0  0  0
 12 14  1  0  0  0  0
 14 15  1  6  0  0  0
 14 16  1  0  0  0  0
 16 27  1  1  0  0  0
 18 19  2  0  0  0  0
 18 23  1  0  0  0  0
 19 20  1  0  0  0  0
 20 21  2  0  0  0  0
 21 22  1  0  0  0  0
 21 27  1  0  0  0  0
 22 23  2  0  0  0  0
 22 25  1  0  0  0  0
 23 24  1  0  0  0  0
 25 26  2  0  0  0  0
 26 27  1  0  0  0  0
M  END
>  <CHROM.1>
144.74362983,68.73561412,-174.00274751,-61.53314357,-157.63086352,166.22120844
167.95708651,39.79151412,23.98794030,12.71969518,-1.53445727,1.33751476,0.19288016

>  <Name>
ligand

>  <RI>
0

>  <Rbt.Current_Directory>
/home/itssahil/PROJECTS/Mol_Feturizer/New_Systems/rnas/3IQN

>  <Rbt.Executable>
rbdock ($Id: //depot/dev/client3/rdock/2013.1/src/exe/rbdock.cxx#4 $)

>  <Rbt.Library>
libRbt.so (2013.1, Build901 2013/11/27)

>  <Rbt.Parameter_File>
/export/apps/rDock/src/rDock_2013.1_src/data/scripts/dock_solv.prm

>  <Rbt.Receptor>
prm/blind_docking_60.prm

>  <SCORE>
1.05298

>  <SCORE.INTER>
1.63127

>  <SCORE.INTER.CONST>
1

>  <SCORE.INTER.POLAR>
0

>  <SCORE.INTER.ROT>
7

>  <SCORE.INTER.SOLV>
18.5512

>  <SCORE.INTER.VDW>
-13.3629

>  <SCORE.INTER.norm>
0.0604174

>  <SCORE.INTRA>
-1.71074

>  <SCORE.INTRA.DIHEDRAL>
-3.80767

>  <SCORE.INTRA.DIHEDRAL.0>
10.0365

>  <SCORE.INTRA.POLAR>
0

>  <SCORE.INTRA.POLAR.0>
0

>  <SCORE.INTRA.REPUL>
0

>  <SCORE.INTRA.REPUL.0>
0

>  <SCORE.INTRA.SOLV>
-0.297251

>  <SCORE.INTRA.SOLV.lig_0>
-48.6728

>  <SCORE.INTRA.VDW>
0.341725

>  <SCORE.INTRA.VDW.0>
-1.10662

>  <SCORE.INTRA.norm>
-0.0633606

>  <SCORE.RESTR>
1.13245

>  <SCORE.RESTR.CAVITY>
1.13245

>  <SCORE.RESTR.norm>
0.0419426

>  <SCORE.SYSTEM>
0

>  <SCORE.SYSTEM.CONST>
0

>  <SCORE.SYSTEM.DIHEDRAL>
0

>  <SCORE.SYSTEM.SOLV>
0

>  <SCORE.SYSTEM.norm>
0

>  <SCORE.heavy>
27

>  <SCORE.norm>
0.0389994

>  <RMSD>
38.179

$$$$
ligand
 OpenBabel11021811483D
libRbt.so/2013.1/901 2013/11/27
 27 29  0  0  0  0  0  0  0  0999 V2000
   40.6323   18.0627   10.2461 N   0  0  0  0  0  0  0  0  0  0  0  0
   40.3539   18.6161   11.5779 C   0  0  2  0  0  0  0  0  0  0  0  0
   39.6214   17.5817   12.3784 C   0  0  0  0  0  0  0  0  0  0  0  0
   39.7394   17.5554   13.5932 O   0  0  0  0  0  0  0  0  0  0  0  0
   39.4876   19.8791   11.4603 C   0  0  0  0  0  0  0  0  0  0  0  0
   39.4047   20.5509   12.8277 C   0  0  0  0  0  0  0  0  0  0  0  0
   39.3005   22.3671   12.7387 S   0  0  2  0  0  0  0  0  0  0  0  0
   39.4881   22.7493   10.9698 C   0  0  0  0  0  0  0  0  0  0  0  0
   40.8435   23.1382   13.3474 C   0  0  0  0  0  0  0  0  0  0  0  0
   40.4479   23.6725   14.7021 C   0  0  1  0  0  0  0  0  0  0  0  0
   40.5675   25.0500   14.5645 O   0  0  0  0  0  0  0  0  0  0  0  0
   39.0199   23.5473   15.2352 C   0  0  1  0  0  0  0  0  0  0  0  0
   38.8227   22.3752   15.9727 O   0  0  0  0  0  0  0  0  0  0  0  0
   38.9761   24.8872   16.1147 C   0  0  1  0  0  0  0  0  0  0  0  0
   40.0175   24.9899   17.0967 O   0  0  0  0  0  0  0  0  0  0  0  0
   39.2425   25.6538   14.8396 C   0  0  1  0  0  0  0  0  0  0  0  0
   38.8966   16.7789   11.8119 O   0  0  0  0  0  0  0  0  0  0  0  0
   39.8889   28.2036   10.5560 N   0  0  0  0  0  0  0  0  0  0  0  0
   39.6558   26.9098   10.7818 C   0  0  0  0  0  0  0  0  0  0  0  0
   39.4598   26.4347   12.0111 N   0  0  0  0  0  0  0  0  0  0  0  0
   39.6135   27.2183   13.0868 C   0  0  0  0  0  0  0  0  0  0  0  0
   39.9305   28.6000   12.8895 C   0  0  0  0  0  0  0  0  0  0  0  0
   40.0542   29.0654   11.5514 C   0  0  0  0  0  0  0  0  0  0  0  0
   40.3373   30.3738   11.2766 N   0  0  0  0  0  0  0  0  0  0  0  0
   40.0353   29.1608   14.1100 N   0  0  0  0  0  0  0  0  0  0  0  0
   39.8170   28.2480   15.0308 C   0  0  0  0  0  0  0  0  0  0  0  0
   39.5346   27.0267   14.4699 N   0  0  0  0  0  0  0  0  0  0  0  0
  2  1  1  6  0  0  0
  2  3  1  0  0  0  0
  2  5  1  0  0  0  0
  3  4  1  0  0  0  0
  3 17  1  0  0  0  0
  5  6  1  0  0  0  0
  7  6  1  6  0  0  0
  7  8  1  0  0  0  0
  7  9  1  0  0  0  0
 10  9  1  6  0  0  0
 10 11  1  0  0  0  0
 10 12  1  0  0  0  0
 11 16  1  0  0  0  0
 12 13  1  1  0  0  0
 12 14  1  0  0  0  0
 14 15  1  1  0  0  0
 14 16  1  0  0  0  0
 16 27  1  1  0  0  0
 18 19  2  0  0  0  0
 18 23  1  0  0  0  0
 19 20  1  0  0  0  0
 20 21  2  0  0  0  0
 21 22  1  0  0  0  0
 21 27  1  0  0  0  0
 22 23  2  0  0  0  0
 22 25  1  0  0  0  0
 23 24  1  0  0  0  0
 25 26  2  0  0  0  0
 26 27  1  0  0  0  0
M  END
>  <CHROM.1>
150.82818370,-171.00327411,146.88745992,-5.01450467,-105.51719498,-115.23817842
74.65203468,39.72354866,23.81761892,13.16846798,-1.87866261,1.49109669,0.39764673

>  <Name>
ligand

>  <RI>
0

>  <Rbt.Current_Directory>
/home/itssahil/PROJECTS/Mol_Feturizer/New_Systems/rnas/3IQN

>  <Rbt.Executable>
rbdock ($Id: //depot/dev/client3/rdock/2013.1/src/exe/rbdock.cxx#4 $)

>  <Rbt.Library>
libRbt.so (2013.1, Build901 2013/11/27)

>  <Rbt.Parameter_File>
/export/apps/rDock/src/rDock_2013.1_src/data/scripts/dock_solv.prm

>  <Rbt.Receptor>
prm/blind_docking_60.prm

>  <SCORE>
4.62891

>  <SCORE.INTER>
-2.61463

>  <SCORE.INTER.CONST>
1

>  <SCORE.INTER.POLAR>
0

>  <SCORE.INTER.ROT>
7

>  <SCORE.INTER.SOLV>
12.3644

>  <SCORE.INTER.VDW>
-14.1312

>  <SCORE.INTER.norm>
-0.0968381

>  <SCORE.INTRA>
6.70842

>  <SCORE.INTRA.DIHEDRAL>
9.27993

>  <SCORE.INTRA.DIHEDRAL.0>
10.0365

>  <SCORE.INTRA.POLAR>
0

>  <SCORE.INTRA.POLAR.0>
0

>  <SCORE.INTRA.REPUL>
0

>  <SCORE.INTRA.REPUL.0>
0

>  <SCORE.INTRA.SOLV>
-0.745583

>  <SCORE.INTRA.SOLV.lig_0>
-48.6728

>  <SCORE.INTRA.VDW>
2.44125

>  <SCORE.INTRA.VDW.0>
-1.10662

>  <SCORE.INTRA.norm>
0.24846

>  <SCORE.RESTR>
0.535117

>  <SCORE.RESTR.CAVITY>
0.535117

>  <SCORE.RESTR.norm>
0.0198192

>  <SCORE.SYSTEM>
0

>  <SCORE.SYSTEM.CONST>
0

>  <SCORE.SYSTEM.DIHEDRAL>
0

>  <SCORE.SYSTEM.SOLV>
0

>  <SCORE.SYSTEM.norm>
0

>  <SCORE.heavy>
27

>  <SCORE.norm>
0.171441

>  <RMSD>
38.206

$$$$
ligand
 OpenBabel11021811483D
libRbt.so/2013.1/901 2013/11/27
 27 29  0  0  0  0  0  0  0  0999 V2000
   39.4534   18.5695    9.4650 N   0  0  0  0  0  0  0  0  0  0  0  0
   40.4554   18.4870   10.5358 C   0  0  2  0  0  0  0  0  0  0  0  0
   40.7041   17.0410   10.8431 C   0  0  0  0  0  0  0  0  0  0  0  0
   41.7663   16.5260   10.5322 O   0  0  0  0  0  0  0  0  0  0  0  0
   39.9460   19.1975   11.7987 C   0  0  0  0  0  0  0  0  0  0  0  0
   40.1316   20.7024   11.6283 C   0  0  0  0  0  0  0  0  0  0  0  0
   39.6835   21.6613   13.1106 S   0  0  2  0  0  0  0  0  0  0  0  0
   37.8669   21.7528   13.0636 C   0  0  0  0  0  0  0  0  0  0  0  0
   40.0502   23.4374   12.8722 C   0  0  0  0  0  0  0  0  0  0  0  0
   40.1544   23.9580   14.2847 C   0  0  1  0  0  0  0  0  0  0  0  0
   40.3597   25.3226   14.1223 O   0  0  0  0  0  0  0  0  0  0  0  0
   38.9609   23.9462   15.2410 C   0  0  1  0  0  0  0  0  0  0  0  0
   38.8908   22.7720   15.9981 O   0  0  0  0  0  0  0  0  0  0  0  0
   39.3273   25.2528   16.0950 C   0  0  1  0  0  0  0  0  0  0  0  0
   40.6291   25.2247   16.6983 O   0  0  0  0  0  0  0  0  0  0  0  0
   39.2541   26.0357   14.8043 C   0  0  1  0  0  0  0  0  0  0  0  0
   39.8474   16.3880   11.4181 O   0  0  0  0  0  0  0  0  0  0  0  0
   39.9872   28.3526   10.4039 N   0  0  0  0  0  0  0  0  0  0  0  0
   39.7542   27.0717   10.6944 C   0  0  0  0  0  0  0  0  0  0  0  0
   39.5323   26.6631   11.9430 N   0  0  0  0  0  0  0  0  0  0  0  0
   39.6585   27.5047   12.9778 C   0  0  0  0  0  0  0  0  0  0  0  0
   39.9743   28.8753   12.7126 C   0  0  0  0  0  0  0  0  0  0  0  0
   40.1264   29.2680   11.3544 C   0  0  0  0  0  0  0  0  0  0  0  0
   40.4104   30.5611   11.0152 N   0  0  0  0  0  0  0  0  0  0  0  0
   40.0492   29.5021   13.9029 N   0  0  0  0  0  0  0  0  0  0  0  0
   39.8137   28.6395   14.8669 C   0  0  0  0  0  0  0  0  0  0  0  0
   39.5490   27.3881   14.3671 N   0  0  0  0  0  0  0  0  0  0  0  0
  2  1  1  6  0  0  0
  2  3  1  0  0  0  0
  2  5  1  0  0  0  0
  3  4  1  0  0  0  0
  3 17  1  0  0  0  0
  5  6  1  0  0  0  0
  7  6  1  6  0  0  0
  7  8  1  0  0  0  0
  7  9  1  0  0  0  0
 10  9  1  6  0  0  0
 10 11  1  0  0  0  0
 10 12  1  0  0  0  0
 11 16  1  0  0  0  0
 12 13  1  1  0  0  0
 12 14  1  0  0  0  0
 14 15  1  6  0  0  0
 14 16  1  0  0  0  0
 16 27  1  1  0  0  0
 18 19  2  0  0  0  0
 18 23  1  0  0  0  0
 19 20  1  0  0  0  0
 20 21  2  0  0  0  0
 21 22  1  0  0  0  0
 21 27  1  0  0  0  0
 22 23  2  0  0  0  0
 22 25  1  0  0  0  0
 23 24  1  0  0  0  0
 25 26  2  0  0  0  0
 26 27  1  0  0  0  0
M  END
>  <CHROM.1>
109.43618675,-79.19095476,-175.59877484,-79.03019907,-158.30569423,-176.81840478
53.69963262,39.86043570,23.82283716,12.88006777,-1.33967967,1.43989236,-0.04401822

>  <Name>
ligand

>  <RI>
0

>  <Rbt.Current_Directory>
/home/itssahil/PROJECTS/Mol_Feturizer/New_Systems/rnas/3IQN

>  <Rbt.Executable>
rbdock ($Id: //depot/dev/client3/rdock/2013.1/src/exe/rbdock.cxx#4 $)

>  <Rbt.Library>
libRbt.so (2013.1, Build901 2013/11/27)

>  <Rbt.Parameter_File>
/export/apps/rDock/src/rDock_2013.1_src/data/scripts/dock_solv.prm

>  <Rbt.Receptor>
prm/blind_docking_60.prm

>  <SCORE>
-5.42698

>  <SCORE.INTER>
-3.93665

>  <SCORE.INTER.CONST>
1

>  <SCORE.INTER.POLAR>
0

>  <SCORE.INTER.ROT>
7

>  <SCORE.INTER.SOLV>
10.5473

>  <SCORE.INTER.VDW>
-14.4069

>  <SCORE.INTER.norm>
-0.145802

>  <SCORE.INTRA>
-2.18116

>  <SCORE.INTRA.DIHEDRAL>
-3.1369

>  <SCORE.INTRA.DIHEDRAL.0>
10.0365

>  <SCORE.INTRA.POLAR>
0

>  <SCORE.INTRA.POLAR.0>
0

>  <SCORE.INTRA.REPUL>
0

>  <SCORE.INTRA.REPUL.0>
0

>  <SCORE.INTRA.SOLV>
-0.254843

>  <SCORE.INTRA.SOLV.lig_0>
-48.6728

>  <SCORE.INTRA.VDW>
-0.485286

>  <SCORE.INTRA.VDW.0>
-1.10662

>  <SCORE.INTRA.norm>
-0.0807836

>  <SCORE.RESTR>
0.690825

>  <SCORE.RESTR.CAVITY>
0.690825

>  <SCORE.RESTR.norm>
0.0255861

>  <SCORE.SYSTEM>
0

>  <SCORE.SYSTEM.CONST>
0

>  <SCORE.SYSTEM.DIHEDRAL>
0

>  <SCORE.SYSTEM.SOLV>
0

>  <SCORE.SYSTEM.norm>
0

>  <SCORE.heavy>
27

>  <SCORE.norm>
-0.200999

>  <RMSD>
38.301

$$$$
ligand
 OpenBabel11021811483D
libRbt.so/2013.1/901 2013/11/27
 27 29  0  0  0  0  0  0  0  0999 V2000
   41.4149   17.3684   10.5774 N   0  0  0  0  0  0  0  0  0  0  0  0
   40.5633   18.0042   11.5913 C   0  0  2  0  0  0  0  0  0  0  0  0
   40.0677   16.9438   12.5280 C   0  0  0  0  0  0  0  0  0  0  0  0
   40.0465   15.7767   12.1707 O   0  0  0  0  0  0  0  0  0  0  0  0
   39.3656   18.6966   10.9239 C   0  0  0  0  0  0  0  0  0  0  0  0
   39.6768   20.1824   10.7693 C   0  0  0  0  0  0  0  0  0  0  0  0
   39.7914   21.0687   12.3563 S   0  0  2  0  0  0  0  0  0  0  0  0
   38.2045   20.7351   13.1815 C   0  0  0  0  0  0  0  0  0  0  0  0
   39.5953   22.8707   12.1110 C   0  0  0  0  0  0  0  0  0  0  0  0
   39.9633   23.4417   13.4585 C   0  0  1  0  0  0  0  0  0  0  0  0
   40.5582   24.6596   13.1528 O   0  0  0  0  0  0  0  0  0  0  0  0
   38.9016   23.8726   14.4714 C   0  0  1  0  0  0  0  0  0  0  0  0
   38.5397   22.8396   15.3425 O   0  0  0  0  0  0  0  0  0  0  0  0
   39.7122   25.0646   15.1733 C   0  0  1  0  0  0  0  0  0  0  0  0
   40.9880   24.6833   15.7087 O   0  0  0  0  0  0  0  0  0  0  0  0
   39.7776   25.7295   13.8176 C   0  0  1  0  0  0  0  0  0  0  0  0
   39.7016   17.2512   13.6515 O   0  0  0  0  0  0  0  0  0  0  0  0
   38.6087   30.5565   13.0417 N   0  0  0  0  0  0  0  0  0  0  0  0
   37.9004   29.5539   13.5637 C   0  0  0  0  0  0  0  0  0  0  0  0
   38.4205   28.3388   13.7323 N   0  0  0  0  0  0  0  0  0  0  0  0
   39.6409   28.0395   13.2675 C   0  0  0  0  0  0  0  0  0  0  0  0
   40.4082   29.0719   12.6398 C   0  0  0  0  0  0  0  0  0  0  0  0
   39.8288   30.3678   12.5554 C   0  0  0  0  0  0  0  0  0  0  0  0
   40.5022   31.4125   11.9872 N   0  0  0  0  0  0  0  0  0  0  0  0
   41.5782   28.5215   12.2613 N   0  0  0  0  0  0  0  0  0  0  0  0
   41.5917   27.2499   12.5955 C   0  0  0  0  0  0  0  0  0  0  0  0
   40.4321   26.8868   13.2354 N   0  0  0  0  0  0  0  0  0  0  0  0
  2  1  1  6  0  0  0
  2  3  1  0  0  0  0
  2  5  1  0  0  0  0
  3  4  1  0  0  0  0
  3 17  1  0  0  0  0
  5  6  1  0  0  0  0
  7  6  1  6  0  0  0
  7  8  1  0  0  0  0
  7  9  1  0  0  0  0
 10  9  1  6  0  0  0
 10 11  1  0  0  0  0
 10 12  1  0  0  0  0
 11 16  1  0  0  0  0
 12 13  1  1  0  0  0
 12 14  1  0  0  0  0
 14 15  1  6  0  0  0
 14 16  1  0  0  0  0
 16 27  1  1  0  0  0
 18 19  2  0  0  0  0
 18 23  1  0  0  0  0
 19 20  1  0  0  0  0
 20 21  2  0  0  0  0
 21 22  1  0  0  0  0
 21 27  1  0  0  0  0
 22 23  2  0  0  0  0
 22 25  1  0  0  0  0
 23 24  1  0  0  0  0
 25 26  2  0  0  0  0
 26 27  1  0  0  0  0
M  END
>  <CHROM.1>
-21.65047815,-97.82881946,-67.11681990,-55.54185612,-170.16569132,146.97385650
157.89465161,39.83890069,23.74419790,12.95086688,-1.53827885,1.14696445,0.05803584

>  <Name>
ligand

>  <RI>
0

>  <Rbt.Current_Directory>
/home/itssahil/PROJECTS/Mol_Feturizer/New_Systems/rnas/3IQN

>  <Rbt.Executable>
rbdock ($Id: //depot/dev/client3/rdock/2013.1/src/exe/rbdock.cxx#4 $)

>  <Rbt.Library>
libRbt.so (2013.1, Build901 2013/11/27)

>  <Rbt.Parameter_File>
/export/apps/rDock/src/rDock_2013.1_src/data/scripts/dock_solv.prm

>  <Rbt.Receptor>
prm/blind_docking_60.prm

>  <SCORE>
-0.070933

>  <SCORE.INTER>
-0.218385

>  <SCORE.INTER.CONST>
1

>  <SCORE.INTER.POLAR>
0

>  <SCORE.INTER.ROT>
7

>  <SCORE.INTER.SOLV>
18.3422

>  <SCORE.INTER.VDW>
-14.5263

>  <SCORE.INTER.norm>
-0.00808833

>  <SCORE.INTRA>
-0.538438

>  <SCORE.INTRA.DIHEDRAL>
1.38408

>  <SCORE.INTRA.DIHEDRAL.0>
10.0365

>  <SCORE.INTRA.POLAR>
0

>  <SCORE.INTRA.POLAR.0>
0

>  <SCORE.INTRA.REPUL>
0

>  <SCORE.INTRA.REPUL.0>
0

>  <SCORE.INTRA.SOLV>
-0.342929

>  <SCORE.INTRA.SOLV.lig_0>
-48.6728

>  <SCORE.INTRA.VDW>
-1.05901

>  <SCORE.INTRA.VDW.0>
-1.10662

>  <SCORE.INTRA.norm>
-0.0199421

>  <SCORE.RESTR>
0.685889

>  <SCORE.RESTR.CAVITY>
0.685889

>  <SCORE.RESTR.norm>
0.0254033

>  <SCORE.SYSTEM>
0

>  <SCORE.SYSTEM.CONST>
0

>  <SCORE.SYSTEM.DIHEDRAL>
0

>  <SCORE.SYSTEM.SOLV>
0

>  <SCORE.SYSTEM.norm>
0

>  <SCORE.heavy>
27

>  <SCORE.norm>
-0.00262715

>  <RMSD>
38.304

$$$$
ligand
 OpenBabel11021811483D
libRbt.so/2013.1/901 2013/11/27
 27 29  0  0  0  0  0  0  0  0999 V2000
   39.3754   18.6755    8.5540 N   0  0  0  0  0  0  0  0  0  0  0  0
   40.2003   18.9642    9.7345 C   0  0  2  0  0  0  0  0  0  0  0  0
   40.4402   17.6809   10.4715 C   0  0  0  0  0  0  0  0  0  0  0  0
   41.5652   17.3978   10.8516 O   0  0  0  0  0  0  0  0  0  0  0  0
   39.4800   19.9572   10.6588 C   0  0  0  0  0  0  0  0  0  0  0  0
   40.4769   20.4922   11.6826 C   0  0  0  0  0  0  0  0  0  0  0  0
   39.7013   21.4747   13.0057 S   0  0  2  0  0  0  0  0  0  0  0  0
   37.9693   21.6616   12.4806 C   0  0  0  0  0  0  0  0  0  0  0  0
   40.2082   23.2289   12.8961 C   0  0  0  0  0  0  0  0  0  0  0  0
   40.0945   23.7079   14.3225 C   0  0  1  0  0  0  0  0  0  0  0  0
   40.3139   25.0770   14.2325 O   0  0  0  0  0  0  0  0  0  0  0  0
   38.7702   23.6661   15.0864 C   0  0  1  0  0  0  0  0  0  0  0  0
   38.5933   22.4701   15.7899 O   0  0  0  0  0  0  0  0  0  0  0  0
   38.9955   24.9476   16.0233 C   0  0  1  0  0  0  0  0  0  0  0  0
   40.1912   24.9036   16.8157 O   0  0  0  0  0  0  0  0  0  0  0  0
   39.1138   25.7681   14.7596 C   0  0  1  0  0  0  0  0  0  0  0  0
   39.5047   16.9311   10.7023 O   0  0  0  0  0  0  0  0  0  0  0  0
   39.9209   28.3421   10.5179 N   0  0  0  0  0  0  0  0  0  0  0  0
   39.6353   27.0555   10.7241 C   0  0  0  0  0  0  0  0  0  0  0  0
   39.4029   26.5737   11.9445 N   0  0  0  0  0  0  0  0  0  0  0  0
   39.5703   27.3380   13.0320 C   0  0  0  0  0  0  0  0  0  0  0  0
   39.9425   28.7088   12.8565 C   0  0  0  0  0  0  0  0  0  0  0  0
   40.1039   29.1850   11.5263 C   0  0  0  0  0  0  0  0  0  0  0  0
   40.4407   30.4848   11.2719 N   0  0  0  0  0  0  0  0  0  0  0  0
   40.0504   29.2506   14.0853 N   0  0  0  0  0  0  0  0  0  0  0  0
   39.7837   28.3360   14.9914 C   0  0  0  0  0  0  0  0  0  0  0  0
   39.4634   27.1331   14.4113 N   0  0  0  0  0  0  0  0  0  0  0  0
  2  1  1  6  0  0  0
  2  3  1  0  0  0  0
  2  5  1  0  0  0  0
  3  4  1  0  0  0  0
  3 17  1  0  0  0  0
  5  6  1  0  0  0  0
  7  6  1  6  0  0  0
  7  8  1  0  0  0  0
  7  9  1  0  0  0  0
 10  9  1  6  0  0  0
 10 11  1  0  0  0  0
 10 12  1  0  0  0  0
 11 16  1  0  0  0  0
 12 13  1  1  0  0  0
 12 14  1  0  0  0  0
 14 15  1  6  0  0  0
 14 16  1  0  0  0  0
 16 27  1  1  0  0  0
 18 19  2  0  0  0  0
 18 23  1  0  0  0  0
 19 20  1  0  0  0  0
 20 21  2  0  0  0  0
 21 22  1  0  0  0  0
 21 27  1  0  0  0  0
 22 23  2  0  0  0  0
 22 25  1  0  0  0  0
 23 24  1  0  0  0  0
 25 26  2  0  0  0  0
 26 27  1  0  0  0  0
M  END
>  <CHROM.1>
133.33994061,-166.47960123,-170.75808583,-7.82230473,-152.76423567,-172.83972682
63.40681297,39.75141734,23.79413886,12.75438317,-1.43587330,1.45168070,0.11983118

>  <Name>
ligand

>  <RI>
0

>  <Rbt.Current_Directory>
/home/itssahil/PROJECTS/Mol_Feturizer/New_Systems/rnas/3IQN

>  <Rbt.Executable>
rbdock ($Id: //depot/dev/client3/rdock/2013.1/src/exe/rbdock.cxx#4 $)

>  <Rbt.Library>
libRbt.so (2013.1, Build901 2013/11/27)

>  <Rbt.Parameter_File>
/export/apps/rDock/src/rDock_2013.1_src/data/scripts/dock_solv.prm

>  <Rbt.Receptor>
prm/blind_docking_60.prm

>  <SCORE>
0.267436

>  <SCORE.INTER>
-1.3488

>  <SCORE.INTER.CONST>
1

>  <SCORE.INTER.POLAR>
0

>  <SCORE.INTER.ROT>
7

>  <SCORE.INTER.SOLV>
11.0503

>  <SCORE.INTER.VDW>
-12.8493

>  <SCORE.INTER.norm>
-0.0499557

>  <SCORE.INTRA>
1.13901

>  <SCORE.INTRA.DIHEDRAL>
1.23801

>  <SCORE.INTRA.DIHEDRAL.0>
10.0365

>  <SCORE.INTRA.POLAR>
0

>  <SCORE.INTRA.POLAR.0>
0

>  <SCORE.INTRA.REPUL>
0

>  <SCORE.INTRA.REPUL.0>
0

>  <SCORE.INTRA.SOLV>
-0.817722

>  <SCORE.INTRA.SOLV.lig_0>
-48.6728

>  <SCORE.INTRA.VDW>
0.928866

>  <SCORE.INTRA.VDW.0>
-1.10662

>  <SCORE.INTRA.norm>
0.0421856

>  <SCORE.RESTR>
0.477229

>  <SCORE.RESTR.CAVITY>
0.477229

>  <SCORE.RESTR.norm>
0.0176751

>  <SCORE.SYSTEM>
0

>  <SCORE.SYSTEM.CONST>
0

>  <SCORE.SYSTEM.DIHEDRAL>
0

>  <SCORE.SYSTEM.SOLV>
0

>  <SCORE.SYSTEM.norm>
0

>  <SCORE.heavy>
27

>  <SCORE.norm>
0.00990503

>  <RMSD>
38.374

$$$$
ligand
 OpenBabel11021811483D
libRbt.so/2013.1/901 2013/11/27
 27 29  0  0  0  0  0  0  0  0999 V2000
   39.5086   18.4102    9.3092 N   0  0  0  0  0  0  0  0  0  0  0  0
   40.6498   18.4966   10.2297 C   0  0  2  0  0  0  0  0  0  0  0  0
   40.3345   17.6911   11.4541 C   0  0  0  0  0  0  0  0  0  0  0  0
   40.9335   16.6493   11.6690 O   0  0  0  0  0  0  0  0  0  0  0  0
   40.9024   19.9577   10.6305 C   0  0  0  0  0  0  0  0  0  0  0  0
   39.5727   20.6037   11.0082 C   0  0  0  0  0  0  0  0  0  0  0  0
   39.5825   21.3723   12.6595 S   0  0  2  0  0  0  0  0  0  0  0  0
   37.8238   21.5655   13.0839 C   0  0  0  0  0  0  0  0  0  0  0  0
   40.0306   23.1424   12.5507 C   0  0  0  0  0  0  0  0  0  0  0  0
   40.1950   23.5434   13.9961 C   0  0  1  0  0  0  0  0  0  0  0  0
   40.4075   24.9154   13.9390 O   0  0  0  0  0  0  0  0  0  0  0  0
   39.0395   23.4604   14.9947 C   0  0  1  0  0  0  0  0  0  0  0  0
   38.9872   22.2280   15.6544 O   0  0  0  0  0  0  0  0  0  0  0  0
   39.4520   24.6891   15.9385 C   0  0  1  0  0  0  0  0  0  0  0  0
   40.7760   24.6023   16.4854 O   0  0  0  0  0  0  0  0  0  0  0  0
   39.3365   25.5769   14.7208 C   0  0  1  0  0  0  0  0  0  0  0  0
   39.4894   18.0896   12.2401 O   0  0  0  0  0  0  0  0  0  0  0  0
   39.8142   28.2685   10.5023 N   0  0  0  0  0  0  0  0  0  0  0  0
   39.5762   26.9700   10.6939 C   0  0  0  0  0  0  0  0  0  0  0  0
   39.4317   26.4542   11.9139 N   0  0  0  0  0  0  0  0  0  0  0  0
   39.6447   27.1980   13.0077 C   0  0  0  0  0  0  0  0  0  0  0  0
   39.9688   28.5824   12.8435 C   0  0  0  0  0  0  0  0  0  0  0  0
   40.0359   29.0931   11.5180 C   0  0  0  0  0  0  0  0  0  0  0  0
   40.3218   30.4073   11.2756 N   0  0  0  0  0  0  0  0  0  0  0  0
   40.1370   29.0989   14.0764 N   0  0  0  0  0  0  0  0  0  0  0  0
   39.9506   28.1567   14.9744 C   0  0  0  0  0  0  0  0  0  0  0  0
   39.6277   26.9589   14.3854 N   0  0  0  0  0  0  0  0  0  0  0  0
  2  1  1  6  0  0  0
  2  3  1  0  0  0  0
  2  5  1  0  0  0  0
  3  4  1  0  0  0  0
  3 17  1  0  0  0  0
  5  6  1  0  0  0  0
  7  6  1  6  0  0  0
  7  8  1  0  0  0  0
  7  9  1  0  0  0  0
 10  9  1  6  0  0  0
 10 11  1  0  0  0  0
 10 12  1  0  0  0  0
 11 16  1  0  0  0  0
 12 13  1  1  0  0  0
 12 14  1  0  0  0  0
 14 15  1  6  0  0  0
 14 16  1  0  0  0  0
 16 27  1  1  0  0  0
 18 19  2  0  0  0  0
 18 23  1  0  0  0  0
 19 20  1  0  0  0  0
 20 21  2  0  0  0  0
 21 22  1  0  0  0  0
 21 27  1  0  0  0  0
 22 23  2  0  0  0  0
 22 25  1  0  0  0  0
 23 24  1  0  0  0  0
 25 26  2  0  0  0  0
 26 27  1  0  0  0  0
M  END
>  <CHROM.1>
110.16154688,46.59377011,125.97681439,-162.13477951,-171.58501496,-174.39856915
55.49910712,39.82349156,23.67811940,12.82707997,-1.44208713,1.49639932,0.03926587

>  <Name>
ligand

>  <RI>
0

>  <Rbt.Current_Directory>
/home/itssahil/PROJECTS/Mol_Feturizer/New_Systems/rnas/3IQN

>  <Rbt.Executable>
rbdock ($Id: //depot/dev/client3/rdock/2013.1/src/exe/rbdock.cxx#4 $)

>  <Rbt.Library>
libRbt.so (2013.1, Build901 2013/11/27)

>  <Rbt.Parameter_File>
/export/apps/rDock/src/rDock_2013.1_src/data/scripts/dock_solv.prm

>  <Rbt.Receptor>
prm/blind_docking_60.prm

>  <SCORE>
-0.441439

>  <SCORE.INTER>
-3.52501

>  <SCORE.INTER.CONST>
1

>  <SCORE.INTER.POLAR>
0

>  <SCORE.INTER.ROT>
7

>  <SCORE.INTER.SOLV>
11.5136

>  <SCORE.INTER.VDW>
-14.4546

>  <SCORE.INTER.norm>
-0.130556

>  <SCORE.INTRA>
2.99321

>  <SCORE.INTRA.DIHEDRAL>
1.47662

>  <SCORE.INTRA.DIHEDRAL.0>
10.0365

>  <SCORE.INTRA.POLAR>
0

>  <SCORE.INTRA.POLAR.0>
0

>  <SCORE.INTRA.REPUL>
0

>  <SCORE.INTRA.REPUL.0>
0

>  <SCORE.INTRA.SOLV>
0.234138

>  <SCORE.INTRA.SOLV.lig_0>
-48.6728

>  <SCORE.INTRA.VDW>
2.13784

>  <SCORE.INTRA.VDW.0>
-1.10662

>  <SCORE.INTRA.norm>
0.11086

>  <SCORE.RESTR>
0.0903574

>  <SCORE.RESTR.CAVITY>
0.0903574

>  <SCORE.RESTR.norm>
0.00334657

>  <SCORE.SYSTEM>
0

>  <SCORE.SYSTEM.CONST>
0

>  <SCORE.SYSTEM.DIHEDRAL>
0

>  <SCORE.SYSTEM.SOLV>
0

>  <SCORE.SYSTEM.norm>
0

>  <SCORE.heavy>
27

>  <SCORE.norm>
-0.0163496

>  <RMSD>
38.413

$$$$
ligand
 OpenBabel11021811483D
libRbt.so/2013.1/901 2013/11/27
 27 29  0  0  0  0  0  0  0  0999 V2000
   39.6550   18.1669    9.3329 N   0  0  0  0  0  0  0  0  0  0  0  0
   40.5590   18.3109   10.4815 C   0  0  2  0  0  0  0  0  0  0  0  0
   39.8654   17.7827   11.7010 C   0  0  0  0  0  0  0  0  0  0  0  0
   38.9585   16.9739   11.5838 O   0  0  0  0  0  0  0  0  0  0  0  0
   40.9164   19.7891   10.6969 C   0  0  0  0  0  0  0  0  0  0  0  0
   39.6366   20.5715   10.9765 C   0  0  0  0  0  0  0  0  0  0  0  0
   39.6028   21.3416   12.6267 S   0  0  2  0  0  0  0  0  0  0  0  0
   37.8351   21.5903   12.9787 C   0  0  0  0  0  0  0  0  0  0  0  0
   40.1103   23.0967   12.5364 C   0  0  0  0  0  0  0  0  0  0  0  0
   40.2410   23.4904   13.9872 C   0  0  1  0  0  0  0  0  0  0  0  0
   40.4633   24.8612   13.9415 O   0  0  0  0  0  0  0  0  0  0  0  0
   39.0606   23.4102   14.9563 C   0  0  1  0  0  0  0  0  0  0  0  0
   38.9842   22.1753   15.6090 O   0  0  0  0  0  0  0  0  0  0  0  0
   39.4569   24.6323   15.9156 C   0  0  1  0  0  0  0  0  0  0  0  0
   40.7663   24.5348   16.4949 O   0  0  0  0  0  0  0  0  0  0  0  0
   39.3772   25.5261   14.6994 C   0  0  1  0  0  0  0  0  0  0  0  0
   40.2219   18.1528   12.8085 O   0  0  0  0  0  0  0  0  0  0  0  0
   39.8613   28.2589   10.5082 N   0  0  0  0  0  0  0  0  0  0  0  0
   39.6066   26.9617   10.6868 C   0  0  0  0  0  0  0  0  0  0  0  0
   39.4640   26.4340   11.9019 N   0  0  0  0  0  0  0  0  0  0  0  0
   39.6953   27.1622   13.0025 C   0  0  0  0  0  0  0  0  0  0  0  0
   40.0375   28.5438   12.8516 C   0  0  0  0  0  0  0  0  0  0  0  0
   40.1019   29.0686   11.5315 C   0  0  0  0  0  0  0  0  0  0  0  0
   40.4043   30.3815   11.3019 N   0  0  0  0  0  0  0  0  0  0  0  0
   40.2219   29.0438   14.0890 N   0  0  0  0  0  0  0  0  0  0  0  0
   40.0290   28.0940   14.9776 C   0  0  0  0  0  0  0  0  0  0  0  0
   39.6852   26.9076   14.3775 N   0  0  0  0  0  0  0  0  0  0  0  0
  2  1  1  6  0  0  0
  2  3  1  0  0  0  0
  2  5  1  0  0  0  0
  3  4  1  0  0  0  0
  3 17  1  0  0  0  0
  5  6  1  0  0  0  0
  7  6  1  6  0  0  0
  7  8  1  0  0  0  0
  7  9  1  0  0  0  0
 10  9  1  6  0  0  0
 10 11  1  0  0  0  0
 10 12  1  0  0  0  0
 11 16  1  0  0  0  0
 12 13  1  1  0  0  0
 12 14  1  0  0  0  0
 14 15  1  6  0  0  0
 14 16  1  0  0  0  0
 16 27  1  1  0  0  0
 18 19  2  0  0  0  0
 18 23  1  0  0  0  0
 19 20  1  0  0  0  0
 20 21  2  0  0  0  0
 21 22  1  0  0  0  0
 21 27  1  0  0  0  0
 22 23  2  0  0  0  0
 22 25  1  0  0  0  0
 23 24  1  0  0  0  0
 25 26  2  0  0  0  0
 26 27  1  0  0  0  0
M  END
>  <CHROM.1>
23.21619937,60.62043553,117.49431052,-157.52061459,-171.04589294,-172.86678608
57.44504581,39.79361914,23.64627158,12.85458149,-1.98850380,1.50357335,0.57100405

>  <Name>
ligand

>  <RI>
0

>  <Rbt.Current_Directory>
/home/itssahil/PROJECTS/Mol_Feturizer/New_Systems/rnas/3IQN

>  <Rbt.Executable>
rbdock ($Id: //depot/dev/client3/rdock/2013.1/src/exe/rbdock.cxx#4 $)

>  <Rbt.Library>
libRbt.so (2013.1, Build901 2013/11/27)

>  <Rbt.Parameter_File>
/export/apps/rDock/src/rDock_2013.1_src/data/scripts/dock_solv.prm

>  <Rbt.Receptor>
prm/blind_docking_60.prm

>  <SCORE>
-0.400049

>  <SCORE.INTER>
-3.11354

>  <SCORE.INTER.CONST>
1

>  <SCORE.INTER.POLAR>
0

>  <SCORE.INTER.ROT>
7

>  <SCORE.INTER.SOLV>
11.6189

>  <SCORE.INTER.VDW>
-14.2153

>  <SCORE.INTER.norm>
-0.115316

>  <SCORE.INTRA>
2.61319

>  <SCORE.INTRA.DIHEDRAL>
1.48749

>  <SCORE.INTRA.DIHEDRAL.0>
10.0365

>  <SCORE.INTRA.POLAR>
0

>  <SCORE.INTRA.POLAR.0>
0

>  <SCORE.INTRA.REPUL>
0

>  <SCORE.INTRA.REPUL.0>
0

>  <SCORE.INTRA.SOLV>
0.0827177

>  <SCORE.INTRA.SOLV.lig_0>
-48.6728

>  <SCORE.INTRA.VDW>
1.82809

>  <SCORE.INTRA.VDW.0>
-1.10662

>  <SCORE.INTRA.norm>
0.0967848

>  <SCORE.RESTR>
0.100301

>  <SCORE.RESTR.CAVITY>
0.100301

>  <SCORE.RESTR.norm>
0.00371484

>  <SCORE.SYSTEM>
0

>  <SCORE.SYSTEM.CONST>
0

>  <SCORE.SYSTEM.DIHEDRAL>
0

>  <SCORE.SYSTEM.SOLV>
0

>  <SCORE.SYSTEM.norm>
0

>  <SCORE.heavy>
27

>  <SCORE.norm>
-0.0148166

>  <RMSD>
38.432

$$$$
ligand
 OpenBabel11021811483D
libRbt.so/2013.1/901 2013/11/27
 27 29  0  0  0  0  0  0  0  0999 V2000
   39.9982   17.7007   11.0740 N   0  0  0  0  0  0  0  0  0  0  0  0
   39.4329   18.8806   10.4065 C   0  0  2  0  0  0  0  0  0  0  0  0
   39.9960   18.9568    9.0192 C   0  0  0  0  0  0  0  0  0  0  0  0
   40.4457   17.9537    8.4884 O   0  0  0  0  0  0  0  0  0  0  0  0
   39.8004   20.1571   11.1779 C   0  0  0  0  0  0  0  0  0  0  0  0
   39.4983   19.9444   12.6583 C   0  0  0  0  0  0  0  0  0  0  0  0
   39.0652   21.4792   13.5383 S   0  0  2  0  0  0  0  0  0  0  0  0
   37.6264   22.1324   12.6363 C   0  0  0  0  0  0  0  0  0  0  0  0
   40.2566   22.8113   13.1484 C   0  0  0  0  0  0  0  0  0  0  0  0
   40.2768   23.6336   14.4135 C   0  0  1  0  0  0  0  0  0  0  0  0
   40.8179   24.8488   14.0121 O   0  0  0  0  0  0  0  0  0  0  0  0
   38.9897   24.0911   15.1012 C   0  0  1  0  0  0  0  0  0  0  0  0
   38.5382   23.1769   16.0589 O   0  0  0  0  0  0  0  0  0  0  0  0
   39.5265   25.4705   15.7173 C   0  0  1  0  0  0  0  0  0  0  0  0
   40.6852   25.3387   16.5538 O   0  0  0  0  0  0  0  0  0  0  0  0
   39.8248   25.9097   14.3022 C   0  0  1  0  0  0  0  0  0  0  0  0
   39.9878   20.0205    8.4199 O   0  0  0  0  0  0  0  0  0  0  0  0
   40.0427   27.8168    9.6564 N   0  0  0  0  0  0  0  0  0  0  0  0
   39.4163   26.7412   10.1362 C   0  0  0  0  0  0  0  0  0  0  0  0
   39.4423   26.4322   11.4320 N   0  0  0  0  0  0  0  0  0  0  0  0
   40.2051   27.1213   12.2911 C   0  0  0  0  0  0  0  0  0  0  0  0
   40.9468   28.2436   11.8021 C   0  0  0  0  0  0  0  0  0  0  0  0
   40.8206   28.5696   10.4237 C   0  0  0  0  0  0  0  0  0  0  0  0
   41.4811   29.6362    9.8816 N   0  0  0  0  0  0  0  0  0  0  0  0
   41.6267   28.7548   12.8469 N   0  0  0  0  0  0  0  0  0  0  0  0
   41.3719   28.0450   13.9239 C   0  0  0  0  0  0  0  0  0  0  0  0
   40.4884   27.0280   13.6574 N   0  0  0  0  0  0  0  0  0  0  0  0
  2  1  1  1  0  0  0
  2  3  1  0  0  0  0
  2  5  1  0  0  0  0
  3  4  1  0  0  0  0
  3 17  1  0  0  0  0
  5  6  1  0  0  0  0
  7  6  1  6  0  0  0
  7  8  1  0  0  0  0
  7  9  1  0  0  0  0
 10  9  1  6  0  0  0
 10 11  1  0  0  0  0
 10 12  1  0  0  0  0
 11 16  1  0  0  0  0
 12 13  1  1  0  0  0
 12 14  1  0  0  0  0
 14 15  1  1  0  0  0
 14 16  1  0  0  0  0
 16 27  1  1  0  0  0
 18 19  2  0  0  0  0
 18 23  1  0  0  0  0
 19 20  1  0  0  0  0
 20 21  2  0  0  0  0
 21 22  1  0  0  0  0
 21 27  1  0  0  0  0
 22 23  2  0  0  0  0
 22 25  1  0  0  0  0
 23 24  1  0  0  0  0
 25 26  2  0  0  0  0
 26 27  1  0  0  0  0
M  END
>  <CHROM.1>
21.95192626,-48.38319514,-150.71846754,57.69592587,-149.01369967,-161.70198585
85.58313782,39.96559158,23.87285510,12.40320108,2.16769749,-1.37574287,-2.32225935

>  <Name>
ligand

>  <RI>
0

>  <Rbt.Current_Directory>
/home/itssahil/PROJECTS/Mol_Feturizer/New_Systems/rnas/3IQN

>  <Rbt.Executable>
rbdock ($Id: //depot/dev/client3/rdock/2013.1/src/exe/rbdock.cxx#4 $)

>  <Rbt.Library>
libRbt.so (2013.1, Build901 2013/11/27)

>  <Rbt.Parameter_File>
/export/apps/rDock/src/rDock_2013.1_src/data/scripts/dock_solv.prm

>  <Rbt.Receptor>
prm/blind_docking_60.prm

>  <SCORE>
-0.88514

>  <SCORE.INTER>
-2.83795

>  <SCORE.INTER.CONST>
1

>  <SCORE.INTER.POLAR>
0

>  <SCORE.INTER.ROT>
7

>  <SCORE.INTER.SOLV>
13.1606

>  <SCORE.INTER.VDW>
-14.5455

>  <SCORE.INTER.norm>
-0.105109

>  <SCORE.INTRA>
0.402339

>  <SCORE.INTRA.DIHEDRAL>
0.313762

>  <SCORE.INTRA.DIHEDRAL.0>
10.0365

>  <SCORE.INTRA.POLAR>
0

>  <SCORE.INTRA.POLAR.0>
0

>  <SCORE.INTRA.REPUL>
0

>  <SCORE.INTRA.REPUL.0>
0

>  <SCORE.INTRA.SOLV>
-0.00532919

>  <SCORE.INTRA.SOLV.lig_0>
-48.6728

>  <SCORE.INTRA.VDW>
0.248123

>  <SCORE.INTRA.VDW.0>
-1.10662

>  <SCORE.INTRA.norm>
0.0149015

>  <SCORE.RESTR>
1.55047

>  <SCORE.RESTR.CAVITY>
1.55047

>  <SCORE.RESTR.norm>
0.0574249

>  <SCORE.SYSTEM>
0

>  <SCORE.SYSTEM.CONST>
0

>  <SCORE.SYSTEM.DIHEDRAL>
0

>  <SCORE.SYSTEM.SOLV>
0

>  <SCORE.SYSTEM.norm>
0

>  <SCORE.heavy>
27

>  <SCORE.norm>
-0.032783

>  <RMSD>
38.442

$$$$
ligand
 OpenBabel11021811483D
libRbt.so/2013.1/901 2013/11/27
 27 29  0  0  0  0  0  0  0  0999 V2000
   41.3142   17.5622   10.6279 N   0  0  0  0  0  0  0  0  0  0  0  0
   40.4543   18.2371   11.6090 C   0  0  2  0  0  0  0  0  0  0  0  0
   39.6964   17.1937   12.3734 C   0  0  0  0  0  0  0  0  0  0  0  0
   39.3124   16.1826   11.8073 O   0  0  0  0  0  0  0  0  0  0  0  0
   39.4630   19.1697   10.8971 C   0  0  0  0  0  0  0  0  0  0  0  0
   39.9901   20.5998   10.9696 C   0  0  0  0  0  0  0  0  0  0  0  0
   39.8042   21.3590   12.6147 S   0  0  2  0  0  0  0  0  0  0  0  0
   38.0081   21.3896   12.9035 C   0  0  0  0  0  0  0  0  0  0  0  0
   40.0964   23.1630   12.5357 C   0  0  0  0  0  0  0  0  0  0  0  0
   40.2061   23.5560   13.9884 C   0  0  1  0  0  0  0  0  0  0  0  0
   40.4228   24.9279   13.9468 O   0  0  0  0  0  0  0  0  0  0  0  0
   39.0134   23.4698   14.9418 C   0  0  1  0  0  0  0  0  0  0  0  0
   38.9340   22.2340   15.5924 O   0  0  0  0  0  0  0  0  0  0  0  0
   39.3916   24.6927   15.9072 C   0  0  1  0  0  0  0  0  0  0  0  0
   40.6936   24.6007   16.5037 O   0  0  0  0  0  0  0  0  0  0  0  0
   39.3239   25.5872   14.6908 C   0  0  1  0  0  0  0  0  0  0  0  0
   39.4800   17.3534   13.5644 O   0  0  0  0  0  0  0  0  0  0  0  0
   39.8560   28.3247   10.5085 N   0  0  0  0  0  0  0  0  0  0  0  0
   39.6050   27.0262   10.6827 C   0  0  0  0  0  0  0  0  0  0  0  0
   39.4471   26.4972   11.8954 N   0  0  0  0  0  0  0  0  0  0  0  0
   39.6588   27.2258   12.9995 C   0  0  0  0  0  0  0  0  0  0  0  0
   39.9965   28.6091   12.8543 C   0  0  0  0  0  0  0  0  0  0  0  0
   40.0777   29.1350   11.5356 C   0  0  0  0  0  0  0  0  0  0  0  0
   40.3770   30.4494   11.3111 N   0  0  0  0  0  0  0  0  0  0  0  0
   40.1604   29.1093   14.0946 N   0  0  0  0  0  0  0  0  0  0  0  0
   39.9592   28.1581   14.9798 C   0  0  0  0  0  0  0  0  0  0  0  0
   39.6298   26.9704   14.3742 N   0  0  0  0  0  0  0  0  0  0  0  0
  2  1  1  6  0  0  0
  2  3  1  0  0  0  0
  2  5  1  0  0  0  0
  3  4  1  0  0  0  0
  3 17  1  0  0  0  0
  5  6  1  0  0  0  0
  7  6  1  6  0  0  0
  7  8  1  0  0  0  0
  7  9  1  0  0  0  0
 10  9  1  6  0  0  0
 10 11  1  0  0  0  0
 10 12  1  0  0  0  0
 11 16  1  0  0  0  0
 12 13  1  1  0  0  0
 12 14  1  0  0  0  0
 14 15  1  6  0  0  0
 14 16  1  0  0  0  0
 16 27  1  1  0  0  0
 18 19  2  0  0  0  0
 18 23  1  0  0  0  0
 19 20  1  0  0  0  0
 20 21  2  0  0  0  0
 21 22  1  0  0  0  0
 21 27  1  0  0  0  0
 22 23  2  0  0  0  0
 22 25  1  0  0  0  0
 23 24  1  0  0  0  0
 25 26  2  0  0  0  0
 26 27  1  0  0  0  0
M  END
>  <CHROM.1>
-36.08680727,-99.57687061,-74.71680161,-61.92715507,-167.90642405,-179.74539868
57.36050680,39.78705814,23.55133024,13.00165003,-1.76216554,1.48366542,0.27538736

>  <Name>
ligand

>  <RI>
0

>  <Rbt.Current_Directory>
/home/itssahil/PROJECTS/Mol_Feturizer/New_Systems/rnas/3IQN

>  <Rbt.Executable>
rbdock ($Id: //depot/dev/client3/rdock/2013.1/src/exe/rbdock.cxx#4 $)

>  <Rbt.Library>
libRbt.so (2013.1, Build901 2013/11/27)

>  <Rbt.Parameter_File>
/export/apps/rDock/src/rDock_2013.1_src/data/scripts/dock_solv.prm

>  <Rbt.Receptor>
prm/blind_docking_60.prm

>  <SCORE>
-2.87484

>  <SCORE.INTER>
-2.01902

>  <SCORE.INTER.CONST>
1

>  <SCORE.INTER.POLAR>
0

>  <SCORE.INTER.ROT>
7

>  <SCORE.INTER.SOLV>
15.7036

>  <SCORE.INTER.VDW>
-14.8472

>  <SCORE.INTER.norm>
-0.0747785

>  <SCORE.INTRA>
-0.864743

>  <SCORE.INTRA.DIHEDRAL>
-0.851104

>  <SCORE.INTRA.DIHEDRAL.0>
10.0365

>  <SCORE.INTRA.POLAR>
0

>  <SCORE.INTRA.POLAR.0>
0

>  <SCORE.INTRA.REPUL>
0

>  <SCORE.INTRA.REPUL.0>
0

>  <SCORE.INTRA.SOLV>
-0.265261

>  <SCORE.INTRA.SOLV.lig_0>
-48.6728

>  <SCORE.INTRA.VDW>
-0.30656

>  <SCORE.INTRA.VDW.0>
-1.10662

>  <SCORE.INTRA.norm>
-0.0320275

>  <SCORE.RESTR>
0.00892596

>  <SCORE.RESTR.CAVITY>
0.00892596

>  <SCORE.RESTR.norm>
0.000330591

>  <SCORE.SYSTEM>
0

>  <SCORE.SYSTEM.CONST>
0

>  <SCORE.SYSTEM.DIHEDRAL>
0

>  <SCORE.SYSTEM.SOLV>
0

>  <SCORE.SYSTEM.norm>
0

>  <SCORE.heavy>
27

>  <SCORE.norm>
-0.106475

>  <RMSD>
38.469

$$$$
ligand
 OpenBabel11021811483D
libRbt.so/2013.1/901 2013/11/27
 27 29  0  0  0  0  0  0  0  0999 V2000
   39.4554   17.1249   10.5260 N   0  0  0  0  0  0  0  0  0  0  0  0
   39.9455   17.1011   11.9104 C   0  0  2  0  0  0  0  0  0  0  0  0
   39.6530   15.7518   12.4946 C   0  0  0  0  0  0  0  0  0  0  0  0
   40.5379   14.9140   12.5657 O   0  0  0  0  0  0  0  0  0  0  0  0
   39.2416   18.1823   12.7440 C   0  0  0  0  0  0  0  0  0  0  0  0
   39.6942   19.5555   12.2562 C   0  0  0  0  0  0  0  0  0  0  0  0
   39.2123   20.9154   13.3678 S   0  0  2  0  0  0  0  0  0  0  0  0
   37.4774   21.2606   12.9421 C   0  0  0  0  0  0  0  0  0  0  0  0
   39.9463   22.4976   12.8165 C   0  0  0  0  0  0  0  0  0  0  0  0
   40.0729   23.2817   14.0996 C   0  0  1  0  0  0  0  0  0  0  0  0
   40.6314   24.4891   13.6982 O   0  0  0  0  0  0  0  0  0  0  0  0
   38.8472   23.7625   14.8777 C   0  0  1  0  0  0  0  0  0  0  0  0
   38.4226   22.8368   15.8367 O   0  0  0  0  0  0  0  0  0  0  0  0
   39.4694   25.1045   15.4963 C   0  0  1  0  0  0  0  0  0  0  0  0
   40.6714   24.9093   16.2555 O   0  0  0  0  0  0  0  0  0  0  0  0
   39.6963   25.5741   14.0777 C   0  0  1  0  0  0  0  0  0  0  0  0
   38.5329   15.5024   12.9116 O   0  0  0  0  0  0  0  0  0  0  0  0
   38.6350   30.4005   13.1566 N   0  0  0  0  0  0  0  0  0  0  0  0
   37.9208   29.4410   13.7469 C   0  0  0  0  0  0  0  0  0  0  0  0
   38.4124   28.2182   13.9429 N   0  0  0  0  0  0  0  0  0  0  0  0
   39.6031   27.8640   13.4412 C   0  0  0  0  0  0  0  0  0  0  0  0
   40.3727   28.8474   12.7417 C   0  0  0  0  0  0  0  0  0  0  0  0
   39.8277   30.1561   12.6289 C   0  0  0  0  0  0  0  0  0  0  0  0
   40.5064   31.1569   11.9922 N   0  0  0  0  0  0  0  0  0  0  0  0
   41.5096   28.2475   12.3383 N   0  0  0  0  0  0  0  0  0  0  0  0
   41.5006   26.9901   12.7226 C   0  0  0  0  0  0  0  0  0  0  0  0
   40.3589   26.6875   13.4233 N   0  0  0  0  0  0  0  0  0  0  0  0
  2  1  1  6  0  0  0
  2  3  1  0  0  0  0
  2  5  1  0  0  0  0
  3  4  1  0  0  0  0
  3 17  1  0  0  0  0
  5  6  1  0  0  0  0
  7  6  1  6  0  0  0
  7  8  1  0  0  0  0
  7  9  1  0  0  0  0
 10  9  1  6  0  0  0
 10 11  1  0  0  0  0
 10 12  1  0  0  0  0
 11 16  1  0  0  0  0
 12 13  1  1  0  0  0
 12 14  1  0  0  0  0
 14 15  1  1  0  0  0
 14 16  1  0  0  0  0
 16 27  1  1  0  0  0
 18 19  2  0  0  0  0
 18 23  1  0  0  0  0
 19 20  1  0  0  0  0
 20 21  2  0  0  0  0
 21 22  1  0  0  0  0
 21 27  1  0  0  0  0
 22 23  2  0  0  0  0
 22 25  1  0  0  0  0
 23 24  1  0  0  0  0
 25 26  2  0  0  0  0
 26 27  1  0  0  0  0
M  END
>  <CHROM.1>
100.50192662,-68.19992164,-168.05849562,-81.10418749,-152.04701891,179.94327026
171.57279368,39.60820613,23.43780462,13.32356596,-1.65023584,1.17785150,0.14068813

>  <Name>
ligand

>  <RI>
0

>  <Rbt.Current_Directory>
/home/itssahil/PROJECTS/Mol_Feturizer/New_Systems/rnas/3IQN

>  <Rbt.Executable>
rbdock ($Id: //depot/dev/client3/rdock/2013.1/src/exe/rbdock.cxx#4 $)

>  <Rbt.Library>
libRbt.so (2013.1, Build901 2013/11/27)

>  <Rbt.Parameter_File>
/export/apps/rDock/src/rDock_2013.1_src/data/scripts/dock_solv.prm

>  <Rbt.Receptor>
prm/blind_docking_60.prm

>  <SCORE>
-1.51893

>  <SCORE.INTER>
0.312448

>  <SCORE.INTER.CONST>
1

>  <SCORE.INTER.POLAR>
0

>  <SCORE.INTER.ROT>
7

>  <SCORE.INTER.SOLV>
12.0457

>  <SCORE.INTER.VDW>
-12.0736

>  <SCORE.INTER.norm>
0.0115721

>  <SCORE.INTRA>
-2.4346

>  <SCORE.INTRA.DIHEDRAL>
-2.90299

>  <SCORE.INTRA.DIHEDRAL.0>
10.0365

>  <SCORE.INTRA.POLAR>
0

>  <SCORE.INTRA.POLAR.0>
0

>  <SCORE.INTRA.REPUL>
0

>  <SCORE.INTRA.REPUL.0>
0

>  <SCORE.INTRA.SOLV>
-0.28297

>  <SCORE.INTRA.SOLV.lig_0>
-48.6728

>  <SCORE.INTRA.VDW>
-0.84162

>  <SCORE.INTRA.VDW.0>
-1.10662

>  <SCORE.INTRA.norm>
-0.0901704

>  <SCORE.RESTR>
0.60322

>  <SCORE.RESTR.CAVITY>
0.60322

>  <SCORE.RESTR.norm>
0.0223415

>  <SCORE.SYSTEM>
0

>  <SCORE.SYSTEM.CONST>
0

>  <SCORE.SYSTEM.DIHEDRAL>
0

>  <SCORE.SYSTEM.SOLV>
0

>  <SCORE.SYSTEM.norm>
0

>  <SCORE.heavy>
27

>  <SCORE.norm>
-0.0562567

>  <RMSD>
38.492

$$$$
ligand
 OpenBabel11021811483D
libRbt.so/2013.1/901 2013/11/27
 27 29  0  0  0  0  0  0  0  0999 V2000
   39.3957   18.3306    9.6049 N   0  0  0  0  0  0  0  0  0  0  0  0
   40.5893   18.4615   10.4506 C   0  0  2  0  0  0  0  0  0  0  0  0
   40.9441   17.1064   10.9846 C   0  0  0  0  0  0  0  0  0  0  0  0
   40.2589   16.5969   11.8571 O   0  0  0  0  0  0  0  0  0  0  0  0
   40.3111   19.4154   11.6219 C   0  0  0  0  0  0  0  0  0  0  0  0
   40.0511   20.8139   11.0697 C   0  0  0  0  0  0  0  0  0  0  0  0
   39.5758   22.0218   12.3474 S   0  0  2  0  0  0  0  0  0  0  0  0
   38.8294   23.3978   11.4201 C   0  0  0  0  0  0  0  0  0  0  0  0
   41.0459   22.8972   12.9942 C   0  0  0  0  0  0  0  0  0  0  0  0
   40.6069   23.3326   14.3708 C   0  0  1  0  0  0  0  0  0  0  0  0
   40.7511   24.7143   14.3448 O   0  0  0  0  0  0  0  0  0  0  0  0
   39.1581   23.1912   14.8399 C   0  0  1  0  0  0  0  0  0  0  0  0
   38.9165   21.9694   15.4768 O   0  0  0  0  0  0  0  0  0  0  0  0
   39.0999   24.4601   15.8182 C   0  0  1  0  0  0  0  0  0  0  0  0
   40.1048   24.4693   16.8428 O   0  0  0  0  0  0  0  0  0  0  0  0
   39.4253   25.3177   14.6170 C   0  0  1  0  0  0  0  0  0  0  0  0
   41.9093   16.5109   10.5324 O   0  0  0  0  0  0  0  0  0  0  0  0
   39.8977   28.2650   10.5724 N   0  0  0  0  0  0  0  0  0  0  0  0
   39.6251   26.9641   10.6846 C   0  0  0  0  0  0  0  0  0  0  0  0
   39.4900   26.3738   11.8714 N   0  0  0  0  0  0  0  0  0  0  0  0
   39.7469   27.0380   13.0062 C   0  0  0  0  0  0  0  0  0  0  0  0
   40.1087   28.4204   12.9250 C   0  0  0  0  0  0  0  0  0  0  0  0
   40.1642   29.0147   11.6343 C   0  0  0  0  0  0  0  0  0  0  0  0
   40.4840   30.3333   11.4714 N   0  0  0  0  0  0  0  0  0  0  0  0
   40.3169   28.8502   14.1849 N   0  0  0  0  0  0  0  0  0  0  0  0
   40.1207   27.8569   15.0238 C   0  0  0  0  0  0  0  0  0  0  0  0
   39.7506   26.7098   14.3656 N   0  0  0  0  0  0  0  0  0  0  0  0
  2  1  1  6  0  0  0
  2  3  1  0  0  0  0
  2  5  1  0  0  0  0
  3  4  1  0  0  0  0
  3 17  1  0  0  0  0
  5  6  1  0  0  0  0
  7  6  1  6  0  0  0
  7  8  1  0  0  0  0
  7  9  1  0  0  0  0
 10  9  1  6  0  0  0
 10 11  1  0  0  0  0
 10 12  1  0  0  0  0
 11 16  1  0  0  0  0
 12 13  1  1  0  0  0
 12 14  1  0  0  0  0
 14 15  1  1  0  0  0
 14 16  1  0  0  0  0
 16 27  1  1  0  0  0
 18 19  2  0  0  0  0
 18 23  1  0  0  0  0
 19 20  1  0  0  0  0
 20 21  2  0  0  0  0
 21 22  1  0  0  0  0
 21 27  1  0  0  0  0
 22 23  2  0  0  0  0
 22 25  1  0  0  0  0
 23 24  1  0  0  0  0
 25 26  2  0  0  0  0
 26 27  1  0  0  0  0
M  END
>  <CHROM.1>
-73.02875545,-64.80485232,175.43071431,-162.65327621,-155.22710061,-121.80691354
80.95465234,40.01081456,23.59058216,12.77471874,-0.96958108,1.48757491,-0.40393362

>  <Name>
ligand

>  <RI>
0

>  <Rbt.Current_Directory>
/home/itssahil/PROJECTS/Mol_Feturizer/New_Systems/rnas/3IQN

>  <Rbt.Executable>
rbdock ($Id: //depot/dev/client3/rdock/2013.1/src/exe/rbdock.cxx#4 $)

>  <Rbt.Library>
libRbt.so (2013.1, Build901 2013/11/27)

>  <Rbt.Parameter_File>
/export/apps/rDock/src/rDock_2013.1_src/data/scripts/dock_solv.prm

>  <Rbt.Receptor>
prm/blind_docking_60.prm

>  <SCORE>
-2.13773

>  <SCORE.INTER>
-4.95921

>  <SCORE.INTER.CONST>
1

>  <SCORE.INTER.POLAR>
0

>  <SCORE.INTER.ROT>
7

>  <SCORE.INTER.SOLV>
13.0167

>  <SCORE.INTER.VDW>
-15.9117

>  <SCORE.INTER.norm>
-0.183675

>  <SCORE.INTRA>
1.27418

>  <SCORE.INTRA.DIHEDRAL>
2.04467

>  <SCORE.INTRA.DIHEDRAL.0>
10.0365

>  <SCORE.INTRA.POLAR>
0

>  <SCORE.INTRA.POLAR.0>
0

>  <SCORE.INTRA.REPUL>
0

>  <SCORE.INTRA.REPUL.0>
0

>  <SCORE.INTRA.SOLV>
-0.119377

>  <SCORE.INTRA.SOLV.lig_0>
-48.6728

>  <SCORE.INTRA.VDW>
0.311533

>  <SCORE.INTRA.VDW.0>
-1.10662

>  <SCORE.INTRA.norm>
0.0471918

>  <SCORE.RESTR>
1.5473

>  <SCORE.RESTR.CAVITY>
1.5473

>  <SCORE.RESTR.norm>
0.0573075

>  <SCORE.SYSTEM>
0

>  <SCORE.SYSTEM.CONST>
0

>  <SCORE.SYSTEM.DIHEDRAL>
0

>  <SCORE.SYSTEM.SOLV>
0

>  <SCORE.SYSTEM.norm>
0

>  <SCORE.heavy>
27

>  <SCORE.norm>
-0.0791753

>  <RMSD>
38.505

$$$$
ligand
 OpenBabel11021811483D
libRbt.so/2013.1/901 2013/11/27
 27 29  0  0  0  0  0  0  0  0999 V2000
   40.0372   16.9126    9.9932 N   0  0  0  0  0  0  0  0  0  0  0  0
   40.4418   17.6637   11.1888 C   0  0  2  0  0  0  0  0  0  0  0  0
   40.2387   16.7899   12.3899 C   0  0  0  0  0  0  0  0  0  0  0  0
   40.1912   15.5770   12.2599 O   0  0  0  0  0  0  0  0  0  0  0  0
   39.5924   18.9354   11.3327 C   0  0  0  0  0  0  0  0  0  0  0  0
   40.5057   20.1008   11.7015 C   0  0  0  0  0  0  0  0  0  0  0  0
   39.6133   21.5331   12.3867 S   0  0  2  0  0  0  0  0  0  0  0  0
   38.6663   22.1962   10.9818 C   0  0  0  0  0  0  0  0  0  0  0  0
   40.7472   22.9460   12.6398 C   0  0  0  0  0  0  0  0  0  0  0  0
   40.5387   23.2963   14.0927 C   0  0  1  0  0  0  0  0  0  0  0  0
   40.6981   24.6761   14.1287 O   0  0  0  0  0  0  0  0  0  0  0  0
   39.1806   23.1335   14.7769 C   0  0  1  0  0  0  0  0  0  0  0  0
   39.0244   21.8753   15.3681 O   0  0  0  0  0  0  0  0  0  0  0  0
   39.2977   24.3387   15.8279 C   0  0  1  0  0  0  0  0  0  0  0  0
   40.4523   24.2780   16.6780 O   0  0  0  0  0  0  0  0  0  0  0  0
   39.4416   25.2683   14.6449 C   0  0  1  0  0  0  0  0  0  0  0  0
   40.1372   17.2956   13.4966 O   0  0  0  0  0  0  0  0  0  0  0  0
   39.8861   28.3245   10.6787 N   0  0  0  0  0  0  0  0  0  0  0  0
   39.6354   27.0167   10.7565 C   0  0  0  0  0  0  0  0  0  0  0  0
   39.5037   26.3944   11.9272 N   0  0  0  0  0  0  0  0  0  0  0  0
   39.7426   27.0340   13.0799 C   0  0  0  0  0  0  0  0  0  0  0  0
   40.0809   28.4241   13.0358 C   0  0  0  0  0  0  0  0  0  0  0  0
   40.1335   29.0516   11.7608 C   0  0  0  0  0  0  0  0  0  0  0  0
   40.4314   30.3792   11.6331 N   0  0  0  0  0  0  0  0  0  0  0  0
   40.2744   28.8253   14.3073 N   0  0  0  0  0  0  0  0  0  0  0  0
   40.0907   27.8079   15.1197 C   0  0  0  0  0  0  0  0  0  0  0  0
   39.7442   26.6717   14.4306 N   0  0  0  0  0  0  0  0  0  0  0  0
  2  1  1  6  0  0  0
  2  3  1  0  0  0  0
  2  5  1  0  0  0  0
  3  4  1  0  0  0  0
  3 17  1  0  0  0  0
  5  6  1  0  0  0  0
  7  6  1  6  0  0  0
  7  8  1  0  0  0  0
  7  9  1  0  0  0  0
 10  9  1  6  0  0  0
 10 11  1  0  0  0  0
 10 12  1  0  0  0  0
 11 16  1  0  0  0  0
 12 13  1  1  0  0  0
 12 14  1  0  0  0  0
 14 15  1  1  0  0  0
 14 16  1  0  0  0  0
 16 27  1  1  0  0  0
 18 19  2  0  0  0  0
 18 23  1  0  0  0  0
 19 20  1  0  0  0  0
 20 21  2  0  0  0  0
 21 22  1  0  0  0  0
 21 27  1  0  0  0  0
 22 23  2  0  0  0  0
 22 25  1  0  0  0  0
 23 24  1  0  0  0  0
 25 26  2  0  0  0  0
 26 27  1  0  0  0  0
M  END
>  <CHROM.1>
21.72035448,-136.13986694,-162.62241565,-68.88618195,-125.74952401,-146.37760911
71.10431610,39.92438479,23.34760669,12.98333415,-1.15366467,1.56662440,-0.31405450

>  <Name>
ligand

>  <RI>
0

>  <Rbt.Current_Directory>
/home/itssahil/PROJECTS/Mol_Feturizer/New_Systems/rnas/3IQN

>  <Rbt.Executable>
rbdock ($Id: //depot/dev/client3/rdock/2013.1/src/exe/rbdock.cxx#4 $)

>  <Rbt.Library>
libRbt.so (2013.1, Build901 2013/11/27)

>  <Rbt.Parameter_File>
/export/apps/rDock/src/rDock_2013.1_src/data/scripts/dock_solv.prm

>  <Rbt.Receptor>
prm/blind_docking_60.prm

>  <SCORE>
-0.340084

>  <SCORE.INTER>
-3.98203

>  <SCORE.INTER.CONST>
1

>  <SCORE.INTER.POLAR>
0

>  <SCORE.INTER.ROT>
7

>  <SCORE.INTER.SOLV>
13.2009

>  <SCORE.INTER.VDW>
-15.3217

>  <SCORE.INTER.norm>
-0.147483

>  <SCORE.INTRA>
2.7266

>  <SCORE.INTRA.DIHEDRAL>
6.52742

>  <SCORE.INTRA.DIHEDRAL.0>
10.0365

>  <SCORE.INTRA.POLAR>
0

>  <SCORE.INTRA.POLAR.0>
0

>  <SCORE.INTRA.REPUL>
0

>  <SCORE.INTRA.REPUL.0>
0

>  <SCORE.INTRA.SOLV>
-0.721423

>  <SCORE.INTRA.SOLV.lig_0>
-48.6728

>  <SCORE.INTRA.VDW>
-0.176401

>  <SCORE.INTRA.VDW.0>
-1.10662

>  <SCORE.INTRA.norm>
0.100985

>  <SCORE.RESTR>
0.915354

>  <SCORE.RESTR.CAVITY>
0.915354

>  <SCORE.RESTR.norm>
0.033902

>  <SCORE.SYSTEM>
0

>  <SCORE.SYSTEM.CONST>
0

>  <SCORE.SYSTEM.DIHEDRAL>
0

>  <SCORE.SYSTEM.SOLV>
0

>  <SCORE.SYSTEM.norm>
0

>  <SCORE.heavy>
27

>  <SCORE.norm>
-0.0125957

>  <RMSD>
38.637

$$$$
ligand
 OpenBabel11021811483D
libRbt.so/2013.1/901 2013/11/27
 27 29  0  0  0  0  0  0  0  0999 V2000
   41.1009   16.9009   10.7851 N   0  0  0  0  0  0  0  0  0  0  0  0
   40.4702   17.9510   11.5954 C   0  0  2  0  0  0  0  0  0  0  0  0
   39.6756   17.2969   12.6854 C   0  0  0  0  0  0  0  0  0  0  0  0
   40.1638   17.1575   13.7956 O   0  0  0  0  0  0  0  0  0  0  0  0
   39.5370   18.8072   10.7262 C   0  0  0  0  0  0  0  0  0  0  0  0
   39.5866   20.2500   11.2203 C   0  0  0  0  0  0  0  0  0  0  0  0
   38.8201   20.4836   12.8559 S   0  0  2  0  0  0  0  0  0  0  0  0
   37.1334   19.8279   12.6679 C   0  0  0  0  0  0  0  0  0  0  0  0
   38.3978   22.2419   13.1315 C   0  0  0  0  0  0  0  0  0  0  0  0
   39.7012   22.8368   13.6051 C   0  0  1  0  0  0  0  0  0  0  0  0
   39.8504   23.9763   12.8240 O   0  0  0  0  0  0  0  0  0  0  0  0
   39.8625   23.4146   15.0119 C   0  0  1  0  0  0  0  0  0  0  0  0
   40.3072   22.4629   15.9357 O   0  0  0  0  0  0  0  0  0  0  0  0
   40.9399   24.5544   14.6789 C   0  0  1  0  0  0  0  0  0  0  0  0
   42.1351   24.0774   14.0437 O   0  0  0  0  0  0  0  0  0  0  0  0
   39.9225   25.1461   13.7308 C   0  0  1  0  0  0  0  0  0  0  0  0
   38.5360   16.9202   12.4615 O   0  0  0  0  0  0  0  0  0  0  0  0
   39.5700   30.1602   13.7882 N   0  0  0  0  0  0  0  0  0  0  0  0
   39.5548   29.2669   14.7788 C   0  0  0  0  0  0  0  0  0  0  0  0
   39.7168   27.9638   14.5529 N   0  0  0  0  0  0  0  0  0  0  0  0
   39.7768   27.4816   13.3044 C   0  0  0  0  0  0  0  0  0  0  0  0
   39.7287   28.4029   12.2101 C   0  0  0  0  0  0  0  0  0  0  0  0
   39.6299   29.7881   12.5159 C   0  0  0  0  0  0  0  0  0  0  0  0
   39.5965   30.7337   11.5298 N   0  0  0  0  0  0  0  0  0  0  0  0
   39.8001   27.6768   11.0774 N   0  0  0  0  0  0  0  0  0  0  0  0
   39.8816   26.4001   11.3808 C   0  0  0  0  0  0  0  0  0  0  0  0
   39.8881   26.2067   12.7404 N   0  0  0  0  0  0  0  0  0  0  0  0
  2  1  1  6  0  0  0
  2  3  1  0  0  0  0
  2  5  1  0  0  0  0
  3  4  1  0  0  0  0
  3 17  1  0  0  0  0
  5  6  1  0  0  0  0
  7  6  1  6  0  0  0
  7  8  1  0  0  0  0
  7  9  1  0  0  0  0
 10  9  1  1  0  0  0
 10 11  1  0  0  0  0
 10 12  1  0  0  0  0
 11 16  1  0  0  0  0
 12 13  1  1  0  0  0
 12 14  1  0  0  0  0
 14 15  1  6  0  0  0
 14 16  1  0  0  0  0
 16 27  1  6  0  0  0
 18 19  2  0  0  0  0
 18 23  1  0  0  0  0
 19 20  1  0  0  0  0
 20 21  2  0  0  0  0
 21 22  1  0  0  0  0
 21 27  1  0  0  0  0
 22 23  2  0  0  0  0
 22 25  1  0  0  0  0
 23 24  1  0  0  0  0
 25 26  2  0  0  0  0
 26 27  1  0  0  0  0
M  END
>  <CHROM.1>
96.29729645,-145.16721785,-69.06217641,-55.37783562,-82.94332047,131.32944265
172.57177656,39.70852327,23.34284232,12.96055391,1.71953114,1.39043019,3.06363177

>  <Name>
ligand

>  <RI>
0

>  <Rbt.Current_Directory>
/home/itssahil/PROJECTS/Mol_Feturizer/New_Systems/rnas/3IQN

>  <Rbt.Executable>
rbdock ($Id: //depot/dev/client3/rdock/2013.1/src/exe/rbdock.cxx#4 $)

>  <Rbt.Library>
libRbt.so (2013.1, Build901 2013/11/27)

>  <Rbt.Parameter_File>
/export/apps/rDock/src/rDock_2013.1_src/data/scripts/dock_solv.prm

>  <Rbt.Receptor>
prm/blind_docking_60.prm

>  <SCORE>
0.788675

>  <SCORE.INTER>
-0.838281

>  <SCORE.INTER.CONST>
1

>  <SCORE.INTER.POLAR>
0

>  <SCORE.INTER.ROT>
7

>  <SCORE.INTER.SOLV>
14.2708

>  <SCORE.INTER.VDW>
-13.5825

>  <SCORE.INTER.norm>
-0.0310474

>  <SCORE.INTRA>
-0.391021

>  <SCORE.INTRA.DIHEDRAL>
2.95954

>  <SCORE.INTRA.DIHEDRAL.0>
10.0365

>  <SCORE.INTRA.POLAR>
0

>  <SCORE.INTRA.POLAR.0>
0

>  <SCORE.INTRA.REPUL>
0

>  <SCORE.INTRA.REPUL.0>
0

>  <SCORE.INTRA.SOLV>
-1.03043

>  <SCORE.INTRA.SOLV.lig_0>
-48.6728

>  <SCORE.INTRA.VDW>
-1.35557

>  <SCORE.INTRA.VDW.0>
-1.10662

>  <SCORE.INTRA.norm>
-0.0144823

>  <SCORE.RESTR>
2.01798

>  <SCORE.RESTR.CAVITY>
2.01798

>  <SCORE.RESTR.norm>
0.0747399

>  <SCORE.SYSTEM>
0

>  <SCORE.SYSTEM.CONST>
0

>  <SCORE.SYSTEM.DIHEDRAL>
0

>  <SCORE.SYSTEM.SOLV>
0

>  <SCORE.SYSTEM.norm>
0

>  <SCORE.heavy>
27

>  <SCORE.norm>
0.0292102

>  <RMSD>
38.656

$$$$
ligand
 OpenBabel11021811483D
libRbt.so/2013.1/901 2013/11/27
 27 29  0  0  0  0  0  0  0  0999 V2000
   38.1602   30.9538   12.9421 N   0  0  0  0  0  0  0  0  0  0  0  0
   39.2285   30.1012   13.4798 C   0  0  2  0  0  0  0  0  0  0  0  0
   40.2461   29.8783   12.4017 C   0  0  0  0  0  0  0  0  0  0  0  0
   41.2759   29.2723   12.6519 O   0  0  0  0  0  0  0  0  0  0  0  0
   38.6561   28.7487   13.9295 C   0  0  0  0  0  0  0  0  0  0  0  0
   39.6698   28.0605   14.8389 C   0  0  0  0  0  0  0  0  0  0  0  0
   39.2143   26.3505   15.2701 S   0  0  2  0  0  0  0  0  0  0  0  0
   40.3265   25.9137   16.6422 C   0  0  0  0  0  0  0  0  0  0  0  0
   39.8491   25.1736   14.0220 C   0  0  0  0  0  0  0  0  0  0  0  0
   38.9935   23.9497   14.2392 C   0  0  1  0  0  0  0  0  0  0  0  0
   39.2800   23.1445   13.1437 O   0  0  0  0  0  0  0  0  0  0  0  0
   39.2454   22.9821   15.3965 C   0  0  1  0  0  0  0  0  0  0  0  0
   38.5253   23.3213   16.5468 O   0  0  0  0  0  0  0  0  0  0  0  0
   38.7484   21.6314   14.6897 C   0  0  1  0  0  0  0  0  0  0  0  0
   37.4074   21.6834   14.1813 O   0  0  0  0  0  0  0  0  0  0  0  0
   39.8200   21.8603   13.6488 C   0  0  1  0  0  0  0  0  0  0  0  0
   40.0327   30.2912   11.2727 O   0  0  0  0  0  0  0  0  0  0  0  0
   39.5923   17.2951   11.5569 N   0  0  0  0  0  0  0  0  0  0  0  0
   39.2240   17.7281   12.7636 C   0  0  0  0  0  0  0  0  0  0  0  0
   39.3222   19.0107   13.1107 N   0  0  0  0  0  0  0  0  0  0  0  0
   39.9138   19.9012   12.3033 C   0  0  0  0  0  0  0  0  0  0  0  0
   40.3841   19.4616   11.0248 C   0  0  0  0  0  0  0  0  0  0  0  0
   40.1842   18.0965   10.6804 C   0  0  0  0  0  0  0  0  0  0  0  0
   40.5876   17.6012    9.4722 N   0  0  0  0  0  0  0  0  0  0  0  0
   40.9352   20.5301   10.4166 N   0  0  0  0  0  0  0  0  0  0  0  0
   40.8488   21.5765   11.2079 C   0  0  0  0  0  0  0  0  0  0  0  0
   40.2147   21.2644   12.3854 N   0  0  0  0  0  0  0  0  0  0  0  0
  2  1  1  6  0  0  0
  2  3  1  0  0  0  0
  2  5  1  0  0  0  0
  3  4  1  0  0  0  0
  3 17  1  0  0  0  0
  5  6  1  0  0  0  0
  7  6  1  6  0  0  0
  7  8  1  0  0  0  0
  7  9  1  0  0  0  0
 10  9  1  1  0  0  0
 10 11  1  0  0  0  0
 10 12  1  0  0  0  0
 11 16  1  0  0  0  0
 12 13  1  1  0  0  0
 12 14  1  0  0  0  0
 14 15  1  6  0  0  0
 14 16  1  0  0  0  0
 16 27  1  6  0  0  0
 18 19  2  0  0  0  0
 18 23  1  0  0  0  0
 19 20  1  0  0  0  0
 20 21  2  0  0  0  0
 21 22  1  0  0  0  0
 21 27  1  0  0  0  0
 22 23  2  0  0  0  0
 22 25  1  0  0  0  0
 23 24  1  0  0  0  0
 25 26  2  0  0  0  0
 26 27  1  0  0  0  0
M  END
>  <CHROM.1>
174.86461885,-163.50775732,-172.40568827,-166.64149370,-160.23849729,168.95800517
-138.89673986,39.58971916,23.80266045,13.26714578,-1.66478351,-1.25119913
-3.05119920

>  <Name>
ligand

>  <RI>
0

>  <Rbt.Current_Directory>
/home/itssahil/PROJECTS/Mol_Feturizer/New_Systems/rnas/3IQN

>  <Rbt.Executable>
rbdock ($Id: //depot/dev/client3/rdock/2013.1/src/exe/rbdock.cxx#4 $)

>  <Rbt.Library>
libRbt.so (2013.1, Build901 2013/11/27)

>  <Rbt.Parameter_File>
/export/apps/rDock/src/rDock_2013.1_src/data/scripts/dock_solv.prm

>  <Rbt.Receptor>
prm/blind_docking_60.prm

>  <SCORE>
-4.93059

>  <SCORE.INTER>
-3.50478

>  <SCORE.INTER.CONST>
1

>  <SCORE.INTER.POLAR>
0

>  <SCORE.INTER.ROT>
7

>  <SCORE.INTER.SOLV>
8.30853

>  <SCORE.INTER.VDW>
-13.3727

>  <SCORE.INTER.norm>
-0.129806

>  <SCORE.INTRA>
-2.72388

>  <SCORE.INTRA.DIHEDRAL>
-2.5306

>  <SCORE.INTRA.DIHEDRAL.0>
10.0365

>  <SCORE.INTRA.POLAR>
0

>  <SCORE.INTRA.POLAR.0>
0

>  <SCORE.INTRA.REPUL>
0

>  <SCORE.INTRA.REPUL.0>
0

>  <SCORE.INTRA.SOLV>
-0.784234

>  <SCORE.INTRA.SOLV.lig_0>
-48.6728

>  <SCORE.INTRA.VDW>
-1.06647

>  <SCORE.INTRA.VDW.0>
-1.10662

>  <SCORE.INTRA.norm>
-0.100885

>  <SCORE.RESTR>
1.29807

>  <SCORE.RESTR.CAVITY>
1.29807

>  <SCORE.RESTR.norm>
0.0480767

>  <SCORE.SYSTEM>
0

>  <SCORE.SYSTEM.CONST>
0

>  <SCORE.SYSTEM.DIHEDRAL>
0

>  <SCORE.SYSTEM.SOLV>
0

>  <SCORE.SYSTEM.norm>
0

>  <SCORE.heavy>
27

>  <SCORE.norm>
-0.182614

>  <RMSD>
38.991

$$$$
ligand
 OpenBabel11021811483D
libRbt.so/2013.1/901 2013/11/27
 27 29  0  0  0  0  0  0  0  0999 V2000
   38.7786   17.4679   14.6054 N   0  0  0  0  0  0  0  0  0  0  0  0
   38.9232   16.8033   13.3036 C   0  0  2  0  0  0  0  0  0  0  0  0
   40.2601   16.1264   13.2618 C   0  0  0  0  0  0  0  0  0  0  0  0
   40.9687   16.1153   14.2559 O   0  0  0  0  0  0  0  0  0  0  0  0
   38.8359   17.8325   12.1667 C   0  0  0  0  0  0  0  0  0  0  0  0
   39.7453   19.0124   12.4971 C   0  0  0  0  0  0  0  0  0  0  0  0
   39.3625   20.5138   11.5396 S   0  0  2  0  0  0  0  0  0  0  0  0
   39.6402   20.0337    9.8067 C   0  0  0  0  0  0  0  0  0  0  0  0
   40.7050   21.7462   11.6975 C   0  0  0  0  0  0  0  0  0  0  0  0
   40.3400   22.4903   12.9585 C   0  0  1  0  0  0  0  0  0  0  0  0
   40.4904   23.8274   12.6114 O   0  0  0  0  0  0  0  0  0  0  0  0
   38.9166   22.4841   13.5178 C   0  0  1  0  0  0  0  0  0  0  0  0
   38.7014   21.4432   14.4273 O   0  0  0  0  0  0  0  0  0  0  0  0
   38.9160   23.9429   14.1831 C   0  0  1  0  0  0  0  0  0  0  0  0
   39.9724   24.1673   15.1282 O   0  0  0  0  0  0  0  0  0  0  0  0
   39.1837   24.4994   12.8036 C   0  0  1  0  0  0  0  0  0  0  0  0
   40.6279   15.5748   12.2365 O   0  0  0  0  0  0  0  0  0  0  0  0
   39.8459   29.1792   14.5153 N   0  0  0  0  0  0  0  0  0  0  0  0
   39.5119   28.0521   15.1457 C   0  0  0  0  0  0  0  0  0  0  0  0
   39.4377   26.8849   14.5073 N   0  0  0  0  0  0  0  0  0  0  0  0
   39.5737   26.8160   13.1763 C   0  0  0  0  0  0  0  0  0  0  0  0
   39.8665   28.0163   12.4536 C   0  0  0  0  0  0  0  0  0  0  0  0
   40.0074   29.2191   13.1989 C   0  0  0  0  0  0  0  0  0  0  0  0
   40.3042   30.4045   12.5870 N   0  0  0  0  0  0  0  0  0  0  0  0
   39.9481   27.6842   11.1504 N   0  0  0  0  0  0  0  0  0  0  0  0
   39.7269   26.3954   11.0129 C   0  0  0  0  0  0  0  0  0  0  0  0
   39.5034   25.7922   12.2262 N   0  0  0  0  0  0  0  0  0  0  0  0
  2  1  1  1  0  0  0
  2  3  1  0  0  0  0
  2  5  1  0  0  0  0
  3  4  1  0  0  0  0
  3 17  1  0  0  0  0
  5  6  1  0  0  0  0
  7  6  1  1  0  0  0
  7  8  1  0  0  0  0
  7  9  1  0  0  0  0
 10  9  1  6  0  0  0
 10 11  1  0  0  0  0
 10 12  1  0  0  0  0
 11 16  1  0  0  0  0
 12 13  1  1  0  0  0
 12 14  1  0  0  0  0
 14 15  1  1  0  0  0
 14 16  1  0  0  0  0
 16 27  1  1  0  0  0
 18 19  2  0  0  0  0
 18 23  1  0  0  0  0
 19 20  1  0  0  0  0
 20 21  2  0  0  0  0
 21 22  1  0  0  0  0
 21 27  1  0  0  0  0
 22 23  2  0  0  0  0
 22 25  1  0  0  0  0
 23 24  1  0  0  0  0
 25 26  2  0  0  0  0
 26 27  1  0  0  0  0
M  END
>  <CHROM.1>
5.20191843,47.82670432,-161.78604541,-61.81678008,-86.05123210,-133.57699293
-110.21126894,39.70453570,22.78767453,12.93592937,1.59577004,-1.47858224
-3.08578962

>  <Name>
ligand

>  <RI>
0

>  <Rbt.Current_Directory>
/home/itssahil/PROJECTS/Mol_Feturizer/New_Systems/rnas/3IQN

>  <Rbt.Executable>
rbdock ($Id: //depot/dev/client3/rdock/2013.1/src/exe/rbdock.cxx#4 $)

>  <Rbt.Library>
libRbt.so (2013.1, Build901 2013/11/27)

>  <Rbt.Parameter_File>
/export/apps/rDock/src/rDock_2013.1_src/data/scripts/dock_solv.prm

>  <Rbt.Receptor>
prm/blind_docking_60.prm

>  <SCORE>
4.42462

>  <SCORE.INTER>
0.685669

>  <SCORE.INTER.CONST>
1

>  <SCORE.INTER.POLAR>
0

>  <SCORE.INTER.ROT>
7

>  <SCORE.INTER.SOLV>
14.5078

>  <SCORE.INTER.VDW>
-12.6455

>  <SCORE.INTER.norm>
0.0253951

>  <SCORE.INTRA>
1.72812

>  <SCORE.INTRA.DIHEDRAL>
0.548918

>  <SCORE.INTRA.DIHEDRAL.0>
10.0365

>  <SCORE.INTRA.POLAR>
0

>  <SCORE.INTRA.POLAR.0>
0

>  <SCORE.INTRA.REPUL>
0

>  <SCORE.INTRA.REPUL.0>
0

>  <SCORE.INTRA.SOLV>
0.698407

>  <SCORE.INTRA.SOLV.lig_0>
-48.6728

>  <SCORE.INTRA.VDW>
1.10446

>  <SCORE.INTRA.VDW.0>
-1.10662

>  <SCORE.INTRA.norm>
0.0640046

>  <SCORE.RESTR>
2.01083

>  <SCORE.RESTR.CAVITY>
2.01083

>  <SCORE.RESTR.norm>
0.0744751

>  <SCORE.SYSTEM>
0

>  <SCORE.SYSTEM.CONST>
0

>  <SCORE.SYSTEM.DIHEDRAL>
0

>  <SCORE.SYSTEM.SOLV>
0

>  <SCORE.SYSTEM.norm>
0

>  <SCORE.heavy>
27

>  <SCORE.norm>
0.163875

>  <RMSD>
39.185

$$$$
ligand
 OpenBabel11021811483D
libRbt.so/2013.1/901 2013/11/27
 27 29  0  0  0  0  0  0  0  0999 V2000
   37.8961   15.8856   12.9138 N   0  0  0  0  0  0  0  0  0  0  0  0
   39.1386   16.6136   12.6248 C   0  0  2  0  0  0  0  0  0  0  0  0
   40.2420   16.0135   13.4432 C   0  0  0  0  0  0  0  0  0  0  0  0
   40.6968   14.9207   13.1447 O   0  0  0  0  0  0  0  0  0  0  0  0
   38.9834   18.0983   12.9869 C   0  0  0  0  0  0  0  0  0  0  0  0
   40.0511   18.9012   12.2497 C   0  0  0  0  0  0  0  0  0  0  0  0
   39.3997   20.3884   11.4242 S   0  0  2  0  0  0  0  0  0  0  0  0
   39.7352   20.1141    9.6572 C   0  0  0  0  0  0  0  0  0  0  0  0
   40.5078   21.8190   11.6913 C   0  0  0  0  0  0  0  0  0  0  0  0
   40.3103   22.1369   13.1531 C   0  0  1  0  0  0  0  0  0  0  0  0
   40.7395   23.4534   13.2685 O   0  0  0  0  0  0  0  0  0  0  0  0
   38.9185   22.2192   13.7818 C   0  0  1  0  0  0  0  0  0  0  0  0
   38.4893   20.9924   14.2990 O   0  0  0  0  0  0  0  0  0  0  0  0
   39.2274   23.3267   14.8994 C   0  0  1  0  0  0  0  0  0  0  0  0
   40.3087   22.9961   15.7831 O   0  0  0  0  0  0  0  0  0  0  0  0
   39.6049   24.2617   13.7735 C   0  0  1  0  0  0  0  0  0  0  0  0
   40.6921   16.6288   14.3970 O   0  0  0  0  0  0  0  0  0  0  0  0
   37.9523   29.0036   14.0037 N   0  0  0  0  0  0  0  0  0  0  0  0
   37.3047   27.8416   14.1026 C   0  0  0  0  0  0  0  0  0  0  0  0
   37.9456   26.6740   14.0657 N   0  0  0  0  0  0  0  0  0  0  0  0
   39.2576   26.6146   13.8011 C   0  0  0  0  0  0  0  0  0  0  0  0
   39.9774   27.8387   13.6216 C   0  0  0  0  0  0  0  0  0  0  0  0
   39.2530   29.0561   13.7462 C   0  0  0  0  0  0  0  0  0  0  0  0
   39.8691   30.2680   13.6070 N   0  0  0  0  0  0  0  0  0  0  0  0
   41.2589   27.5110   13.3658 N   0  0  0  0  0  0  0  0  0  0  0  0
   41.3843   26.2022   13.3677 C   0  0  0  0  0  0  0  0  0  0  0  0
   40.1899   25.5839   13.6452 N   0  0  0  0  0  0  0  0  0  0  0  0
  2  1  1  1  0  0  0
  2  3  1  0  0  0  0
  2  5  1  0  0  0  0
  3  4  1  0  0  0  0
  3 17  1  0  0  0  0
  5  6  1  0  0  0  0
  7  6  1  1  0  0  0
  7  8  1  0  0  0  0
  7  9  1  0  0  0  0
 10  9  1  6  0  0  0
 10 11  1  0  0  0  0
 10 12  1  0  0  0  0
 11 16  1  0  0  0  0
 12 13  1  1  0  0  0
 12 14  1  0  0  0  0
 14 15  1  1  0  0  0
 14 16  1  0  0  0  0
 16 27  1  1  0  0  0
 18 19  2  0  0  0  0
 18 23  1  0  0  0  0
 19 20  1  0  0  0  0
 20 21  2  0  0  0  0
 21 22  1  0  0  0  0
 21 27  1  0  0  0  0
 22 23  2  0  0  0  0
 22 25  1  0  0  0  0
 23 24  1  0  0  0  0
 25 26  2  0  0  0  0
 26 27  1  0  0  0  0
M  END
>  <CHROM.1>
73.12441279,-160.31039028,132.78684964,-118.15409539,-70.69583771,-159.54193030
168.03601005,39.61383763,22.52384072,13.27151246,1.42795487,-1.37659126,3.09435799

>  <Name>
ligand

>  <RI>
0

>  <Rbt.Current_Directory>
/home/itssahil/PROJECTS/Mol_Feturizer/New_Systems/rnas/3IQN

>  <Rbt.Executable>
rbdock ($Id: //depot/dev/client3/rdock/2013.1/src/exe/rbdock.cxx#4 $)

>  <Rbt.Library>
libRbt.so (2013.1, Build901 2013/11/27)

>  <Rbt.Parameter_File>
/export/apps/rDock/src/rDock_2013.1_src/data/scripts/dock_solv.prm

>  <Rbt.Receptor>
prm/blind_docking_60.prm

>  <SCORE>
8.72279

>  <SCORE.INTER>
3.62309

>  <SCORE.INTER.CONST>
1

>  <SCORE.INTER.POLAR>
0

>  <SCORE.INTER.ROT>
7

>  <SCORE.INTER.SOLV>
14.7008

>  <SCORE.INTER.VDW>
-10.7515

>  <SCORE.INTER.norm>
0.134188

>  <SCORE.INTRA>
2.05896

>  <SCORE.INTRA.DIHEDRAL>
5.04829

>  <SCORE.INTRA.DIHEDRAL.0>
10.0365

>  <SCORE.INTRA.POLAR>
0

>  <SCORE.INTRA.POLAR.0>
0

>  <SCORE.INTRA.REPUL>
0

>  <SCORE.INTRA.REPUL.0>
0

>  <SCORE.INTRA.SOLV>
-0.641146

>  <SCORE.INTRA.SOLV.lig_0>
-48.6728

>  <SCORE.INTRA.VDW>
-0.144613

>  <SCORE.INTRA.VDW.0>
-1.10662

>  <SCORE.INTRA.norm>
0.0762577

>  <SCORE.RESTR>
3.04074

>  <SCORE.RESTR.CAVITY>
3.04074

>  <SCORE.RESTR.norm>
0.11262

>  <SCORE.SYSTEM>
0

>  <SCORE.SYSTEM.CONST>
0

>  <SCORE.SYSTEM.DIHEDRAL>
0

>  <SCORE.SYSTEM.SOLV>
0

>  <SCORE.SYSTEM.norm>
0

>  <SCORE.heavy>
27

>  <SCORE.norm>
0.323066

>  <RMSD>
39.233

$$$$
ligand
 OpenBabel11021811483D
libRbt.so/2013.1/901 2013/11/27
 27 29  0  0  0  0  0  0  0  0999 V2000
   42.2544   28.3687   10.7606 N   0  0  0  0  0  0  0  0  0  0  0  0
   40.8746   28.1904   11.2316 C   0  0  2  0  0  0  0  0  0  0  0  0
   40.3227   29.5335   11.6042 C   0  0  0  0  0  0  0  0  0  0  0  0
   40.7977   30.1472   12.5465 O   0  0  0  0  0  0  0  0  0  0  0  0
   40.8451   27.2674   12.4590 C   0  0  0  0  0  0  0  0  0  0  0  0
   39.3949   27.0565   12.8842 C   0  0  0  0  0  0  0  0  0  0  0  0
   39.2236   26.3604   14.5586 S   0  0  2  0  0  0  0  0  0  0  0  0
   40.2454   27.4393   15.6086 C   0  0  0  0  0  0  0  0  0  0  0  0
   40.1962   24.8203   14.7257 C   0  0  0  0  0  0  0  0  0  0  0  0
   39.1396   23.7433   14.6958 C   0  0  1  0  0  0  0  0  0  0  0  0
   39.3908   23.0632   13.5104 O   0  0  0  0  0  0  0  0  0  0  0  0
   39.1281   22.5936   15.7043 C   0  0  1  0  0  0  0  0  0  0  0  0
   38.3711   22.8860   16.8437 O   0  0  0  0  0  0  0  0  0  0  0  0
   38.4869   21.4616   14.7672 C   0  0  1  0  0  0  0  0  0  0  0  0
   37.2227   21.8142   14.1866 O   0  0  0  0  0  0  0  0  0  0  0  0
   39.6705   21.6473   13.8460 C   0  0  1  0  0  0  0  0  0  0  0  0
   39.4094   30.0149   10.9525 O   0  0  0  0  0  0  0  0  0  0  0  0
   39.6205   17.2655   11.3829 N   0  0  0  0  0  0  0  0  0  0  0  0
   39.2471   17.5800   12.6244 C   0  0  0  0  0  0  0  0  0  0  0  0
   39.2927   18.8326   13.0763 N   0  0  0  0  0  0  0  0  0  0  0  0
   39.8353   19.8125   12.3413 C   0  0  0  0  0  0  0  0  0  0  0  0
   40.3099   19.5020   11.0271 C   0  0  0  0  0  0  0  0  0  0  0  0
   40.1665   18.1625   10.5717 C   0  0  0  0  0  0  0  0  0  0  0  0
   40.5776   17.7876    9.3235 N   0  0  0  0  0  0  0  0  0  0  0  0
   40.8065   20.6408   10.5058 N   0  0  0  0  0  0  0  0  0  0  0  0
   40.6830   21.6132   11.3822 C   0  0  0  0  0  0  0  0  0  0  0  0
   40.0767   21.1764   12.5344 N   0  0  0  0  0  0  0  0  0  0  0  0
  2  1  1  1  0  0  0
  2  3  1  0  0  0  0
  2  5  1  0  0  0  0
  3  4  1  0  0  0  0
  3 17  1  0  0  0  0
  5  6  1  0  0  0  0
  7  6  1  6  0  0  0
  7  8  1  0  0  0  0
  7  9  1  0  0  0  0
 10  9  1  1  0  0  0
 10 11  1  0  0  0  0
 10 12  1  0  0  0  0
 11 16  1  0  0  0  0
 12 13  1  1  0  0  0
 12 14  1  0  0  0  0
 14 15  1  6  0  0  0
 14 16  1  0  0  0  0
 16 27  1  6  0  0  0
 18 19  2  0  0  0  0
 18 23  1  0  0  0  0
 19 20  1  0  0  0  0
 20 21  2  0  0  0  0
 21 22  1  0  0  0  0
 21 27  1  0  0  0  0
 22 23  2  0  0  0  0
 22 25  1  0  0  0  0
 23 24  1  0  0  0  0
 25 26  2  0  0  0  0
 26 27  1  0  0  0  0
M  END
>  <CHROM.1>
-65.78375869,-177.59913983,-164.69871351,51.31954125,-105.26710157,113.42646524
-152.56713225,39.78590908,23.56642713,12.93266318,-1.40958645,-1.18194982
-2.91678178

>  <Name>
ligand

>  <RI>
0

>  <Rbt.Current_Directory>
/home/itssahil/PROJECTS/Mol_Feturizer/New_Systems/rnas/3IQN

>  <Rbt.Executable>
rbdock ($Id: //depot/dev/client3/rdock/2013.1/src/exe/rbdock.cxx#4 $)

>  <Rbt.Library>
libRbt.so (2013.1, Build901 2013/11/27)

>  <Rbt.Parameter_File>
/export/apps/rDock/src/rDock_2013.1_src/data/scripts/dock_solv.prm

>  <Rbt.Receptor>
prm/blind_docking_60.prm

>  <SCORE>
0.160739

>  <SCORE.INTER>
-0.865222

>  <SCORE.INTER.CONST>
1

>  <SCORE.INTER.POLAR>
0

>  <SCORE.INTER.ROT>
7

>  <SCORE.INTER.SOLV>
18.0383

>  <SCORE.INTER.VDW>
-14.8563

>  <SCORE.INTER.norm>
-0.0320453

>  <SCORE.INTRA>
-0.293824

>  <SCORE.INTRA.DIHEDRAL>
2.11893

>  <SCORE.INTRA.DIHEDRAL.0>
10.0365

>  <SCORE.INTRA.POLAR>
0

>  <SCORE.INTRA.POLAR.0>
0

>  <SCORE.INTRA.REPUL>
0

>  <SCORE.INTRA.REPUL.0>
0

>  <SCORE.INTRA.SOLV>
-1.21564

>  <SCORE.INTRA.SOLV.lig_0>
-48.6728

>  <SCORE.INTRA.VDW>
-0.745466

>  <SCORE.INTRA.VDW.0>
-1.10662

>  <SCORE.INTRA.norm>
-0.0108824

>  <SCORE.RESTR>
1.31979

>  <SCORE.RESTR.CAVITY>
1.31979

>  <SCORE.RESTR.norm>
0.0488809

>  <SCORE.SYSTEM>
0

>  <SCORE.SYSTEM.CONST>
0

>  <SCORE.SYSTEM.DIHEDRAL>
0

>  <SCORE.SYSTEM.SOLV>
0

>  <SCORE.SYSTEM.norm>
0

>  <SCORE.heavy>
27

>  <SCORE.norm>
0.00595331

>  <RMSD>
39.250

$$$$
ligand
 OpenBabel11021811483D
libRbt.so/2013.1/901 2013/11/27
 27 29  0  0  0  0  0  0  0  0999 V2000
   39.5223   27.7112   10.3995 N   0  0  0  0  0  0  0  0  0  0  0  0
   39.9116   27.8713   11.8066 C   0  0  2  0  0  0  0  0  0  0  0  0
   41.2742   28.4947   11.8545 C   0  0  0  0  0  0  0  0  0  0  0  0
   41.6121   29.1463   12.8299 O   0  0  0  0  0  0  0  0  0  0  0  0
   39.9498   26.5054   12.5082 C   0  0  0  0  0  0  0  0  0  0  0  0
   38.6454   26.3065   13.2744 C   0  0  0  0  0  0  0  0  0  0  0  0
   38.8906   25.9375   15.0411 S   0  0  2  0  0  0  0  0  0  0  0  0
   40.2045   27.0804   15.5683 C   0  0  0  0  0  0  0  0  0  0  0  0
   39.7978   24.3640   15.2575 C   0  0  0  0  0  0  0  0  0  0  0  0
   38.7262   23.3207   15.0570 C   0  0  1  0  0  0  0  0  0  0  0  0
   39.0420   22.7505   13.8298 O   0  0  0  0  0  0  0  0  0  0  0  0
   38.6279   22.0809   15.9471 C   0  0  1  0  0  0  0  0  0  0  0  0
   37.8034   22.2820   17.0591 O   0  0  0  0  0  0  0  0  0  0  0  0
   38.0290   21.0590   14.8665 C   0  0  1  0  0  0  0  0  0  0  0  0
   36.8121   21.4958   14.2437 O   0  0  0  0  0  0  0  0  0  0  0  0
   39.2735   21.3026   14.0444 C   0  0  1  0  0  0  0  0  0  0  0  0
   42.0466   28.3343   10.9226 O   0  0  0  0  0  0  0  0  0  0  0  0
   39.7401   17.0804   11.3566 N   0  0  0  0  0  0  0  0  0  0  0  0
   39.3082   17.2862   12.6019 C   0  0  0  0  0  0  0  0  0  0  0  0
   39.2115   18.5102   13.1193 N   0  0  0  0  0  0  0  0  0  0  0  0
   39.6640   19.5799   12.4516 C   0  0  0  0  0  0  0  0  0  0  0  0
   40.1977   19.3926   11.1368 C   0  0  0  0  0  0  0  0  0  0  0  0
   40.2064   18.0723   10.6086 C   0  0  0  0  0  0  0  0  0  0  0  0
   40.6822   17.8109    9.3544 N   0  0  0  0  0  0  0  0  0  0  0  0
   40.5830   20.6036   10.6893 N   0  0  0  0  0  0  0  0  0  0  0  0
   40.3384   21.5086   11.6112 C   0  0  0  0  0  0  0  0  0  0  0  0
   39.7560   20.9489   12.7219 N   0  0  0  0  0  0  0  0  0  0  0  0
  2  1  1  6  0  0  0
  2  3  1  0  0  0  0
  2  5  1  0  0  0  0
  3  4  1  0  0  0  0
  3 17  1  0  0  0  0
  5  6  1  0  0  0  0
  7  6  1  6  0  0  0
  7  8  1  0  0  0  0
  7  9  1  0  0  0  0
 10  9  1  1  0  0  0
 10 11  1  0  0  0  0
 10 12  1  0  0  0  0
 11 16  1  0  0  0  0
 12 13  1  1  0  0  0
 12 14  1  0  0  0  0
 14 15  1  6  0  0  0
 14 16  1  0  0  0  0
 16 27  1  6  0  0  0
 18 19  2  0  0  0  0
 18 23  1  0  0  0  0
 19 20  1  0  0  0  0
 20 21  2  0  0  0  0
 21 22  1  0  0  0  0
 21 27  1  0  0  0  0
 22 23  2  0  0  0  0
 22 25  1  0  0  0  0
 23 24  1  0  0  0  0
 25 26  2  0  0  0  0
 26 27  1  0  0  0  0
M  END
>  <CHROM.1>
154.03168748,-98.28240557,-124.97401328,42.58271466,-79.54374503,108.94147893
-160.52280556,39.58018856,23.11187509,13.11356109,-1.38604809,-1.10949206
-2.87207292

>  <Name>
ligand

>  <RI>
0

>  <Rbt.Current_Directory>
/home/itssahil/PROJECTS/Mol_Feturizer/New_Systems/rnas/3IQN

>  <Rbt.Executable>
rbdock ($Id: //depot/dev/client3/rdock/2013.1/src/exe/rbdock.cxx#4 $)

>  <Rbt.Library>
libRbt.so (2013.1, Build901 2013/11/27)

>  <Rbt.Parameter_File>
/export/apps/rDock/src/rDock_2013.1_src/data/scripts/dock_solv.prm

>  <Rbt.Receptor>
prm/blind_docking_60.prm

>  <SCORE>
1.71745

>  <SCORE.INTER>
-3.23272

>  <SCORE.INTER.CONST>
1

>  <SCORE.INTER.POLAR>
0

>  <SCORE.INTER.ROT>
7

>  <SCORE.INTER.SOLV>
10.7167

>  <SCORE.INTER.VDW>
-13.994

>  <SCORE.INTER.norm>
-0.119731

>  <SCORE.INTRA>
2.28856

>  <SCORE.INTRA.DIHEDRAL>
8.03809

>  <SCORE.INTRA.DIHEDRAL.0>
10.0365

>  <SCORE.INTRA.POLAR>
0

>  <SCORE.INTRA.POLAR.0>
0

>  <SCORE.INTRA.REPUL>
0

>  <SCORE.INTRA.REPUL.0>
0

>  <SCORE.INTRA.SOLV>
-0.766011

>  <SCORE.INTRA.SOLV.lig_0>
-48.6728

>  <SCORE.INTRA.VDW>
-1.34748

>  <SCORE.INTRA.VDW.0>
-1.10662

>  <SCORE.INTRA.norm>
0.0847614

>  <SCORE.RESTR>
2.66161

>  <SCORE.RESTR.CAVITY>
2.66161

>  <SCORE.RESTR.norm>
0.0985783

>  <SCORE.SYSTEM>
0

>  <SCORE.SYSTEM.CONST>
0

>  <SCORE.SYSTEM.DIHEDRAL>
0

>  <SCORE.SYSTEM.SOLV>
0

>  <SCORE.SYSTEM.norm>
0

>  <SCORE.heavy>
27

>  <SCORE.norm>
0.0636092

>  <RMSD>
39.578

$$$$
ligand
 OpenBabel11021811483D
libRbt.so/2013.1/901 2013/11/27
 27 29  0  0  0  0  0  0  0  0999 V2000
   39.3561   29.1945   11.9690 N   0  0  0  0  0  0  0  0  0  0  0  0
   39.1001   29.0169   13.4044 C   0  0  2  0  0  0  0  0  0  0  0  0
   38.6430   30.3274   13.9710 C   0  0  0  0  0  0  0  0  0  0  0  0
   37.8999   30.3464   14.9393 O   0  0  0  0  0  0  0  0  0  0  0  0
   40.3814   28.5686   14.1232 C   0  0  0  0  0  0  0  0  0  0  0  0
   40.8174   27.2189   13.5607 C   0  0  0  0  0  0  0  0  0  0  0  0
   39.7337   25.8417   14.0571 S   0  0  2  0  0  0  0  0  0  0  0  0
   39.9619   25.7066   15.8571 C   0  0  0  0  0  0  0  0  0  0  0  0
   40.4596   24.2346   13.5709 C   0  0  0  0  0  0  0  0  0  0  0  0
   39.2844   23.2911   13.6468 C   0  0  1  0  0  0  0  0  0  0  0  0
   39.4858   22.4221   12.5815 O   0  0  0  0  0  0  0  0  0  0  0  0
   39.1096   22.3089   14.8060 C   0  0  1  0  0  0  0  0  0  0  0  0
   38.3617   22.8475   15.8583 O   0  0  0  0  0  0  0  0  0  0  0  0
   38.3649   21.1326   14.0108 C   0  0  1  0  0  0  0  0  0  0  0  0
   37.1676   21.5377   13.3312 O   0  0  0  0  0  0  0  0  0  0  0  0
   39.5869   21.0474   13.1256 C   0  0  1  0  0  0  0  0  0  0  0  0
   39.0294   31.3716   13.4699 O   0  0  0  0  0  0  0  0  0  0  0  0
   40.3771   16.2681   11.7830 N   0  0  0  0  0  0  0  0  0  0  0  0
   40.0571   16.8088   12.9597 C   0  0  0  0  0  0  0  0  0  0  0  0
   39.8375   18.1159   13.0964 N   0  0  0  0  0  0  0  0  0  0  0  0
   40.0524   18.9622   12.0803 C   0  0  0  0  0  0  0  0  0  0  0  0
   40.4623   18.4277   10.8174 C   0  0  0  0  0  0  0  0  0  0  0  0
   40.6083   17.0171   10.7124 C   0  0  0  0  0  0  0  0  0  0  0  0
   40.9789   16.4258    9.5374 N   0  0  0  0  0  0  0  0  0  0  0  0
   40.6141   19.4696    9.9767 N   0  0  0  0  0  0  0  0  0  0  0  0
   40.3400   20.5877   10.6120 C   0  0  0  0  0  0  0  0  0  0  0  0
   39.9702   20.3481   11.9127 N   0  0  0  0  0  0  0  0  0  0  0  0
  2  1  1  6  0  0  0
  2  3  1  0  0  0  0
  2  5  1  0  0  0  0
  3  4  1  0  0  0  0
  3 17  1  0  0  0  0
  5  6  1  0  0  0  0
  7  6  1  6  0  0  0
  7  8  1  0  0  0  0
  7  9  1  0  0  0  0
 10  9  1  1  0  0  0
 10 11  1  0  0  0  0
 10 12  1  0  0  0  0
 11 16  1  0  0  0  0
 12 13  1  1  0  0  0
 12 14  1  0  0  0  0
 14 15  1  6  0  0  0
 14 16  1  0  0  0  0
 16 27  1  6  0  0  0
 18 19  2  0  0  0  0
 18 23  1  0  0  0  0
 19 20  1  0  0  0  0
 20 21  2  0  0  0  0
 21 22  1  0  0  0  0
 21 27  1  0  0  0  0
 22 23  2  0  0  0  0
 22 25  1  0  0  0  0
 23 24  1  0  0  0  0
 25 26  2  0  0  0  0
 26 27  1  0  0  0  0
M  END
>  <CHROM.1>
151.34535435,-62.06428983,-71.37334944,-65.85086882,-162.72479640,143.12786343
-175.49644322,39.59991607,23.20745210,13.06376111,-1.78936285,-1.17591736
-3.12726245

>  <Name>
ligand

>  <RI>
0

>  <Rbt.Current_Directory>
/home/itssahil/PROJECTS/Mol_Feturizer/New_Systems/rnas/3IQN

>  <Rbt.Executable>
rbdock ($Id: //depot/dev/client3/rdock/2013.1/src/exe/rbdock.cxx#4 $)

>  <Rbt.Library>
libRbt.so (2013.1, Build901 2013/11/27)

>  <Rbt.Parameter_File>
/export/apps/rDock/src/rDock_2013.1_src/data/scripts/dock_solv.prm

>  <Rbt.Receptor>
prm/blind_docking_60.prm

>  <SCORE>
-6.6471

>  <SCORE.INTER>
-5.90832

>  <SCORE.INTER.CONST>
1

>  <SCORE.INTER.POLAR>
0

>  <SCORE.INTER.ROT>
7

>  <SCORE.INTER.SOLV>
8.47505

>  <SCORE.INTER.VDW>
-15.0306

>  <SCORE.INTER.norm>
-0.218827

>  <SCORE.INTRA>
-2.01713

>  <SCORE.INTRA.DIHEDRAL>
-1.75154

>  <SCORE.INTRA.DIHEDRAL.0>
10.0365

>  <SCORE.INTRA.POLAR>
0

>  <SCORE.INTRA.POLAR.0>
0

>  <SCORE.INTRA.REPUL>
0

>  <SCORE.INTRA.REPUL.0>
0

>  <SCORE.INTRA.SOLV>
0.232664

>  <SCORE.INTRA.SOLV.lig_0>
-48.6728

>  <SCORE.INTRA.VDW>
-1.25769

>  <SCORE.INTRA.VDW.0>
-1.10662

>  <SCORE.INTRA.norm>
-0.0747084

>  <SCORE.RESTR>
1.27834

>  <SCORE.RESTR.CAVITY>
1.27834

>  <SCORE.RESTR.norm>
0.0473461

>  <SCORE.SYSTEM>
0

>  <SCORE.SYSTEM.CONST>
0

>  <SCORE.SYSTEM.DIHEDRAL>
0

>  <SCORE.SYSTEM.SOLV>
0

>  <SCORE.SYSTEM.norm>
0

>  <SCORE.heavy>
27

>  <SCORE.norm>
-0.246189

>  <RMSD>
39.664

$$$$
ligand
 OpenBabel11021811483D
libRbt.so/2013.1/901 2013/11/27
 27 29  0  0  0  0  0  0  0  0999 V2000
   39.5691   29.0518   11.6073 N   0  0  0  0  0  0  0  0  0  0  0  0
   39.4097   28.9452   13.0635 C   0  0  2  0  0  0  0  0  0  0  0  0
   39.0108   30.2881   13.5971 C   0  0  0  0  0  0  0  0  0  0  0  0
   38.3303   30.3644   14.6077 O   0  0  0  0  0  0  0  0  0  0  0  0
   40.7309   28.5088   13.7141 C   0  0  0  0  0  0  0  0  0  0  0  0
   41.0568   27.0871   13.2659 C   0  0  0  0  0  0  0  0  0  0  0  0
   39.8911   25.8405   13.9022 S   0  0  2  0  0  0  0  0  0  0  0  0
   39.9819   26.0115   15.7113 C   0  0  0  0  0  0  0  0  0  0  0  0
   40.5927   24.1578   13.7538 C   0  0  0  0  0  0  0  0  0  0  0  0
   39.3679   23.2767   13.7341 C   0  0  1  0  0  0  0  0  0  0  0  0
   39.5851   22.4286   12.6551 O   0  0  0  0  0  0  0  0  0  0  0  0
   39.0759   22.2728   14.8503 C   0  0  1  0  0  0  0  0  0  0  0  0
   38.2974   22.8205   15.8754 O   0  0  0  0  0  0  0  0  0  0  0  0
   38.3185   21.1609   13.9782 C   0  0  1  0  0  0  0  0  0  0  0  0
   37.1849   21.6484   13.2455 O   0  0  0  0  0  0  0  0  0  0  0  0
   39.5835   21.0357   13.1606 C   0  0  1  0  0  0  0  0  0  0  0  0
   39.3822   31.3014   13.0261 O   0  0  0  0  0  0  0  0  0  0  0  0
   40.3239   16.2668   11.7542 N   0  0  0  0  0  0  0  0  0  0  0  0
   39.9692   16.7917   12.9281 C   0  0  0  0  0  0  0  0  0  0  0  0
   39.7724   18.1004   13.0824 N   0  0  0  0  0  0  0  0  0  0  0  0
   40.0453   18.9611   12.0927 C   0  0  0  0  0  0  0  0  0  0  0  0
   40.4933   18.4422   10.8363 C   0  0  0  0  0  0  0  0  0  0  0  0
   40.6132   17.0309   10.7087 C   0  0  0  0  0  0  0  0  0  0  0  0
   41.0172   16.4543    9.5374 N   0  0  0  0  0  0  0  0  0  0  0  0
   40.7004   19.4964   10.0232 N   0  0  0  0  0  0  0  0  0  0  0  0
   40.4253   20.6078   10.6697 C   0  0  0  0  0  0  0  0  0  0  0  0
   39.9994   20.3515   11.9499 N   0  0  0  0  0  0  0  0  0  0  0  0
  2  1  1  6  0  0  0
  2  3  1  0  0  0  0
  2  5  1  0  0  0  0
  3  4  1  0  0  0  0
  3 17  1  0  0  0  0
  5  6  1  0  0  0  0
  7  6  1  6  0  0  0
  7  8  1  0  0  0  0
  7  9  1  0  0  0  0
 10  9  1  1  0  0  0
 10 11  1  0  0  0  0
 10 12  1  0  0  0  0
 11 16  1  0  0  0  0
 12 13  1  1  0  0  0
 12 14  1  0  0  0  0
 14 15  1  6  0  0  0
 14 16  1  0  0  0  0
 16 27  1  6  0  0  0
 18 19  2  0  0  0  0
 18 23  1  0  0  0  0
 19 20  1  0  0  0  0
 20 21  2  0  0  0  0
 21 22  1  0  0  0  0
 21 27  1  0  0  0  0
 22 23  2  0  0  0  0
 22 25  1  0  0  0  0
 23 24  1  0  0  0  0
 25 26  2  0  0  0  0
 26 27  1  0  0  0  0
M  END
>  <CHROM.1>
150.96451605,-66.11087574,-67.13978601,-58.11454752,-156.36156035,131.78613295
-177.61708064,39.70515500,23.20359024,12.96687853,-1.70941071,-1.14603252
-3.08007152

>  <Name>
ligand

>  <RI>
0

>  <Rbt.Current_Directory>
/home/itssahil/PROJECTS/Mol_Feturizer/New_Systems/rnas/3IQN

>  <Rbt.Executable>
rbdock ($Id: //depot/dev/client3/rdock/2013.1/src/exe/rbdock.cxx#4 $)

>  <Rbt.Library>
libRbt.so (2013.1, Build901 2013/11/27)

>  <Rbt.Parameter_File>
/export/apps/rDock/src/rDock_2013.1_src/data/scripts/dock_solv.prm

>  <Rbt.Receptor>
prm/blind_docking_60.prm

>  <SCORE>
-6.72668

>  <SCORE.INTER>
-6.96148

>  <SCORE.INTER.CONST>
1

>  <SCORE.INTER.POLAR>
0

>  <SCORE.INTER.ROT>
7

>  <SCORE.INTER.SOLV>
9.06599

>  <SCORE.INTER.VDW>
-15.9297

>  <SCORE.INTER.norm>
-0.257833

>  <SCORE.INTRA>
-1.04771

>  <SCORE.INTRA.DIHEDRAL>
0.28455

>  <SCORE.INTRA.DIHEDRAL.0>
10.0365

>  <SCORE.INTRA.POLAR>
0

>  <SCORE.INTRA.POLAR.0>
0

>  <SCORE.INTRA.REPUL>
0

>  <SCORE.INTRA.REPUL.0>
0

>  <SCORE.INTRA.SOLV>
0.129468

>  <SCORE.INTRA.SOLV.lig_0>
-48.6728

>  <SCORE.INTRA.VDW>
-1.25472

>  <SCORE.INTRA.VDW.0>
-1.10662

>  <SCORE.INTRA.norm>
-0.0388042

>  <SCORE.RESTR>
1.28251

>  <SCORE.RESTR.CAVITY>
1.28251

>  <SCORE.RESTR.norm>
0.0475004

>  <SCORE.SYSTEM>
0

>  <SCORE.SYSTEM.CONST>
0

>  <SCORE.SYSTEM.DIHEDRAL>
0

>  <SCORE.SYSTEM.SOLV>
0

>  <SCORE.SYSTEM.norm>
0

>  <SCORE.heavy>
27

>  <SCORE.norm>
-0.249136

>  <RMSD>
39.675

$$$$
ligand
 OpenBabel11021811483D
libRbt.so/2013.1/901 2013/11/27
 27 29  0  0  0  0  0  0  0  0999 V2000
   39.5566   29.0020   11.7471 N   0  0  0  0  0  0  0  0  0  0  0  0
   39.4662   28.8826   13.2082 C   0  0  2  0  0  0  0  0  0  0  0  0
   39.1088   30.2245   13.7732 C   0  0  0  0  0  0  0  0  0  0  0  0
   39.3694   31.2387   13.1457 O   0  0  0  0  0  0  0  0  0  0  0  0
   40.8120   28.4251   13.7904 C   0  0  0  0  0  0  0  0  0  0  0  0
   41.0934   26.9997   13.3242 C   0  0  0  0  0  0  0  0  0  0  0  0
   39.9053   25.7781   13.9674 S   0  0  2  0  0  0  0  0  0  0  0  0
   39.9758   25.9797   15.7743 C   0  0  0  0  0  0  0  0  0  0  0  0
   40.5888   24.0851   13.8571 C   0  0  0  0  0  0  0  0  0  0  0  0
   39.3553   23.2160   13.8757 C   0  0  1  0  0  0  0  0  0  0  0  0
   39.5164   22.3855   12.7734 O   0  0  0  0  0  0  0  0  0  0  0  0
   39.1022   22.1950   14.9859 C   0  0  1  0  0  0  0  0  0  0  0  0
   38.3748   22.7315   16.0535 O   0  0  0  0  0  0  0  0  0  0  0  0
   38.2960   21.1062   14.1284 C   0  0  1  0  0  0  0  0  0  0  0  0
   37.1365   21.6176   13.4548 O   0  0  0  0  0  0  0  0  0  0  0  0
   39.5227   20.9838   13.2540 C   0  0  1  0  0  0  0  0  0  0  0  0
   38.5436   30.2959   14.8531 O   0  0  0  0  0  0  0  0  0  0  0  0
   40.2983   16.2443   11.7694 N   0  0  0  0  0  0  0  0  0  0  0  0
   40.0057   16.7531   12.9672 C   0  0  0  0  0  0  0  0  0  0  0  0
   39.7843   18.0552   13.1431 N   0  0  0  0  0  0  0  0  0  0  0  0
   39.9702   18.9283   12.1441 C   0  0  0  0  0  0  0  0  0  0  0  0
   40.3504   18.4284   10.8579 C   0  0  0  0  0  0  0  0  0  0  0  0
   40.4994   17.0216   10.7129 C   0  0  0  0  0  0  0  0  0  0  0  0
   40.8428   16.4624    9.5142 N   0  0  0  0  0  0  0  0  0  0  0  0
   40.4768   19.4921   10.0408 N   0  0  0  0  0  0  0  0  0  0  0  0
   40.2142   20.5922   10.7114 C   0  0  0  0  0  0  0  0  0  0  0  0
   39.8782   20.3177   12.0143 N   0  0  0  0  0  0  0  0  0  0  0  0
  2  1  1  6  0  0  0
  2  3  1  0  0  0  0
  2  5  1  0  0  0  0
  3  4  1  0  0  0  0
  3 17  1  0  0  0  0
  5  6  1  0  0  0  0
  7  6  1  6  0  0  0
  7  8  1  0  0  0  0
  7  9  1  0  0  0  0
 10  9  1  1  0  0  0
 10 11  1  0  0  0  0
 10 12  1  0  0  0  0
 11 16  1  0  0  0  0
 12 13  1  1  0  0  0
 12 14  1  0  0  0  0
 14 15  1  6  0  0  0
 14 16  1  0  0  0  0
 16 27  1  6  0  0  0
 18 19  2  0  0  0  0
 18 23  1  0  0  0  0
 19 20  1  0  0  0  0
 20 21  2  0  0  0  0
 21 22  1  0  0  0  0
 21 27  1  0  0  0  0
 22 23  2  0  0  0  0
 22 25  1  0  0  0  0
 23 24  1  0  0  0  0
 25 26  2  0  0  0  0
 26 27  1  0  0  0  0
M  END
>  <CHROM.1>
-24.13321403,-66.63604805,-64.98016741,-55.74369209,-157.85959520,128.61044325
179.89314288,39.68419918,23.15552101,13.06121852,-1.68607317,-1.18314064
-3.05133371

>  <Name>
ligand

>  <RI>
0

>  <Rbt.Current_Directory>
/home/itssahil/PROJECTS/Mol_Feturizer/New_Systems/rnas/3IQN

>  <Rbt.Executable>
rbdock ($Id: //depot/dev/client3/rdock/2013.1/src/exe/rbdock.cxx#4 $)

>  <Rbt.Library>
libRbt.so (2013.1, Build901 2013/11/27)

>  <Rbt.Parameter_File>
/export/apps/rDock/src/rDock_2013.1_src/data/scripts/dock_solv.prm

>  <Rbt.Receptor>
prm/blind_docking_60.prm

>  <SCORE>
-6.28941

>  <SCORE.INTER>
-6.68424

>  <SCORE.INTER.CONST>
1

>  <SCORE.INTER.POLAR>
0

>  <SCORE.INTER.ROT>
7

>  <SCORE.INTER.SOLV>
8.49433

>  <SCORE.INTER.VDW>
-15.5543

>  <SCORE.INTER.norm>
-0.247565

>  <SCORE.INTRA>
-0.832024

>  <SCORE.INTRA.DIHEDRAL>
0.471047

>  <SCORE.INTRA.DIHEDRAL.0>
10.0365

>  <SCORE.INTRA.POLAR>
0

>  <SCORE.INTRA.POLAR.0>
0

>  <SCORE.INTRA.REPUL>
0

>  <SCORE.INTRA.REPUL.0>
0

>  <SCORE.INTRA.SOLV>
0.144473

>  <SCORE.INTRA.SOLV.lig_0>
-48.6728

>  <SCORE.INTRA.VDW>
-1.13978

>  <SCORE.INTRA.VDW.0>
-1.10662

>  <SCORE.INTRA.norm>
-0.0308157

>  <SCORE.RESTR>
1.22686

>  <SCORE.RESTR.CAVITY>
1.22686

>  <SCORE.RESTR.norm>
0.0454392

>  <SCORE.SYSTEM>
0

>  <SCORE.SYSTEM.CONST>
0

>  <SCORE.SYSTEM.DIHEDRAL>
0

>  <SCORE.SYSTEM.SOLV>
0

>  <SCORE.SYSTEM.norm>
0

>  <SCORE.heavy>
27

>  <SCORE.norm>
-0.232941

>  <RMSD>
39.676

$$$$
ligand
 OpenBabel11021811483D
libRbt.so/2013.1/901 2013/11/27
 27 29  0  0  0  0  0  0  0  0999 V2000
   39.0739   30.2543   14.5532 N   0  0  0  0  0  0  0  0  0  0  0  0
   39.6433   28.9139   14.3627 C   0  0  2  0  0  0  0  0  0  0  0  0
   40.4362   28.9112   13.0904 C   0  0  0  0  0  0  0  0  0  0  0  0
   39.8987   29.2141   12.0370 O   0  0  0  0  0  0  0  0  0  0  0  0
   38.5232   27.8670   14.2689 C   0  0  0  0  0  0  0  0  0  0  0  0
   39.0964   26.4970   14.6194 C   0  0  0  0  0  0  0  0  0  0  0  0
   40.4540   25.9762   13.5225 S   0  0  2  0  0  0  0  0  0  0  0  0
   39.6691   25.7593   11.8955 C   0  0  0  0  0  0  0  0  0  0  0  0
   40.9121   24.2334   13.8365 C   0  0  0  0  0  0  0  0  0  0  0  0
   39.5983   23.5039   13.6992 C   0  0  1  0  0  0  0  0  0  0  0  0
   39.8184   22.6153   12.6540 O   0  0  0  0  0  0  0  0  0  0  0  0
   39.0779   22.5637   14.7874 C   0  0  1  0  0  0  0  0  0  0  0  0
   38.2726   23.2198   15.7243 O   0  0  0  0  0  0  0  0  0  0  0  0
   38.2830   21.5331   13.8511 C   0  0  1  0  0  0  0  0  0  0  0  0
   37.2950   22.1377   13.0038 O   0  0  0  0  0  0  0  0  0  0  0  0
   39.5989   21.2425   13.1669 C   0  0  1  0  0  0  0  0  0  0  0  0
   41.6218   28.6206   13.1163 O   0  0  0  0  0  0  0  0  0  0  0  0
   40.1596   16.3897   11.9816 N   0  0  0  0  0  0  0  0  0  0  0  0
   39.7649   16.9783   13.1117 C   0  0  0  0  0  0  0  0  0  0  0  0
   39.6311   18.3006   13.2063 N   0  0  0  0  0  0  0  0  0  0  0  0
   40.0092   19.1062   12.2049 C   0  0  0  0  0  0  0  0  0  0  0  0
   40.5023   18.5155   10.9980 C   0  0  0  0  0  0  0  0  0  0  0  0
   40.5521   17.0960   10.9290 C   0  0  0  0  0  0  0  0  0  0  0  0
   40.9930   16.4533    9.8064 N   0  0  0  0  0  0  0  0  0  0  0  0
   40.8149   19.5246   10.1618 N   0  0  0  0  0  0  0  0  0  0  0  0
   40.5630   20.6735   10.7496 C   0  0  0  0  0  0  0  0  0  0  0  0
   40.0482   20.4904   12.0095 N   0  0  0  0  0  0  0  0  0  0  0  0
  2  1  1  6  0  0  0
  2  3  1  0  0  0  0
  2  5  1  0  0  0  0
  3  4  1  0  0  0  0
  3 17  1  0  0  0  0
  5  6  1  0  0  0  0
  7  6  1  1  0  0  0
  7  8  1  0  0  0  0
  7  9  1  0  0  0  0
 10  9  1  1  0  0  0
 10 11  1  0  0  0  0
 10 12  1  0  0  0  0
 11 16  1  0  0  0  0
 12 13  1  1  0  0  0
 12 14  1  0  0  0  0
 14 15  1  6  0  0  0
 14 16  1  0  0  0  0
 16 27  1  6  0  0  0
 18 19  2  0  0  0  0
 18 23  1  0  0  0  0
 19 20  1  0  0  0  0
 20 21  2  0  0  0  0
 21 22  1  0  0  0  0
 21 27  1  0  0  0  0
 22 23  2  0  0  0  0
 22 25  1  0  0  0  0
 23 24  1  0  0  0  0
 25 26  2  0  0  0  0
 26 27  1  0  0  0  0
M  END
>  <CHROM.1>
-57.36588284,-158.02088233,-59.46003342,-66.04639800,53.87088811,119.49309410
177.72239506,39.80040270,23.12087626,12.92128772,1.62577334,0.96787583,0.15157345

>  <Name>
ligand

>  <RI>
0

>  <Rbt.Current_Directory>
/home/itssahil/PROJECTS/Mol_Feturizer/New_Systems/rnas/3IQN

>  <Rbt.Executable>
rbdock ($Id: //depot/dev/client3/rdock/2013.1/src/exe/rbdock.cxx#4 $)

>  <Rbt.Library>
libRbt.so (2013.1, Build901 2013/11/27)

>  <Rbt.Parameter_File>
/export/apps/rDock/src/rDock_2013.1_src/data/scripts/dock_solv.prm

>  <Rbt.Receptor>
prm/blind_docking_60.prm

>  <SCORE>
-2.99646

>  <SCORE.INTER>
-4.92669

>  <SCORE.INTER.CONST>
1

>  <SCORE.INTER.POLAR>
0

>  <SCORE.INTER.ROT>
7

>  <SCORE.INTER.SOLV>
13.2545

>  <SCORE.INTER.VDW>
-15.9693

>  <SCORE.INTER.norm>
-0.18247

>  <SCORE.INTRA>
-0.187042

>  <SCORE.INTRA.DIHEDRAL>
-0.197353

>  <SCORE.INTRA.DIHEDRAL.0>
10.0365

>  <SCORE.INTRA.POLAR>
0

>  <SCORE.INTRA.POLAR.0>
0

>  <SCORE.INTRA.REPUL>
0

>  <SCORE.INTRA.REPUL.0>
0

>  <SCORE.INTRA.SOLV>
-0.768346

>  <SCORE.INTRA.SOLV.lig_0>
-48.6728

>  <SCORE.INTRA.VDW>
0.295808

>  <SCORE.INTRA.VDW.0>
-1.10662

>  <SCORE.INTRA.norm>
-0.00692748

>  <SCORE.RESTR>
2.11726

>  <SCORE.RESTR.CAVITY>
2.11726

>  <SCORE.RESTR.norm>
0.0784172

>  <SCORE.SYSTEM>
0

>  <SCORE.SYSTEM.CONST>
0

>  <SCORE.SYSTEM.DIHEDRAL>
0

>  <SCORE.SYSTEM.SOLV>
0

>  <SCORE.SYSTEM.norm>
0

>  <SCORE.heavy>
27

>  <SCORE.norm>
-0.11098

>  <RMSD>
39.692

$$$$
ligand
 OpenBabel11021811483D
libRbt.so/2013.1/901 2013/11/27
 27 29  0  0  0  0  0  0  0  0999 V2000
   41.4800   29.1570   12.6648 N   0  0  0  0  0  0  0  0  0  0  0  0
   40.0245   29.1799   12.4691 C   0  0  2  0  0  0  0  0  0  0  0  0
   39.4331   30.1767   13.4198 C   0  0  0  0  0  0  0  0  0  0  0  0
   39.5280   30.0007   14.6240 O   0  0  0  0  0  0  0  0  0  0  0  0
   39.4272   27.7923   12.7468 C   0  0  0  0  0  0  0  0  0  0  0  0
   39.9935   27.2643   14.0616 C   0  0  0  0  0  0  0  0  0  0  0  0
   39.2827   25.6656   14.5679 S   0  0  2  0  0  0  0  0  0  0  0  0
   40.1251   25.2653   16.1301 C   0  0  0  0  0  0  0  0  0  0  0  0
   39.9489   24.3038   13.5445 C   0  0  0  0  0  0  0  0  0  0  0  0
   38.9132   23.2179   13.7033 C   0  0  1  0  0  0  0  0  0  0  0  0
   39.1732   22.3528   12.6474 O   0  0  0  0  0  0  0  0  0  0  0  0
   38.9275   22.2543   14.8908 C   0  0  1  0  0  0  0  0  0  0  0  0
   38.1691   22.7203   15.9699 O   0  0  0  0  0  0  0  0  0  0  0  0
   38.3049   20.9692   14.1618 C   0  0  1  0  0  0  0  0  0  0  0  0
   37.0321   21.1957   13.5388 O   0  0  0  0  0  0  0  0  0  0  0  0
   39.4814   21.0189   13.2145 C   0  0  1  0  0  0  0  0  0  0  0  0
   38.8718   31.1698   12.9843 O   0  0  0  0  0  0  0  0  0  0  0  0
   40.4017   16.2745   11.8315 N   0  0  0  0  0  0  0  0  0  0  0  0
   40.0587   16.7952   13.0107 C   0  0  0  0  0  0  0  0  0  0  0  0
   39.8055   18.0950   13.1585 N   0  0  0  0  0  0  0  0  0  0  0  0
   40.0073   18.9565   12.1526 C   0  0  0  0  0  0  0  0  0  0  0  0
   40.4406   18.4452   10.8879 C   0  0  0  0  0  0  0  0  0  0  0  0
   40.6227   17.0398   10.7702 C   0  0  0  0  0  0  0  0  0  0  0  0
   41.0174   16.4697    9.5925 N   0  0  0  0  0  0  0  0  0  0  0  0
   40.5731   19.4989   10.0588 N   0  0  0  0  0  0  0  0  0  0  0  0
   40.2660   20.6034   10.7028 C   0  0  0  0  0  0  0  0  0  0  0  0
   39.8918   20.3416   11.9980 N   0  0  0  0  0  0  0  0  0  0  0  0
  2  1  1  1  0  0  0
  2  3  1  0  0  0  0
  2  5  1  0  0  0  0
  3  4  1  0  0  0  0
  3 17  1  0  0  0  0
  5  6  1  0  0  0  0
  7  6  1  6  0  0  0
  7  8  1  0  0  0  0
  7  9  1  0  0  0  0
 10  9  1  1  0  0  0
 10 11  1  0  0  0  0
 10 12  1  0  0  0  0
 11 16  1  0  0  0  0
 12 13  1  1  0  0  0
 12 14  1  0  0  0  0
 14 15  1  6  0  0  0
 14 16  1  0  0  0  0
 16 27  1  6  0  0  0
 18 19  2  0  0  0  0
 18 23  1  0  0  0  0
 19 20  1  0  0  0  0
 20 21  2  0  0  0  0
 21 22  1  0  0  0  0
 21 27  1  0  0  0  0
 22 23  2  0  0  0  0
 22 25  1  0  0  0  0
 23 24  1  0  0  0  0
 25 26  2  0  0  0  0
 26 27  1  0  0  0  0
M  END
>  <CHROM.1>
-63.33574505,47.39843327,176.23609177,179.56984330,-158.70183599,162.63441997
-168.22040252,39.62129432,23.09950229,13.07880363,-1.66510688,-1.12872937
-3.03836996

>  <Name>
ligand

>  <RI>
0

>  <Rbt.Current_Directory>
/home/itssahil/PROJECTS/Mol_Feturizer/New_Systems/rnas/3IQN

>  <Rbt.Executable>
rbdock ($Id: //depot/dev/client3/rdock/2013.1/src/exe/rbdock.cxx#4 $)

>  <Rbt.Library>
libRbt.so (2013.1, Build901 2013/11/27)

>  <Rbt.Parameter_File>
/export/apps/rDock/src/rDock_2013.1_src/data/scripts/dock_solv.prm

>  <Rbt.Receptor>
prm/blind_docking_60.prm

>  <SCORE>
-4.62997

>  <SCORE.INTER>
-3.94341

>  <SCORE.INTER.CONST>
1

>  <SCORE.INTER.POLAR>
0

>  <SCORE.INTER.ROT>
7

>  <SCORE.INTER.SOLV>
13.3388

>  <SCORE.INTER.VDW>
-15.3419

>  <SCORE.INTER.norm>
-0.146052

>  <SCORE.INTRA>
-1.96073

>  <SCORE.INTRA.DIHEDRAL>
-3.40695

>  <SCORE.INTRA.DIHEDRAL.0>
10.0365

>  <SCORE.INTRA.POLAR>
0

>  <SCORE.INTRA.POLAR.0>
0

>  <SCORE.INTRA.REPUL>
0

>  <SCORE.INTRA.REPUL.0>
0

>  <SCORE.INTRA.SOLV>
-0.0821759

>  <SCORE.INTRA.SOLV.lig_0>
-48.6728

>  <SCORE.INTRA.VDW>
-0.216168

>  <SCORE.INTRA.VDW.0>
-1.10662

>  <SCORE.INTRA.norm>
-0.0726196

>  <SCORE.RESTR>
1.27417

>  <SCORE.RESTR.CAVITY>
1.27417

>  <SCORE.RESTR.norm>
0.0471916

>  <SCORE.SYSTEM>
0

>  <SCORE.SYSTEM.CONST>
0

>  <SCORE.SYSTEM.DIHEDRAL>
0

>  <SCORE.SYSTEM.SOLV>
0

>  <SCORE.SYSTEM.norm>
0

>  <SCORE.heavy>
27

>  <SCORE.norm>
-0.17148

>  <RMSD>
39.720

$$$$
ligand
 OpenBabel11021811483D
libRbt.so/2013.1/901 2013/11/27
 27 29  0  0  0  0  0  0  0  0999 V2000
   41.5395   28.9872   12.7290 N   0  0  0  0  0  0  0  0  0  0  0  0
   40.0878   29.0417   12.5124 C   0  0  2  0  0  0  0  0  0  0  0  0
   39.5105   30.0835   13.4228 C   0  0  0  0  0  0  0  0  0  0  0  0
   39.6437   29.9775   14.6316 O   0  0  0  0  0  0  0  0  0  0  0  0
   39.4503   27.6798   12.8254 C   0  0  0  0  0  0  0  0  0  0  0  0
   39.9351   27.2097   14.1936 C   0  0  0  0  0  0  0  0  0  0  0  0
   39.2656   25.5880   14.6829 S   0  0  2  0  0  0  0  0  0  0  0  0
   40.1442   25.1764   16.2220 C   0  0  0  0  0  0  0  0  0  0  0  0
   39.9399   24.2588   13.6225 C   0  0  0  0  0  0  0  0  0  0  0  0
   38.9083   23.1646   13.7474 C   0  0  1  0  0  0  0  0  0  0  0  0
   39.1876   22.3202   12.6799 O   0  0  0  0  0  0  0  0  0  0  0  0
   38.9119   22.1797   14.9175 C   0  0  1  0  0  0  0  0  0  0  0  0
   38.1362   22.6220   15.9943 O   0  0  0  0  0  0  0  0  0  0  0  0
   38.3065   20.9046   14.1570 C   0  0  1  0  0  0  0  0  0  0  0  0
   37.0411   21.1355   13.5207 O   0  0  0  0  0  0  0  0  0  0  0  0
   39.4956   20.9779   13.2269 C   0  0  1  0  0  0  0  0  0  0  0  0
   38.9224   31.0430   12.9492 O   0  0  0  0  0  0  0  0  0  0  0  0
   40.3550   16.2537   11.7396 N   0  0  0  0  0  0  0  0  0  0  0  0
   39.9894   16.7497   12.9227 C   0  0  0  0  0  0  0  0  0  0  0  0
   39.7594   18.0502   13.0992 N   0  0  0  0  0  0  0  0  0  0  0  0
   40.0081   18.9340   12.1236 C   0  0  0  0  0  0  0  0  0  0  0  0
   40.4667   18.4478   10.8579 C   0  0  0  0  0  0  0  0  0  0  0  0
   40.6224   17.0424   10.7066 C   0  0  0  0  0  0  0  0  0  0  0  0
   41.0387   16.4960    9.5251 N   0  0  0  0  0  0  0  0  0  0  0  0
   40.6451   19.5204   10.0624 N   0  0  0  0  0  0  0  0  0  0  0  0
   40.3430   20.6134   10.7278 C   0  0  0  0  0  0  0  0  0  0  0  0
   39.9264   20.3250   12.0042 N   0  0  0  0  0  0  0  0  0  0  0  0
  2  1  1  1  0  0  0
  2  3  1  0  0  0  0
  2  5  1  0  0  0  0
  3  4  1  0  0  0  0
  3 17  1  0  0  0  0
  5  6  1  0  0  0  0
  7  6  1  6  0  0  0
  7  8  1  0  0  0  0
  7  9  1  0  0  0  0
 10  9  1  1  0  0  0
 10 11  1  0  0  0  0
 10 12  1  0  0  0  0
 11 16  1  0  0  0  0
 12 13  1  1  0  0  0
 12 14  1  0  0  0  0
 14 15  1  6  0  0  0
 14 16  1  0  0  0  0
 16 27  1  6  0  0  0
 18 19  2  0  0  0  0
 18 23  1  0  0  0  0
 19 20  1  0  0  0  0
 20 21  2  0  0  0  0
 21 22  1  0  0  0  0
 21 27  1  0  0  0  0
 22 23  2  0  0  0  0
 22 25  1  0  0  0  0
 23 24  1  0  0  0  0
 25 26  2  0  0  0  0
 26 27  1  0  0  0  0
M  END
>  <CHROM.1>
-59.66084854,50.00002871,-179.35166308,173.24897740,-157.09397582,163.52176649
-166.37917344,39.63423541,23.04387253,13.09585725,-1.65490588,-1.12204382
-3.01879628

>  <Name>
ligand

>  <RI>
0

>  <Rbt.Current_Directory>
/home/itssahil/PROJECTS/Mol_Feturizer/New_Systems/rnas/3IQN

>  <Rbt.Executable>
rbdock ($Id: //depot/dev/client3/rdock/2013.1/src/exe/rbdock.cxx#4 $)

>  <Rbt.Library>
libRbt.so (2013.1, Build901 2013/11/27)

>  <Rbt.Parameter_File>
/export/apps/rDock/src/rDock_2013.1_src/data/scripts/dock_solv.prm

>  <Rbt.Receptor>
prm/blind_docking_60.prm

>  <SCORE>
-4.91548

>  <SCORE.INTER>
-4.04138

>  <SCORE.INTER.CONST>
1

>  <SCORE.INTER.POLAR>
0

>  <SCORE.INTER.ROT>
7

>  <SCORE.INTER.SOLV>
13.4461

>  <SCORE.INTER.VDW>
-15.4429

>  <SCORE.INTER.norm>
-0.149681

>  <SCORE.INTRA>
-2.1895

>  <SCORE.INTRA.DIHEDRAL>
-3.72329

>  <SCORE.INTRA.DIHEDRAL.0>
10.0365

>  <SCORE.INTRA.POLAR>
0

>  <SCORE.INTRA.POLAR.0>
0

>  <SCORE.INTRA.REPUL>
0

>  <SCORE.INTRA.REPUL.0>
0

>  <SCORE.INTRA.SOLV>
-0.0978071

>  <SCORE.INTRA.SOLV.lig_0>
-48.6728

>  <SCORE.INTRA.VDW>
-0.278957

>  <SCORE.INTRA.VDW.0>
-1.10662

>  <SCORE.INTRA.norm>
-0.0810927

>  <SCORE.RESTR>
1.3154

>  <SCORE.RESTR.CAVITY>
1.3154

>  <SCORE.RESTR.norm>
0.0487185

>  <SCORE.SYSTEM>
0

>  <SCORE.SYSTEM.CONST>
0

>  <SCORE.SYSTEM.DIHEDRAL>
0

>  <SCORE.SYSTEM.SOLV>
0

>  <SCORE.SYSTEM.norm>
0

>  <SCORE.heavy>
27

>  <SCORE.norm>
-0.182055

>  <RMSD>
39.753

$$$$
ligand
 OpenBabel11021811483D
libRbt.so/2013.1/901 2013/11/27
 27 29  0  0  0  0  0  0  0  0999 V2000
   40.0647   27.9660   12.7175 N   0  0  0  0  0  0  0  0  0  0  0  0
   39.1164   28.3351   13.7766 C   0  0  2  0  0  0  0  0  0  0  0  0
   39.1204   29.8275   13.9187 C   0  0  0  0  0  0  0  0  0  0  0  0
   38.5030   30.3543   14.8305 O   0  0  0  0  0  0  0  0  0  0  0  0
   39.5295   27.6939   15.1098 C   0  0  0  0  0  0  0  0  0  0  0  0
   39.3082   26.1866   15.0230 C   0  0  0  0  0  0  0  0  0  0  0  0
   40.5754   25.3226   14.0406 S   0  0  2  0  0  0  0  0  0  0  0  0
   39.7560   24.9577   12.4576 C   0  0  0  0  0  0  0  0  0  0  0  0
   40.7987   23.6061   14.6318 C   0  0  0  0  0  0  0  0  0  0  0  0
   39.4276   23.0015   14.4536 C   0  0  1  0  0  0  0  0  0  0  0  0
   39.5363   22.2709   13.2768 O   0  0  0  0  0  0  0  0  0  0  0  0
   38.8790   21.9445   15.4132 C   0  0  1  0  0  0  0  0  0  0  0  0
   38.1650   22.5043   16.4779 O   0  0  0  0  0  0  0  0  0  0  0  0
   37.9698   21.1292   14.3743 C   0  0  1  0  0  0  0  0  0  0  0  0
   36.9992   21.9255   13.6791 O   0  0  0  0  0  0  0  0  0  0  0  0
   39.2309   20.8546   13.5880 C   0  0  1  0  0  0  0  0  0  0  0  0
   39.7553   30.5093   13.1294 O   0  0  0  0  0  0  0  0  0  0  0  0
   40.3934   16.2593   11.9146 N   0  0  0  0  0  0  0  0  0  0  0  0
   40.1264   16.7056   13.1430 C   0  0  0  0  0  0  0  0  0  0  0  0
   39.7841   17.9728   13.3717 N   0  0  0  0  0  0  0  0  0  0  0  0
   39.8160   18.8845   12.3905 C   0  0  0  0  0  0  0  0  0  0  0  0
   40.1636   18.4583   11.0691 C   0  0  0  0  0  0  0  0  0  0  0  0
   40.4468   17.0787   10.8723 C   0  0  0  0  0  0  0  0  0  0  0  0
   40.7693   16.5876    9.6385 N   0  0  0  0  0  0  0  0  0  0  0  0
   40.1284   19.5490   10.2789 N   0  0  0  0  0  0  0  0  0  0  0  0
   39.7972   20.5991   10.9975 C   0  0  0  0  0  0  0  0  0  0  0  0
   39.5740   20.2595   12.3093 N   0  0  0  0  0  0  0  0  0  0  0  0
  2  1  1  6  0  0  0
  2  3  1  0  0  0  0
  2  5  1  0  0  0  0
  3  4  1  0  0  0  0
  3 17  1  0  0  0  0
  5  6  1  0  0  0  0
  7  6  1  1  0  0  0
  7  8  1  0  0  0  0
  7  9  1  0  0  0  0
 10  9  1  1  0  0  0
 10 11  1  0  0  0  0
 10 12  1  0  0  0  0
 11 16  1  0  0  0  0
 12 13  1  1  0  0  0
 12 14  1  0  0  0  0
 14 15  1  6  0  0  0
 14 16  1  0  0  0  0
 16 27  1  6  0  0  0
 18 19  2  0  0  0  0
 18 23  1  0  0  0  0
 19 20  1  0  0  0  0
 20 21  2  0  0  0  0
 21 22  1  0  0  0  0
 21 27  1  0  0  0  0
 22 23  2  0  0  0  0
 22 25  1  0  0  0  0
 23 24  1  0  0  0  0
 25 26  2  0  0  0  0
 26 27  1  0  0  0  0
M  END
>  <CHROM.1>
-172.84740258,-69.67412267,75.85477277,-103.87197624,59.70861347,100.65940500
160.15225833,39.56623085,22.89256070,13.30270289,-1.70912111,-1.17126611
-3.05279678

>  <Name>
ligand

>  <RI>
0

>  <Rbt.Current_Directory>
/home/itssahil/PROJECTS/Mol_Feturizer/New_Systems/rnas/3IQN

>  <Rbt.Executable>
rbdock ($Id: //depot/dev/client3/rdock/2013.1/src/exe/rbdock.cxx#4 $)

>  <Rbt.Library>
libRbt.so (2013.1, Build901 2013/11/27)

>  <Rbt.Parameter_File>
/export/apps/rDock/src/rDock_2013.1_src/data/scripts/dock_solv.prm

>  <Rbt.Receptor>
prm/blind_docking_60.prm

>  <SCORE>
0.879521

>  <SCORE.INTER>
-4.8596

>  <SCORE.INTER.CONST>
1

>  <SCORE.INTER.POLAR>
0

>  <SCORE.INTER.ROT>
7

>  <SCORE.INTER.SOLV>
8.15864

>  <SCORE.INTER.VDW>
-14.2259

>  <SCORE.INTER.norm>
-0.179985

>  <SCORE.INTRA>
3.97495

>  <SCORE.INTRA.DIHEDRAL>
1.28035

>  <SCORE.INTRA.DIHEDRAL.0>
10.0365

>  <SCORE.INTRA.POLAR>
0

>  <SCORE.INTRA.POLAR.0>
0

>  <SCORE.INTRA.REPUL>
0

>  <SCORE.INTRA.REPUL.0>
0

>  <SCORE.INTRA.SOLV>
2.11522

>  <SCORE.INTRA.SOLV.lig_0>
-48.6728

>  <SCORE.INTRA.VDW>
2.27716

>  <SCORE.INTRA.VDW.0>
-1.10662

>  <SCORE.INTRA.norm>
0.14722

>  <SCORE.RESTR>
1.76417

>  <SCORE.RESTR.CAVITY>
1.76417

>  <SCORE.RESTR.norm>
0.0653396

>  <SCORE.SYSTEM>
0

>  <SCORE.SYSTEM.CONST>
0

>  <SCORE.SYSTEM.DIHEDRAL>
0

>  <SCORE.SYSTEM.SOLV>
0

>  <SCORE.SYSTEM.norm>
0

>  <SCORE.heavy>
27

>  <SCORE.norm>
0.0325748

>  <RMSD>
39.765

$$$$
ligand
 OpenBabel11021811483D
libRbt.so/2013.1/901 2013/11/27
 27 29  0  0  0  0  0  0  0  0999 V2000
   39.4468   28.6721   10.9440 N   0  0  0  0  0  0  0  0  0  0  0  0
   39.5085   28.3967   12.3854 C   0  0  2  0  0  0  0  0  0  0  0  0
   39.5134   29.7041   13.1190 C   0  0  0  0  0  0  0  0  0  0  0  0
   38.8328   29.8418   14.1229 O   0  0  0  0  0  0  0  0  0  0  0  0
   40.7868   27.6155   12.7249 C   0  0  0  0  0  0  0  0  0  0  0  0
   40.7321   27.1904   14.1894 C   0  0  0  0  0  0  0  0  0  0  0  0
   39.6667   25.7432   14.4855 S   0  0  2  0  0  0  0  0  0  0  0  0
   40.0237   25.2566   16.2019 C   0  0  0  0  0  0  0  0  0  0  0  0
   40.3304   24.2627   13.6408 C   0  0  0  0  0  0  0  0  0  0  0  0
   39.1765   23.2918   13.6943 C   0  0  1  0  0  0  0  0  0  0  0  0
   39.4245   22.4214   12.6400 O   0  0  0  0  0  0  0  0  0  0  0  0
   38.9966   22.3127   14.8553 C   0  0  1  0  0  0  0  0  0  0  0  0
   38.2103   22.8396   15.8854 O   0  0  0  0  0  0  0  0  0  0  0  0
   38.2998   21.1141   14.0500 C   0  0  1  0  0  0  0  0  0  0  0  0
   37.1103   21.4864   13.3386 O   0  0  0  0  0  0  0  0  0  0  0  0
   39.5449   21.0529   13.1955 C   0  0  1  0  0  0  0  0  0  0  0  0
   40.2115   30.6215   12.7168 O   0  0  0  0  0  0  0  0  0  0  0  0
   40.2799   16.2676   11.8428 N   0  0  0  0  0  0  0  0  0  0  0  0
   39.9112   16.8050   13.0067 C   0  0  0  0  0  0  0  0  0  0  0  0
   39.7192   18.1161   13.1464 N   0  0  0  0  0  0  0  0  0  0  0  0
   40.0108   18.9664   12.1530 C   0  0  0  0  0  0  0  0  0  0  0  0
   40.4740   18.4337   10.9078 C   0  0  0  0  0  0  0  0  0  0  0  0
   40.5881   17.0207   10.7947 C   0  0  0  0  0  0  0  0  0  0  0  0
   41.0058   16.4314    9.6346 N   0  0  0  0  0  0  0  0  0  0  0  0
   40.6983   19.4794   10.0884 N   0  0  0  0  0  0  0  0  0  0  0  0
   40.4200   20.5980   10.7208 C   0  0  0  0  0  0  0  0  0  0  0  0
   39.9744   20.3556   11.9970 N   0  0  0  0  0  0  0  0  0  0  0  0
  2  1  1  6  0  0  0
  2  3  1  0  0  0  0
  2  5  1  0  0  0  0
  3  4  1  0  0  0  0
  3 17  1  0  0  0  0
  5  6  1  0  0  0  0
  7  6  1  6  0  0  0
  7  8  1  0  0  0  0
  7  9  1  0  0  0  0
 10  9  1  1  0  0  0
 10 11  1  0  0  0  0
 10 12  1  0  0  0  0
 11 16  1  0  0  0  0
 12 13  1  1  0  0  0
 12 14  1  0  0  0  0
 14 15  1  6  0  0  0
 14 16  1  0  0  0  0
 16 27  1  6  0  0  0
 18 19  2  0  0  0  0
 18 23  1  0  0  0  0
 19 20  1  0  0  0  0
 20 21  2  0  0  0  0
 21 22  1  0  0  0  0
 21 27  1  0  0  0  0
 22 23  2  0  0  0  0
 22 25  1  0  0  0  0
 23 24  1  0  0  0  0
 25 26  2  0  0  0  0
 26 27  1  0  0  0  0
M  END
>  <CHROM.1>
137.33645039,-172.74246547,78.30616649,169.45853614,-166.11572221,156.60454972
-172.01075381,39.70481118,23.03642873,12.96327954,-1.67144529,-1.20895962
-3.06546637

>  <Name>
ligand

>  <RI>
0

>  <Rbt.Current_Directory>
/home/itssahil/PROJECTS/Mol_Feturizer/New_Systems/rnas/3IQN

>  <Rbt.Executable>
rbdock ($Id: //depot/dev/client3/rdock/2013.1/src/exe/rbdock.cxx#4 $)

>  <Rbt.Library>
libRbt.so (2013.1, Build901 2013/11/27)

>  <Rbt.Parameter_File>
/export/apps/rDock/src/rDock_2013.1_src/data/scripts/dock_solv.prm

>  <Rbt.Receptor>
prm/blind_docking_60.prm

>  <SCORE>
-8.08126

>  <SCORE.INTER>
-6.22415

>  <SCORE.INTER.CONST>
1

>  <SCORE.INTER.POLAR>
0

>  <SCORE.INTER.ROT>
7

>  <SCORE.INTER.SOLV>
8.80781

>  <SCORE.INTER.VDW>
-15.352

>  <SCORE.INTER.norm>
-0.230524

>  <SCORE.INTRA>
-3.12926

>  <SCORE.INTRA.DIHEDRAL>
-2.94895

>  <SCORE.INTRA.DIHEDRAL.0>
10.0365

>  <SCORE.INTRA.POLAR>
0

>  <SCORE.INTRA.POLAR.0>
0

>  <SCORE.INTRA.REPUL>
0

>  <SCORE.INTRA.REPUL.0>
0

>  <SCORE.INTRA.SOLV>
-0.858724

>  <SCORE.INTRA.SOLV.lig_0>
-48.6728

>  <SCORE.INTRA.VDW>
-1.22542

>  <SCORE.INTRA.VDW.0>
-1.10662

>  <SCORE.INTRA.norm>
-0.115898

>  <SCORE.RESTR>
1.27215

>  <SCORE.RESTR.CAVITY>
1.27215

>  <SCORE.RESTR.norm>
0.0471167

>  <SCORE.SYSTEM>
0

>  <SCORE.SYSTEM.CONST>
0

>  <SCORE.SYSTEM.DIHEDRAL>
0

>  <SCORE.SYSTEM.SOLV>
0

>  <SCORE.SYSTEM.norm>
0

>  <SCORE.heavy>
27

>  <SCORE.norm>
-0.299306

>  <RMSD>
39.795

$$$$
ligand
 OpenBabel11021811483D
libRbt.so/2013.1/901 2013/11/27
 27 29  0  0  0  0  0  0  0  0999 V2000
   39.4323   28.7275   10.9726 N   0  0  0  0  0  0  0  0  0  0  0  0
   39.4855   28.4209   12.4080 C   0  0  2  0  0  0  0  0  0  0  0  0
   39.4744   29.7119   13.1701 C   0  0  0  0  0  0  0  0  0  0  0  0
   38.8405   29.8002   14.2096 O   0  0  0  0  0  0  0  0  0  0  0  0
   40.7675   27.6427   12.7401 C   0  0  0  0  0  0  0  0  0  0  0  0
   40.7125   27.1987   14.1989 C   0  0  0  0  0  0  0  0  0  0  0  0
   39.6522   25.7437   14.4750 S   0  0  2  0  0  0  0  0  0  0  0  0
   40.0381   25.2126   16.1719 C   0  0  0  0  0  0  0  0  0  0  0  0
   40.3018   24.2861   13.5809 C   0  0  0  0  0  0  0  0  0  0  0  0
   39.1594   23.3028   13.6535 C   0  0  1  0  0  0  0  0  0  0  0  0
   39.4043   22.4295   12.6008 O   0  0  0  0  0  0  0  0  0  0  0  0
   39.0046   22.3280   14.8218 C   0  0  1  0  0  0  0  0  0  0  0  0
   38.2251   22.8517   15.8586 O   0  0  0  0  0  0  0  0  0  0  0  0
   38.3114   21.1175   14.0313 C   0  0  1  0  0  0  0  0  0  0  0  0
   37.1093   21.4727   13.3325 O   0  0  0  0  0  0  0  0  0  0  0  0
   39.5467   21.0654   13.1620 C   0  0  1  0  0  0  0  0  0  0  0  0
   40.1132   30.6659   12.7547 O   0  0  0  0  0  0  0  0  0  0  0  0
   40.3129   16.2810   11.8238 N   0  0  0  0  0  0  0  0  0  0  0  0
   39.9523   16.8205   12.9893 C   0  0  0  0  0  0  0  0  0  0  0  0
   39.7491   18.1303   13.1249 N   0  0  0  0  0  0  0  0  0  0  0  0
   40.0210   18.9785   12.1242 C   0  0  0  0  0  0  0  0  0  0  0  0
   40.4752   18.4443   10.8764 C   0  0  0  0  0  0  0  0  0  0  0  0
   40.6018   17.0320   10.7687 C   0  0  0  0  0  0  0  0  0  0  0  0
   41.0120   16.4410    9.6067 N   0  0  0  0  0  0  0  0  0  0  0  0
   40.6800   19.4881   10.0495 N   0  0  0  0  0  0  0  0  0  0  0  0
   40.3980   20.6071   10.6797 C   0  0  0  0  0  0  0  0  0  0  0  0
   39.9693   20.3666   11.9620 N   0  0  0  0  0  0  0  0  0  0  0  0
  2  1  1  6  0  0  0
  2  3  1  0  0  0  0
  2  5  1  0  0  0  0
  3  4  1  0  0  0  0
  3 17  1  0  0  0  0
  5  6  1  0  0  0  0
  7  6  1  6  0  0  0
  7  8  1  0  0  0  0
  7  9  1  0  0  0  0
 10  9  1  1  0  0  0
 10 11  1  0  0  0  0
 10 12  1  0  0  0  0
 11 16  1  0  0  0  0
 12 13  1  1  0  0  0
 12 14  1  0  0  0  0
 14 15  1  6  0  0  0
 14 16  1  0  0  0  0
 16 27  1  6  0  0  0
 18 19  2  0  0  0  0
 18 23  1  0  0  0  0
 19 20  1  0  0  0  0
 20 21  2  0  0  0  0
 21 22  1  0  0  0  0
 21 27  1  0  0  0  0
 22 23  2  0  0  0  0
 22 25  1  0  0  0  0
 23 24  1  0  0  0  0
 25 26  2  0  0  0  0
 26 27  1  0  0  0  0
M  END
>  <CHROM.1>
141.16300992,-173.37893005,78.20441533,168.15035406,-167.25714357,158.43009572
-171.91671228,39.69843951,23.04555384,12.95170864,-1.68374577,-1.21366781
-3.07226602

>  <Name>
ligand

>  <RI>
0

>  <Rbt.Current_Directory>
/home/itssahil/PROJECTS/Mol_Feturizer/New_Systems/rnas/3IQN

>  <Rbt.Executable>
rbdock ($Id: //depot/dev/client3/rdock/2013.1/src/exe/rbdock.cxx#4 $)

>  <Rbt.Library>
libRbt.so (2013.1, Build901 2013/11/27)

>  <Rbt.Parameter_File>
/export/apps/rDock/src/rDock_2013.1_src/data/scripts/dock_solv.prm

>  <Rbt.Receptor>
prm/blind_docking_60.prm

>  <SCORE>
-8.23979

>  <SCORE.INTER>
-6.40907

>  <SCORE.INTER.CONST>
1

>  <SCORE.INTER.POLAR>
0

>  <SCORE.INTER.ROT>
7

>  <SCORE.INTER.SOLV>
8.71311

>  <SCORE.INTER.VDW>
-15.4437

>  <SCORE.INTER.norm>
-0.237373

>  <SCORE.INTRA>
-3.12906

>  <SCORE.INTRA.DIHEDRAL>
-3.30524

>  <SCORE.INTRA.DIHEDRAL.0>
10.0365

>  <SCORE.INTRA.POLAR>
0

>  <SCORE.INTRA.POLAR.0>
0

>  <SCORE.INTRA.REPUL>
0

>  <SCORE.INTRA.REPUL.0>
0

>  <SCORE.INTRA.SOLV>
-0.841259

>  <SCORE.INTRA.SOLV.lig_0>
-48.6728

>  <SCORE.INTRA.VDW>
-1.05581

>  <SCORE.INTRA.VDW.0>
-1.10662

>  <SCORE.INTRA.norm>
-0.115891

>  <SCORE.RESTR>
1.29834

>  <SCORE.RESTR.CAVITY>
1.29834

>  <SCORE.RESTR.norm>
0.0480865

>  <SCORE.SYSTEM>
0

>  <SCORE.SYSTEM.CONST>
0

>  <SCORE.SYSTEM.DIHEDRAL>
0

>  <SCORE.SYSTEM.SOLV>
0

>  <SCORE.SYSTEM.norm>
0

>  <SCORE.heavy>
27

>  <SCORE.norm>
-0.305177

>  <RMSD>
39.795

$$$$
ligand
 OpenBabel11021811483D
libRbt.so/2013.1/901 2013/11/27
 27 29  0  0  0  0  0  0  0  0999 V2000
   39.4637   28.8331   11.0020 N   0  0  0  0  0  0  0  0  0  0  0  0
   39.5081   28.4586   12.4215 C   0  0  2  0  0  0  0  0  0  0  0  0
   39.5223   29.7123   13.2433 C   0  0  0  0  0  0  0  0  0  0  0  0
   40.0339   30.7271   12.7975 O   0  0  0  0  0  0  0  0  0  0  0  0
   40.7731   27.6392   12.7177 C   0  0  0  0  0  0  0  0  0  0  0  0
   40.7334   27.1764   14.1711 C   0  0  0  0  0  0  0  0  0  0  0  0
   39.6490   25.7389   14.4455 S   0  0  2  0  0  0  0  0  0  0  0  0
   39.9637   25.2519   16.1701 C   0  0  0  0  0  0  0  0  0  0  0  0
   40.3183   24.2514   13.6178 C   0  0  0  0  0  0  0  0  0  0  0  0
   39.1631   23.2820   13.6693 C   0  0  1  0  0  0  0  0  0  0  0  0
   39.4083   22.4152   12.6113 O   0  0  0  0  0  0  0  0  0  0  0  0
   38.9836   22.2987   14.8269 C   0  0  1  0  0  0  0  0  0  0  0  0
   38.1997   22.8228   15.8602 O   0  0  0  0  0  0  0  0  0  0  0  0
   38.2840   21.1041   14.0181 C   0  0  1  0  0  0  0  0  0  0  0  0
   37.0939   21.4807   13.3100 O   0  0  0  0  0  0  0  0  0  0  0  0
   39.5277   21.0444   13.1615 C   0  0  1  0  0  0  0  0  0  0  0  0
   39.0073   29.7167   14.3503 O   0  0  0  0  0  0  0  0  0  0  0  0
   40.3017   16.2665   11.8046 N   0  0  0  0  0  0  0  0  0  0  0  0
   39.9373   16.8006   12.9714 C   0  0  0  0  0  0  0  0  0  0  0  0
   39.7326   18.1096   13.1121 N   0  0  0  0  0  0  0  0  0  0  0  0
   40.0068   18.9624   12.1159 C   0  0  0  0  0  0  0  0  0  0  0  0
   40.4650   18.4340   10.8671 C   0  0  0  0  0  0  0  0  0  0  0  0
   40.5931   17.0223   10.7536 C   0  0  0  0  0  0  0  0  0  0  0  0
   41.0071   16.4368    9.5903 N   0  0  0  0  0  0  0  0  0  0  0  0
   40.6713   19.4816   10.0454 N   0  0  0  0  0  0  0  0  0  0  0  0
   40.3865   20.5976   10.6797 C   0  0  0  0  0  0  0  0  0  0  0  0
   39.9544   20.3511   11.9597 N   0  0  0  0  0  0  0  0  0  0  0  0
  2  1  1  6  0  0  0
  2  3  1  0  0  0  0
  2  5  1  0  0  0  0
  3  4  1  0  0  0  0
  3 17  1  0  0  0  0
  5  6  1  0  0  0  0
  7  6  1  6  0  0  0
  7  8  1  0  0  0  0
  7  9  1  0  0  0  0
 10  9  1  1  0  0  0
 10 11  1  0  0  0  0
 10 12  1  0  0  0  0
 11 16  1  0  0  0  0
 12 13  1  1  0  0  0
 12 14  1  0  0  0  0
 14 15  1  6  0  0  0
 14 16  1  0  0  0  0
 16 27  1  6  0  0  0
 18 19  2  0  0  0  0
 18 23  1  0  0  0  0
 19 20  1  0  0  0  0
 20 21  2  0  0  0  0
 21 22  1  0  0  0  0
 21 27  1  0  0  0  0
 22 23  2  0  0  0  0
 22 25  1  0  0  0  0
 23 24  1  0  0  0  0
 25 26  2  0  0  0  0
 26 27  1  0  0  0  0
M  END
>  <CHROM.1>
-30.20827388,-175.66349625,78.74496308,172.15681983,-167.10517048,155.74051393
-172.83936301,39.69631348,23.04017186,12.95631416,-1.67184713,-1.20625428
-3.05772869

>  <Name>
ligand

>  <RI>
0

>  <Rbt.Current_Directory>
/home/itssahil/PROJECTS/Mol_Feturizer/New_Systems/rnas/3IQN

>  <Rbt.Executable>
rbdock ($Id: //depot/dev/client3/rdock/2013.1/src/exe/rbdock.cxx#4 $)

>  <Rbt.Library>
libRbt.so (2013.1, Build901 2013/11/27)

>  <Rbt.Parameter_File>
/export/apps/rDock/src/rDock_2013.1_src/data/scripts/dock_solv.prm

>  <Rbt.Receptor>
prm/blind_docking_60.prm

>  <SCORE>
-8.05793

>  <SCORE.INTER>
-6.45562

>  <SCORE.INTER.CONST>
1

>  <SCORE.INTER.POLAR>
0

>  <SCORE.INTER.ROT>
7

>  <SCORE.INTER.SOLV>
8.61576

>  <SCORE.INTER.VDW>
-15.4423

>  <SCORE.INTER.norm>
-0.239097

>  <SCORE.INTRA>
-2.90076

>  <SCORE.INTRA.DIHEDRAL>
-2.99266

>  <SCORE.INTRA.DIHEDRAL.0>
10.0365

>  <SCORE.INTRA.POLAR>
0

>  <SCORE.INTRA.POLAR.0>
0

>  <SCORE.INTRA.REPUL>
0

>  <SCORE.INTRA.REPUL.0>
0

>  <SCORE.INTRA.SOLV>
-0.844864

>  <SCORE.INTRA.SOLV.lig_0>
-48.6728

>  <SCORE.INTRA.VDW>
-0.981996

>  <SCORE.INTRA.VDW.0>
-1.10662

>  <SCORE.INTRA.norm>
-0.107435

>  <SCORE.RESTR>
1.29844

>  <SCORE.RESTR.CAVITY>
1.29844

>  <SCORE.RESTR.norm>
0.0480905

>  <SCORE.SYSTEM>
0

>  <SCORE.SYSTEM.CONST>
0

>  <SCORE.SYSTEM.DIHEDRAL>
0

>  <SCORE.SYSTEM.SOLV>
0

>  <SCORE.SYSTEM.norm>
0

>  <SCORE.heavy>
27

>  <SCORE.norm>
-0.298442

>  <RMSD>
39.800

$$$$
ligand
 OpenBabel11021811483D
libRbt.so/2013.1/901 2013/11/27
 27 29  0  0  0  0  0  0  0  0999 V2000
   39.4505   28.7643   10.9839 N   0  0  0  0  0  0  0  0  0  0  0  0
   39.4876   28.4263   12.4128 C   0  0  2  0  0  0  0  0  0  0  0  0
   39.4793   29.7005   13.2026 C   0  0  0  0  0  0  0  0  0  0  0  0
   38.9054   29.7463   14.2790 O   0  0  0  0  0  0  0  0  0  0  0  0
   40.7601   27.6307   12.7399 C   0  0  0  0  0  0  0  0  0  0  0  0
   40.7039   27.1860   14.1984 C   0  0  0  0  0  0  0  0  0  0  0  0
   39.6406   25.7330   14.4736 S   0  0  2  0  0  0  0  0  0  0  0  0
   40.0044   25.2172   16.1800 C   0  0  0  0  0  0  0  0  0  0  0  0
   40.3023   24.2678   13.6010 C   0  0  0  0  0  0  0  0  0  0  0  0
   39.1572   23.2869   13.6621 C   0  0  1  0  0  0  0  0  0  0  0  0
   39.4071   22.4173   12.6076 O   0  0  0  0  0  0  0  0  0  0  0  0
   38.9924   22.3078   14.8254 C   0  0  1  0  0  0  0  0  0  0  0  0
   38.2073   22.8291   15.8592 O   0  0  0  0  0  0  0  0  0  0  0  0
   38.3018   21.1021   14.0255 C   0  0  1  0  0  0  0  0  0  0  0  0
   37.1051   21.4628   13.3202 O   0  0  0  0  0  0  0  0  0  0  0  0
   39.5426   21.0506   13.1642 C   0  0  1  0  0  0  0  0  0  0  0  0
   40.0611   30.6838   12.7718 O   0  0  0  0  0  0  0  0  0  0  0  0
   40.2912   16.2688   11.8070 N   0  0  0  0  0  0  0  0  0  0  0  0
   39.9236   16.8042   12.9721 C   0  0  0  0  0  0  0  0  0  0  0  0
   39.7272   18.1145   13.1130 N   0  0  0  0  0  0  0  0  0  0  0  0
   40.0133   18.9663   12.1193 C   0  0  0  0  0  0  0  0  0  0  0  0
   40.4753   18.4360   10.8728 C   0  0  0  0  0  0  0  0  0  0  0  0
   40.5942   17.0235   10.7585 C   0  0  0  0  0  0  0  0  0  0  0  0
   41.0110   16.4363    9.5971 N   0  0  0  0  0  0  0  0  0  0  0  0
   40.6939   19.4830   10.0534 N   0  0  0  0  0  0  0  0  0  0  0  0
   40.4131   20.6003   10.6871 C   0  0  0  0  0  0  0  0  0  0  0  0
   39.9716   20.3556   11.9643 N   0  0  0  0  0  0  0  0  0  0  0  0
  2  1  1  6  0  0  0
  2  3  1  0  0  0  0
  2  5  1  0  0  0  0
  3  4  1  0  0  0  0
  3 17  1  0  0  0  0
  5  6  1  0  0  0  0
  7  6  1  6  0  0  0
  7  8  1  0  0  0  0
  7  9  1  0  0  0  0
 10  9  1  1  0  0  0
 10 11  1  0  0  0  0
 10 12  1  0  0  0  0
 11 16  1  0  0  0  0
 12 13  1  1  0  0  0
 12 14  1  0  0  0  0
 14 15  1  6  0  0  0
 14 16  1  0  0  0  0
 16 27  1  6  0  0  0
 18 19  2  0  0  0  0
 18 23  1  0  0  0  0
 19 20  1  0  0  0  0
 20 21  2  0  0  0  0
 21 22  1  0  0  0  0
 21 27  1  0  0  0  0
 22 23  2  0  0  0  0
 22 25  1  0  0  0  0
 23 24  1  0  0  0  0
 25 26  2  0  0  0  0
 26 27  1  0  0  0  0
M  END
>  <CHROM.1>
145.73293043,-174.80545028,78.88126234,169.07545896,-167.01959709,157.56985671
-171.64631389,39.69339848,23.03557986,12.95577659,-1.68009453,-1.20951459
-3.06651994

>  <Name>
ligand

>  <RI>
0

>  <Rbt.Current_Directory>
/home/itssahil/PROJECTS/Mol_Feturizer/New_Systems/rnas/3IQN

>  <Rbt.Executable>
rbdock ($Id: //depot/dev/client3/rdock/2013.1/src/exe/rbdock.cxx#4 $)

>  <Rbt.Library>
libRbt.so (2013.1, Build901 2013/11/27)

>  <Rbt.Parameter_File>
/export/apps/rDock/src/rDock_2013.1_src/data/scripts/dock_solv.prm

>  <Rbt.Receptor>
prm/blind_docking_60.prm

>  <SCORE>
-8.19894

>  <SCORE.INTER>
-6.45681

>  <SCORE.INTER.CONST>
1

>  <SCORE.INTER.POLAR>
0

>  <SCORE.INTER.ROT>
7

>  <SCORE.INTER.SOLV>
8.63959

>  <SCORE.INTER.VDW>
-15.4511

>  <SCORE.INTER.norm>
-0.239141

>  <SCORE.INTRA>
-3.03458

>  <SCORE.INTRA.DIHEDRAL>
-3.19158

>  <SCORE.INTRA.DIHEDRAL.0>
10.0365

>  <SCORE.INTRA.POLAR>
0

>  <SCORE.INTRA.POLAR.0>
0

>  <SCORE.INTRA.REPUL>
0

>  <SCORE.INTRA.REPUL.0>
0

>  <SCORE.INTRA.SOLV>
-0.843498

>  <SCORE.INTRA.SOLV.lig_0>
-48.6728

>  <SCORE.INTRA.VDW>
-1.01704

>  <SCORE.INTRA.VDW.0>
-1.10662

>  <SCORE.INTRA.norm>
-0.112392

>  <SCORE.RESTR>
1.29246

>  <SCORE.RESTR.CAVITY>
1.29246

>  <SCORE.RESTR.norm>
0.0478688

>  <SCORE.SYSTEM>
0

>  <SCORE.SYSTEM.CONST>
0

>  <SCORE.SYSTEM.DIHEDRAL>
0

>  <SCORE.SYSTEM.SOLV>
0

>  <SCORE.SYSTEM.norm>
0

>  <SCORE.heavy>
27

>  <SCORE.norm>
-0.303664

>  <RMSD>
39.803

$$$$
ligand
 OpenBabel11021811483D
libRbt.so/2013.1/901 2013/11/27
 27 29  0  0  0  0  0  0  0  0999 V2000
   41.9848   28.2997   11.5007 N   0  0  0  0  0  0  0  0  0  0  0  0
   40.7025   28.2884   12.2168 C   0  0  2  0  0  0  0  0  0  0  0  0
   40.3795   29.6915   12.6345 C   0  0  0  0  0  0  0  0  0  0  0  0
   40.4906   30.6063   11.8340 O   0  0  0  0  0  0  0  0  0  0  0  0
   40.7946   27.3932   13.4615 C   0  0  0  0  0  0  0  0  0  0  0  0
   39.4013   27.2400   14.0645 C   0  0  0  0  0  0  0  0  0  0  0  0
   39.0729   25.5718   14.7177 S   0  0  2  0  0  0  0  0  0  0  0  0
   40.2339   25.3881   16.1065 C   0  0  0  0  0  0  0  0  0  0  0  0
   39.7686   24.2913   13.6121 C   0  0  0  0  0  0  0  0  0  0  0  0
   38.7878   23.1525   13.7475 C   0  0  1  0  0  0  0  0  0  0  0  0
   39.1131   22.3060   12.6947 O   0  0  0  0  0  0  0  0  0  0  0  0
   38.8289   22.1865   14.9325 C   0  0  1  0  0  0  0  0  0  0  0  0
   38.0262   22.6086   15.9976 O   0  0  0  0  0  0  0  0  0  0  0  0
   38.2883   20.8735   14.1879 C   0  0  1  0  0  0  0  0  0  0  0  0
   37.0180   21.0359   13.5404 O   0  0  0  0  0  0  0  0  0  0  0  0
   39.4791   20.9878   13.2642 C   0  0  1  0  0  0  0  0  0  0  0  0
   39.9910   29.9108   13.7711 O   0  0  0  0  0  0  0  0  0  0  0  0
   40.3302   16.2623   11.7764 N   0  0  0  0  0  0  0  0  0  0  0  0
   39.9258   16.7552   12.9481 C   0  0  0  0  0  0  0  0  0  0  0  0
   39.7072   18.0576   13.1252 N   0  0  0  0  0  0  0  0  0  0  0  0
   40.0058   18.9445   12.1665 C   0  0  0  0  0  0  0  0  0  0  0  0
   40.5064   18.4605   10.9160 C   0  0  0  0  0  0  0  0  0  0  0  0
   40.6484   17.0541   10.7604 C   0  0  0  0  0  0  0  0  0  0  0  0
   41.1027   16.5100    9.5920 N   0  0  0  0  0  0  0  0  0  0  0  0
   40.7304   19.5359   10.1359 N   0  0  0  0  0  0  0  0  0  0  0  0
   40.4178   20.6285   10.7971 C   0  0  0  0  0  0  0  0  0  0  0  0
   39.9480   20.3373   12.0543 N   0  0  0  0  0  0  0  0  0  0  0  0
  2  1  1  1  0  0  0
  2  3  1  0  0  0  0
  2  5  1  0  0  0  0
  3  4  1  0  0  0  0
  3 17  1  0  0  0  0
  5  6  1  0  0  0  0
  7  6  1  6  0  0  0
  7  8  1  0  0  0  0
  7  9  1  0  0  0  0
 10  9  1  1  0  0  0
 10 11  1  0  0  0  0
 10 12  1  0  0  0  0
 11 16  1  0  0  0  0
 12 13  1  1  0  0  0
 12 14  1  0  0  0  0
 14 15  1  6  0  0  0
 14 16  1  0  0  0  0
 16 27  1  6  0  0  0
 18 19  2  0  0  0  0
 18 23  1  0  0  0  0
 19 20  1  0  0  0  0
 20 21  2  0  0  0  0
 21 22  1  0  0  0  0
 21 27  1  0  0  0  0
 22 23  2  0  0  0  0
 22 25  1  0  0  0  0
 23 24  1  0  0  0  0
 25 26  2  0  0  0  0
 26 27  1  0  0  0  0
M  END
>  <CHROM.1>
46.75939537,-171.80227722,142.08171940,65.30400844,-146.60081558,166.41274833
-162.25750022,39.77577607,22.95785575,12.97406076,-1.53798781,-1.03098853
-2.96103943

>  <Name>
ligand

>  <RI>
0

>  <Rbt.Current_Directory>
/home/itssahil/PROJECTS/Mol_Feturizer/New_Systems/rnas/3IQN

>  <Rbt.Executable>
rbdock ($Id: //depot/dev/client3/rdock/2013.1/src/exe/rbdock.cxx#4 $)

>  <Rbt.Library>
libRbt.so (2013.1, Build901 2013/11/27)

>  <Rbt.Parameter_File>
/export/apps/rDock/src/rDock_2013.1_src/data/scripts/dock_solv.prm

>  <Rbt.Receptor>
prm/blind_docking_60.prm

>  <SCORE>
-1.83681

>  <SCORE.INTER>
-4.35947

>  <SCORE.INTER.CONST>
1

>  <SCORE.INTER.POLAR>
0

>  <SCORE.INTER.ROT>
7

>  <SCORE.INTER.SOLV>
16.0685

>  <SCORE.INTER.VDW>
-16.5292

>  <SCORE.INTER.norm>
-0.161462

>  <SCORE.INTRA>
1.04959

>  <SCORE.INTRA.DIHEDRAL>
1.42861

>  <SCORE.INTRA.DIHEDRAL.0>
10.0365

>  <SCORE.INTRA.POLAR>
0

>  <SCORE.INTRA.POLAR.0>
0

>  <SCORE.INTRA.REPUL>
0

>  <SCORE.INTRA.REPUL.0>
0

>  <SCORE.INTRA.SOLV>
-0.964164

>  <SCORE.INTRA.SOLV.lig_0>
-48.6728

>  <SCORE.INTRA.VDW>
0.817369

>  <SCORE.INTRA.VDW.0>
-1.10662

>  <SCORE.INTRA.norm>
0.0388738

>  <SCORE.RESTR>
1.47307

>  <SCORE.RESTR.CAVITY>
1.47307

>  <SCORE.RESTR.norm>
0.0545582

>  <SCORE.SYSTEM>
0

>  <SCORE.SYSTEM.CONST>
0

>  <SCORE.SYSTEM.DIHEDRAL>
0

>  <SCORE.SYSTEM.SOLV>
0

>  <SCORE.SYSTEM.norm>
0

>  <SCORE.heavy>
27

>  <SCORE.norm>
-0.06803

>  <RMSD>
39.828

$$$$
ligand
 OpenBabel11021811483D
libRbt.so/2013.1/901 2013/11/27
 27 29  0  0  0  0  0  0  0  0999 V2000
   39.8482   30.5324   12.0539 N   0  0  0  0  0  0  0  0  0  0  0  0
   40.6290   29.3604   12.4711 C   0  0  2  0  0  0  0  0  0  0  0  0
   41.1859   28.7000   11.2459 C   0  0  0  0  0  0  0  0  0  0  0  0
   40.5480   28.7100   10.2052 O   0  0  0  0  0  0  0  0  0  0  0  0
   39.7352   28.3654   13.2264 C   0  0  0  0  0  0  0  0  0  0  0  0
   40.5933   27.2020   13.7147 C   0  0  0  0  0  0  0  0  0  0  0  0
   39.6200   25.7862   14.3193 S   0  0  2  0  0  0  0  0  0  0  0  0
   40.0432   25.6614   16.0844 C   0  0  0  0  0  0  0  0  0  0  0  0
   40.3487   24.2066   13.7539 C   0  0  0  0  0  0  0  0  0  0  0  0
   39.1814   23.2519   13.8089 C   0  0  1  0  0  0  0  0  0  0  0  0
   39.3956   22.4015   12.7312 O   0  0  0  0  0  0  0  0  0  0  0  0
   39.0092   22.2501   14.9516 C   0  0  1  0  0  0  0  0  0  0  0  0
   38.2513   22.7656   16.0083 O   0  0  0  0  0  0  0  0  0  0  0  0
   38.2788   21.0801   14.1342 C   0  0  1  0  0  0  0  0  0  0  0  0
   37.0815   21.4855   13.4548 O   0  0  0  0  0  0  0  0  0  0  0  0
   39.5060   21.0194   13.2541 C   0  0  1  0  0  0  0  0  0  0  0  0
   42.2839   28.1679   11.2908 O   0  0  0  0  0  0  0  0  0  0  0  0
   40.3624   16.2705   11.8457 N   0  0  0  0  0  0  0  0  0  0  0  0
   40.0324   16.7901   13.0292 C   0  0  0  0  0  0  0  0  0  0  0  0
   39.7952   18.0921   13.1839 N   0  0  0  0  0  0  0  0  0  0  0  0
   40.0015   18.9556   12.1805 C   0  0  0  0  0  0  0  0  0  0  0  0
   40.4215   18.4446   10.9112 C   0  0  0  0  0  0  0  0  0  0  0  0
   40.5864   17.0377   10.7865 C   0  0  0  0  0  0  0  0  0  0  0  0
   40.9676   16.4681    9.6042 N   0  0  0  0  0  0  0  0  0  0  0  0
   40.5617   19.5003   10.0858 N   0  0  0  0  0  0  0  0  0  0  0  0
   40.2712   20.6055   10.7363 C   0  0  0  0  0  0  0  0  0  0  0  0
   39.9015   20.3426   12.0324 N   0  0  0  0  0  0  0  0  0  0  0  0
  2  1  1  6  0  0  0
  2  3  1  0  0  0  0
  2  5  1  0  0  0  0
  3  4  1  0  0  0  0
  3 17  1  0  0  0  0
  5  6  1  0  0  0  0
  7  6  1  6  0  0  0
  7  8  1  0  0  0  0
  7  9  1  0  0  0  0
 10  9  1  1  0  0  0
 10 11  1  0  0  0  0
 10 12  1  0  0  0  0
 11 16  1  0  0  0  0
 12 13  1  1  0  0  0
 12 14  1  0  0  0  0
 14 15  1  6  0  0  0
 14 16  1  0  0  0  0
 16 27  1  6  0  0  0
 18 19  2  0  0  0  0
 18 23  1  0  0  0  0
 19 20  1  0  0  0  0
 20 21  2  0  0  0  0
 21 22  1  0  0  0  0
 21 27  1  0  0  0  0
 22 23  2  0  0  0  0
 22 25  1  0  0  0  0
 23 24  1  0  0  0  0
 25 26  2  0  0  0  0
 26 27  1  0  0  0  0
M  END
>  <CHROM.1>
-33.59703288,-176.73070207,-167.95934467,-116.31154871,-156.79339074,145.08570012
-175.80546380,39.90998586,22.99352596,12.74489134,-1.48561913,-1.12646863
-2.97704384

>  <Name>
ligand

>  <RI>
0

>  <Rbt.Current_Directory>
/home/itssahil/PROJECTS/Mol_Feturizer/New_Systems/rnas/3IQN

>  <Rbt.Executable>
rbdock ($Id: //depot/dev/client3/rdock/2013.1/src/exe/rbdock.cxx#4 $)

>  <Rbt.Library>
libRbt.so (2013.1, Build901 2013/11/27)

>  <Rbt.Parameter_File>
/export/apps/rDock/src/rDock_2013.1_src/data/scripts/dock_solv.prm

>  <Rbt.Receptor>
prm/blind_docking_60.prm

>  <SCORE>
-6.9412

>  <SCORE.INTER>
-7.87154

>  <SCORE.INTER.CONST>
1

>  <SCORE.INTER.POLAR>
0

>  <SCORE.INTER.ROT>
7

>  <SCORE.INTER.SOLV>
11.0861

>  <SCORE.INTER.VDW>
-17.2097

>  <SCORE.INTER.norm>
-0.291538

>  <SCORE.INTRA>
-0.265494

>  <SCORE.INTRA.DIHEDRAL>
2.91695

>  <SCORE.INTRA.DIHEDRAL.0>
10.0365

>  <SCORE.INTRA.POLAR>
0

>  <SCORE.INTRA.POLAR.0>
0

>  <SCORE.INTRA.REPUL>
0

>  <SCORE.INTRA.REPUL.0>
0

>  <SCORE.INTRA.SOLV>
-1.01222

>  <SCORE.INTRA.SOLV.lig_0>
-48.6728

>  <SCORE.INTRA.VDW>
-1.21786

>  <SCORE.INTRA.VDW.0>
-1.10662

>  <SCORE.INTRA.norm>
-0.00983312

>  <SCORE.RESTR>
1.19583

>  <SCORE.RESTR.CAVITY>
1.19583

>  <SCORE.RESTR.norm>
0.0442901

>  <SCORE.SYSTEM>
0

>  <SCORE.SYSTEM.CONST>
0

>  <SCORE.SYSTEM.DIHEDRAL>
0

>  <SCORE.SYSTEM.SOLV>
0

>  <SCORE.SYSTEM.norm>
0

>  <SCORE.heavy>
27

>  <SCORE.norm>
-0.257081

>  <RMSD>
39.851

$$$$
ligand
 OpenBabel11021811483D
libRbt.so/2013.1/901 2013/11/27
 27 29  0  0  0  0  0  0  0  0999 V2000
   40.2420   30.5228   12.2290 N   0  0  0  0  0  0  0  0  0  0  0  0
   40.9198   29.2505   12.5103 C   0  0  2  0  0  0  0  0  0  0  0  0
   41.2500   28.5897   11.2057 C   0  0  0  0  0  0  0  0  0  0  0  0
   40.3805   28.4378   10.3625 O   0  0  0  0  0  0  0  0  0  0  0  0
   40.0058   28.3296   13.3325 C   0  0  0  0  0  0  0  0  0  0  0  0
   40.7287   27.0090   13.5806 C   0  0  0  0  0  0  0  0  0  0  0  0
   39.6642   25.7258   14.3140 S   0  0  2  0  0  0  0  0  0  0  0  0
   39.9429   25.8705   16.1062 C   0  0  0  0  0  0  0  0  0  0  0  0
   40.3822   24.0624   14.0619 C   0  0  0  0  0  0  0  0  0  0  0  0
   39.1694   23.1647   14.0473 C   0  0  1  0  0  0  0  0  0  0  0  0
   39.3689   22.3535   12.9369 O   0  0  0  0  0  0  0  0  0  0  0  0
   38.9214   22.1227   15.1390 C   0  0  1  0  0  0  0  0  0  0  0  0
   38.1634   22.6273   16.2010 O   0  0  0  0  0  0  0  0  0  0  0  0
   38.1558   21.0275   14.2530 C   0  0  1  0  0  0  0  0  0  0  0  0
   36.9964   21.5209   13.5663 O   0  0  0  0  0  0  0  0  0  0  0  0
   39.3999   20.9458   13.3987 C   0  0  1  0  0  0  0  0  0  0  0  0
   42.3928   28.2200   10.9863 O   0  0  0  0  0  0  0  0  0  0  0  0
   40.3176   16.2473   11.8656 N   0  0  0  0  0  0  0  0  0  0  0  0
   39.9927   16.7326   13.0650 C   0  0  0  0  0  0  0  0  0  0  0  0
   39.7362   18.0263   13.2540 N   0  0  0  0  0  0  0  0  0  0  0  0
   39.9166   18.9170   12.2697 C   0  0  0  0  0  0  0  0  0  0  0  0
   40.3303   18.4440   10.9837 C   0  0  0  0  0  0  0  0  0  0  0  0
   40.5166   17.0434   10.8229 C   0  0  0  0  0  0  0  0  0  0  0  0
   40.8935   16.5090    9.6229 N   0  0  0  0  0  0  0  0  0  0  0  0
   40.4436   19.5215   10.1828 N   0  0  0  0  0  0  0  0  0  0  0  0
   40.1426   20.6056   10.8631 C   0  0  0  0  0  0  0  0  0  0  0  0
   39.7922   20.3054   12.1566 N   0  0  0  0  0  0  0  0  0  0  0  0
  2  1  1  6  0  0  0
  2  3  1  0  0  0  0
  2  5  1  0  0  0  0
  3  4  1  0  0  0  0
  3 17  1  0  0  0  0
  5  6  1  0  0  0  0
  7  6  1  6  0  0  0
  7  8  1  0  0  0  0
  7  9  1  0  0  0  0
 10  9  1  1  0  0  0
 10 11  1  0  0  0  0
 10 12  1  0  0  0  0
 11 16  1  0  0  0  0
 12 13  1  1  0  0  0
 12 14  1  0  0  0  0
 14 15  1  6  0  0  0
 14 16  1  0  0  0  0
 16 27  1  6  0  0  0
 18 19  2  0  0  0  0
 18 23  1  0  0  0  0
 19 20  1  0  0  0  0
 20 21  2  0  0  0  0
 21 22  1  0  0  0  0
 21 27  1  0  0  0  0
 22 23  2  0  0  0  0
 22 25  1  0  0  0  0
 23 24  1  0  0  0  0
 25 26  2  0  0  0  0
 26 27  1  0  0  0  0
M  END
>  <CHROM.1>
-51.53505369,178.81578414,-170.79250135,-94.12540589,-152.07396285,132.84715462
179.80172349,39.90249916,22.94415098,12.82249624,-1.43565297,-1.11338949
-2.93892540

>  <Name>
ligand

>  <RI>
0

>  <Rbt.Current_Directory>
/home/itssahil/PROJECTS/Mol_Feturizer/New_Systems/rnas/3IQN

>  <Rbt.Executable>
rbdock ($Id: //depot/dev/client3/rdock/2013.1/src/exe/rbdock.cxx#4 $)

>  <Rbt.Library>
libRbt.so (2013.1, Build901 2013/11/27)

>  <Rbt.Parameter_File>
/export/apps/rDock/src/rDock_2013.1_src/data/scripts/dock_solv.prm

>  <Rbt.Receptor>
prm/blind_docking_60.prm

>  <SCORE>
-6.77675

>  <SCORE.INTER>
-7.47258

>  <SCORE.INTER.CONST>
1

>  <SCORE.INTER.POLAR>
0

>  <SCORE.INTER.ROT>
7

>  <SCORE.INTER.SOLV>
12.198

>  <SCORE.INTER.VDW>
-17.3144

>  <SCORE.INTER.norm>
-0.276762

>  <SCORE.INTRA>
-0.450574

>  <SCORE.INTRA.DIHEDRAL>
2.33927

>  <SCORE.INTRA.DIHEDRAL.0>
10.0365

>  <SCORE.INTRA.POLAR>
0

>  <SCORE.INTRA.POLAR.0>
0

>  <SCORE.INTRA.REPUL>
0

>  <SCORE.INTRA.REPUL.0>
0

>  <SCORE.INTRA.SOLV>
-1.09885

>  <SCORE.INTRA.SOLV.lig_0>
-48.6728

>  <SCORE.INTRA.VDW>
-1.07078

>  <SCORE.INTRA.VDW.0>
-1.10662

>  <SCORE.INTRA.norm>
-0.0166879

>  <SCORE.RESTR>
1.14641

>  <SCORE.RESTR.CAVITY>
1.14641

>  <SCORE.RESTR.norm>
0.0424595

>  <SCORE.SYSTEM>
0

>  <SCORE.SYSTEM.CONST>
0

>  <SCORE.SYSTEM.DIHEDRAL>
0

>  <SCORE.SYSTEM.SOLV>
0

>  <SCORE.SYSTEM.norm>
0

>  <SCORE.heavy>
27

>  <SCORE.norm>
-0.250991

>  <RMSD>
39.851

$$$$
ligand
 OpenBabel11021811483D
libRbt.so/2013.1/901 2013/11/27
 27 29  0  0  0  0  0  0  0  0999 V2000
   41.9921   28.2813   11.4792 N   0  0  0  0  0  0  0  0  0  0  0  0
   40.7095   28.2800   12.1948 C   0  0  2  0  0  0  0  0  0  0  0  0
   40.4246   29.6759   12.6614 C   0  0  0  0  0  0  0  0  0  0  0  0
   39.9791   29.8646   13.7822 O   0  0  0  0  0  0  0  0  0  0  0  0
   40.7761   27.3396   13.4074 C   0  0  0  0  0  0  0  0  0  0  0  0
   39.3739   27.1811   13.9878 C   0  0  0  0  0  0  0  0  0  0  0  0
   39.0680   25.5360   14.7072 S   0  0  2  0  0  0  0  0  0  0  0  0
   40.2164   25.4320   16.1145 C   0  0  0  0  0  0  0  0  0  0  0  0
   39.7989   24.2234   13.6638 C   0  0  0  0  0  0  0  0  0  0  0  0
   38.8147   23.0880   13.8025 C   0  0  1  0  0  0  0  0  0  0  0  0
   39.1112   22.2572   12.7288 O   0  0  0  0  0  0  0  0  0  0  0  0
   38.8766   22.1022   14.9702 C   0  0  1  0  0  0  0  0  0  0  0  0
   38.1007   22.5110   16.0600 O   0  0  0  0  0  0  0  0  0  0  0  0
   38.3117   20.8048   14.2165 C   0  0  1  0  0  0  0  0  0  0  0  0
   37.0280   20.9850   13.6006 O   0  0  0  0  0  0  0  0  0  0  0  0
   39.4820   20.9278   13.2681 C   0  0  1  0  0  0  0  0  0  0  0  0
   40.6548   30.6203   11.9225 O   0  0  0  0  0  0  0  0  0  0  0  0
   40.3814   16.2310   11.7189 N   0  0  0  0  0  0  0  0  0  0  0  0
   40.0102   16.7081   12.9080 C   0  0  0  0  0  0  0  0  0  0  0  0
   39.7696   18.0042   13.1016 N   0  0  0  0  0  0  0  0  0  0  0  0
   40.0125   18.9030   12.1383 C   0  0  0  0  0  0  0  0  0  0  0  0
   40.4766   18.4375   10.8669 C   0  0  0  0  0  0  0  0  0  0  0  0
   40.6439   17.0355   10.6969 C   0  0  0  0  0  0  0  0  0  0  0  0
   41.0661   16.5083    9.5089 N   0  0  0  0  0  0  0  0  0  0  0  0
   40.6475   19.5220   10.0860 N   0  0  0  0  0  0  0  0  0  0  0  0
   40.3356   20.6036   10.7656 C   0  0  0  0  0  0  0  0  0  0  0  0
   39.9197   20.2948   12.0374 N   0  0  0  0  0  0  0  0  0  0  0  0
  2  1  1  1  0  0  0
  2  3  1  0  0  0  0
  2  5  1  0  0  0  0
  3  4  1  0  0  0  0
  3 17  1  0  0  0  0
  5  6  1  0  0  0  0
  7  6  1  6  0  0  0
  7  8  1  0  0  0  0
  7  9  1  0  0  0  0
 10  9  1  1  0  0  0
 10 11  1  0  0  0  0
 10 12  1  0  0  0  0
 11 16  1  0  0  0  0
 12 13  1  1  0  0  0
 12 14  1  0  0  0  0
 14 15  1  6  0  0  0
 14 16  1  0  0  0  0
 16 27  1  6  0  0  0
 18 19  2  0  0  0  0
 18 23  1  0  0  0  0
 19 20  1  0  0  0  0
 20 21  2  0  0  0  0
 21 22  1  0  0  0  0
 21 27  1  0  0  0  0
 22 23  2  0  0  0  0
 22 25  1  0  0  0  0
 23 24  1  0  0  0  0
 25 26  2  0  0  0  0
 26 27  1  0  0  0  0
M  END
>  <CHROM.1>
-137.68392748,-170.66457554,147.08341168,64.66477523,-144.90733137,162.27717895
-164.16763512,39.78700147,22.92015192,12.96983238,-1.53177018,-1.04099969
-2.95218819

>  <Name>
ligand

>  <RI>
0

>  <Rbt.Current_Directory>
/home/itssahil/PROJECTS/Mol_Feturizer/New_Systems/rnas/3IQN

>  <Rbt.Executable>
rbdock ($Id: //depot/dev/client3/rdock/2013.1/src/exe/rbdock.cxx#4 $)

>  <Rbt.Library>
libRbt.so (2013.1, Build901 2013/11/27)

>  <Rbt.Parameter_File>
/export/apps/rDock/src/rDock_2013.1_src/data/scripts/dock_solv.prm

>  <Rbt.Receptor>
prm/blind_docking_60.prm

>  <SCORE>
-1.66833

>  <SCORE.INTER>
-4.02155

>  <SCORE.INTER.CONST>
1

>  <SCORE.INTER.POLAR>
0

>  <SCORE.INTER.ROT>
7

>  <SCORE.INTER.SOLV>
15.9679

>  <SCORE.INTER.VDW>
-16.2703

>  <SCORE.INTER.norm>
-0.148946

>  <SCORE.INTRA>
0.894674

>  <SCORE.INTRA.DIHEDRAL>
1.39307

>  <SCORE.INTRA.DIHEDRAL.0>
10.0365

>  <SCORE.INTRA.POLAR>
0

>  <SCORE.INTRA.POLAR.0>
0

>  <SCORE.INTRA.REPUL>
0

>  <SCORE.INTRA.REPUL.0>
0

>  <SCORE.INTRA.SOLV>
-0.980003

>  <SCORE.INTRA.SOLV.lig_0>
-48.6728

>  <SCORE.INTRA.VDW>
0.688141

>  <SCORE.INTRA.VDW.0>
-1.10662

>  <SCORE.INTRA.norm>
0.0331361

>  <SCORE.RESTR>
1.45855

>  <SCORE.RESTR.CAVITY>
1.45855

>  <SCORE.RESTR.norm>
0.0540205

>  <SCORE.SYSTEM>
0

>  <SCORE.SYSTEM.CONST>
0

>  <SCORE.SYSTEM.DIHEDRAL>
0

>  <SCORE.SYSTEM.SOLV>
0

>  <SCORE.SYSTEM.norm>
0

>  <SCORE.heavy>
27

>  <SCORE.norm>
-0.0617899

>  <RMSD>
39.861

$$$$
ligand
 OpenBabel11021811483D
libRbt.so/2013.1/901 2013/11/27
 27 29  0  0  0  0  0  0  0  0999 V2000
   39.8058   30.4426   11.9895 N   0  0  0  0  0  0  0  0  0  0  0  0
   40.5838   29.3017   12.4900 C   0  0  2  0  0  0  0  0  0  0  0  0
   41.2374   28.6242   11.3232 C   0  0  0  0  0  0  0  0  0  0  0  0
   40.6789   28.6066   10.2379 O   0  0  0  0  0  0  0  0  0  0  0  0
   39.6645   28.3043   13.2106 C   0  0  0  0  0  0  0  0  0  0  0  0
   40.5239   27.2457   13.8956 C   0  0  0  0  0  0  0  0  0  0  0  0
   39.5878   25.7679   14.4027 S   0  0  2  0  0  0  0  0  0  0  0  0
   40.1023   25.4689   16.1221 C   0  0  0  0  0  0  0  0  0  0  0  0
   40.2914   24.2597   13.6435 C   0  0  0  0  0  0  0  0  0  0  0  0
   39.1530   23.2726   13.7248 C   0  0  1  0  0  0  0  0  0  0  0  0
   39.3855   22.4079   12.6623 O   0  0  0  0  0  0  0  0  0  0  0  0
   39.0174   22.2887   14.8878 C   0  0  1  0  0  0  0  0  0  0  0  0
   38.2511   22.8023   15.9394 O   0  0  0  0  0  0  0  0  0  0  0  0
   38.3167   21.0820   14.0982 C   0  0  1  0  0  0  0  0  0  0  0  0
   37.1038   21.4387   13.4191 O   0  0  0  0  0  0  0  0  0  0  0  0
   39.5398   21.0401   13.2112 C   0  0  1  0  0  0  0  0  0  0  0  0
   42.3344   28.1059   11.4605 O   0  0  0  0  0  0  0  0  0  0  0  0
   40.3416   16.2713   11.8385 N   0  0  0  0  0  0  0  0  0  0  0  0
   39.9973   16.8015   13.0131 C   0  0  0  0  0  0  0  0  0  0  0  0
   39.7797   18.1080   13.1581 N   0  0  0  0  0  0  0  0  0  0  0  0
   40.0206   18.9635   12.1556 C   0  0  0  0  0  0  0  0  0  0  0  0
   40.4567   18.4401   10.8969 C   0  0  0  0  0  0  0  0  0  0  0  0
   40.5996   17.0300   10.7809 C   0  0  0  0  0  0  0  0  0  0  0  0
   40.9942   16.4490    9.6086 N   0  0  0  0  0  0  0  0  0  0  0  0
   40.6313   19.4897   10.0703 N   0  0  0  0  0  0  0  0  0  0  0  0
   40.3472   20.6024   10.7106 C   0  0  0  0  0  0  0  0  0  0  0  0
   39.9475   20.3514   12.0002 N   0  0  0  0  0  0  0  0  0  0  0  0
  2  1  1  6  0  0  0
  2  3  1  0  0  0  0
  2  5  1  0  0  0  0
  3  4  1  0  0  0  0
  3 17  1  0  0  0  0
  5  6  1  0  0  0  0
  7  6  1  6  0  0  0
  7  8  1  0  0  0  0
  7  9  1  0  0  0  0
 10  9  1  1  0  0  0
 10 11  1  0  0  0  0
 10 12  1  0  0  0  0
 11 16  1  0  0  0  0
 12 13  1  1  0  0  0
 12 14  1  0  0  0  0
 14 15  1  6  0  0  0
 14 16  1  0  0  0  0
 16 27  1  6  0  0  0
 18 19  2  0  0  0  0
 18 23  1  0  0  0  0
 19 20  1  0  0  0  0
 20 21  2  0  0  0  0
 21 22  1  0  0  0  0
 21 27  1  0  0  0  0
 22 23  2  0  0  0  0
 22 25  1  0  0  0  0
 23 24  1  0  0  0  0
 25 26  2  0  0  0  0
 26 27  1  0  0  0  0
M  END
>  <CHROM.1>
-32.64559857,-171.58123297,-164.46008539,-132.29340482,-159.54863043,152.73230882
-172.61804200,39.91785824,22.97415063,12.74407824,-1.49254048,-1.11707063
-2.97431717

>  <Name>
ligand

>  <RI>
0

>  <Rbt.Current_Directory>
/home/itssahil/PROJECTS/Mol_Feturizer/New_Systems/rnas/3IQN

>  <Rbt.Executable>
rbdock ($Id: //depot/dev/client3/rdock/2013.1/src/exe/rbdock.cxx#4 $)

>  <Rbt.Library>
libRbt.so (2013.1, Build901 2013/11/27)

>  <Rbt.Parameter_File>
/export/apps/rDock/src/rDock_2013.1_src/data/scripts/dock_solv.prm

>  <Rbt.Receptor>
prm/blind_docking_60.prm

>  <SCORE>
-7.42108

>  <SCORE.INTER>
-8.02789

>  <SCORE.INTER.CONST>
1

>  <SCORE.INTER.POLAR>
0

>  <SCORE.INTER.ROT>
7

>  <SCORE.INTER.SOLV>
10.8685

>  <SCORE.INTER.VDW>
-17.2414

>  <SCORE.INTER.norm>
-0.297329

>  <SCORE.INTRA>
-0.624213

>  <SCORE.INTRA.DIHEDRAL>
2.43721

>  <SCORE.INTRA.DIHEDRAL.0>
10.0365

>  <SCORE.INTRA.POLAR>
0

>  <SCORE.INTRA.POLAR.0>
0

>  <SCORE.INTRA.REPUL>
0

>  <SCORE.INTRA.REPUL.0>
0

>  <SCORE.INTRA.SOLV>
-0.959466

>  <SCORE.INTRA.SOLV.lig_0>
-48.6728

>  <SCORE.INTRA.VDW>
-1.36308

>  <SCORE.INTRA.VDW.0>
-1.10662

>  <SCORE.INTRA.norm>
-0.023119

>  <SCORE.RESTR>
1.23103

>  <SCORE.RESTR.CAVITY>
1.23103

>  <SCORE.RESTR.norm>
0.0455937

>  <SCORE.SYSTEM>
0

>  <SCORE.SYSTEM.CONST>
0

>  <SCORE.SYSTEM.DIHEDRAL>
0

>  <SCORE.SYSTEM.SOLV>
0

>  <SCORE.SYSTEM.norm>
0

>  <SCORE.heavy>
27

>  <SCORE.norm>
-0.274855

>  <RMSD>
39.866

$$$$
ligand
 OpenBabel11021811483D
libRbt.so/2013.1/901 2013/11/27
 27 29  0  0  0  0  0  0  0  0999 V2000
   40.3920   29.8034   12.6512 N   0  0  0  0  0  0  0  0  0  0  0  0
   41.1451   28.6010   12.2715 C   0  0  2  0  0  0  0  0  0  0  0  0
   41.3767   28.6335   10.7907 C   0  0  0  0  0  0  0  0  0  0  0  0
   40.4444   28.8495   10.0329 O   0  0  0  0  0  0  0  0  0  0  0  0
   40.3520   27.3373   12.6369 C   0  0  0  0  0  0  0  0  0  0  0  0
   40.3891   27.1509   14.1509 C   0  0  0  0  0  0  0  0  0  0  0  0
   39.4933   25.6714   14.7219 S   0  0  2  0  0  0  0  0  0  0  0  0
   40.0694   25.4191   16.4292 C   0  0  0  0  0  0  0  0  0  0  0  0
   40.1941   24.1569   13.9731 C   0  0  0  0  0  0  0  0  0  0  0  0
   39.0318   23.1947   13.9950 C   0  0  1  0  0  0  0  0  0  0  0  0
   39.2639   22.3672   12.9032 O   0  0  0  0  0  0  0  0  0  0  0  0
   38.8520   22.1693   15.1154 C   0  0  1  0  0  0  0  0  0  0  0  0
   38.0785   22.6593   16.1730 O   0  0  0  0  0  0  0  0  0  0  0  0
   38.1383   21.0118   14.2661 C   0  0  1  0  0  0  0  0  0  0  0  0
   36.9468   21.4239   13.5806 O   0  0  0  0  0  0  0  0  0  0  0  0
   39.3762   20.9756   13.3998 C   0  0  1  0  0  0  0  0  0  0  0  0
   42.5018   28.4590   10.3497 O   0  0  0  0  0  0  0  0  0  0  0  0
   40.3523   16.2692   11.9283 N   0  0  0  0  0  0  0  0  0  0  0  0
   40.0076   16.7642   13.1181 C   0  0  0  0  0  0  0  0  0  0  0  0
   39.7381   18.0576   13.2902 N   0  0  0  0  0  0  0  0  0  0  0  0
   39.9243   18.9396   12.2991 C   0  0  0  0  0  0  0  0  0  0  0  0
   40.3589   18.4567   11.0237 C   0  0  0  0  0  0  0  0  0  0  0  0
   40.5587   17.0561   10.8801 C   0  0  0  0  0  0  0  0  0  0  0  0
   40.9558   16.5124    9.6908 N   0  0  0  0  0  0  0  0  0  0  0  0
   40.4740   19.5267   10.2131 N   0  0  0  0  0  0  0  0  0  0  0  0
   40.1553   20.6153   10.8780 C   0  0  0  0  0  0  0  0  0  0  0  0
   39.7902   20.3256   12.1698 N   0  0  0  0  0  0  0  0  0  0  0  0
  2  1  1  6  0  0  0
  2  3  1  0  0  0  0
  2  5  1  0  0  0  0
  3  4  1  0  0  0  0
  3 17  1  0  0  0  0
  5  6  1  0  0  0  0
  7  6  1  6  0  0  0
  7  8  1  0  0  0  0
  7  9  1  0  0  0  0
 10  9  1  1  0  0  0
 10 11  1  0  0  0  0
 10 12  1  0  0  0  0
 11 16  1  0  0  0  0
 12 13  1  1  0  0  0
 12 14  1  0  0  0  0
 14 15  1  6  0  0  0
 14 16  1  0  0  0  0
 16 27  1  6  0  0  0
 18 19  2  0  0  0  0
 18 23  1  0  0  0  0
 19 20  1  0  0  0  0
 20 21  2  0  0  0  0
 21 22  1  0  0  0  0
 21 27  1  0  0  0  0
 22 23  2  0  0  0  0
 22 25  1  0  0  0  0
 23 24  1  0  0  0  0
 25 26  2  0  0  0  0
 26 27  1  0  0  0  0
M  END
>  <CHROM.1>
-49.47387721,-73.19098498,-179.49847156,164.52172188,-154.36216997,150.68045016
-177.09585901,39.90043069,22.88229172,12.82508772,-1.41114598,-1.12114328
-2.93426846

>  <Name>
ligand

>  <RI>
0

>  <Rbt.Current_Directory>
/home/itssahil/PROJECTS/Mol_Feturizer/New_Systems/rnas/3IQN

>  <Rbt.Executable>
rbdock ($Id: //depot/dev/client3/rdock/2013.1/src/exe/rbdock.cxx#4 $)

>  <Rbt.Library>
libRbt.so (2013.1, Build901 2013/11/27)

>  <Rbt.Parameter_File>
/export/apps/rDock/src/rDock_2013.1_src/data/scripts/dock_solv.prm

>  <Rbt.Receptor>
prm/blind_docking_60.prm

>  <SCORE>
-8.24332

>  <SCORE.INTER>
-7.00621

>  <SCORE.INTER.CONST>
1

>  <SCORE.INTER.POLAR>
0

>  <SCORE.INTER.ROT>
7

>  <SCORE.INTER.SOLV>
12.8727

>  <SCORE.INTER.VDW>
-17.2284

>  <SCORE.INTER.norm>
-0.259489

>  <SCORE.INTRA>
-2.41604

>  <SCORE.INTRA.DIHEDRAL>
-1.32193

>  <SCORE.INTRA.DIHEDRAL.0>
10.0365

>  <SCORE.INTRA.POLAR>
0

>  <SCORE.INTRA.POLAR.0>
0

>  <SCORE.INTRA.REPUL>
0

>  <SCORE.INTRA.REPUL.0>
0

>  <SCORE.INTRA.SOLV>
-0.396967

>  <SCORE.INTRA.SOLV.lig_0>
-48.6728

>  <SCORE.INTRA.VDW>
-1.55659

>  <SCORE.INTRA.VDW.0>
-1.10662

>  <SCORE.INTRA.norm>
-0.089483

>  <SCORE.RESTR>
1.17893

>  <SCORE.RESTR.CAVITY>
1.17893

>  <SCORE.RESTR.norm>
0.043664

>  <SCORE.SYSTEM>
0

>  <SCORE.SYSTEM.CONST>
0

>  <SCORE.SYSTEM.DIHEDRAL>
0

>  <SCORE.SYSTEM.SOLV>
0

>  <SCORE.SYSTEM.norm>
0

>  <SCORE.heavy>
27

>  <SCORE.norm>
-0.305308

>  <RMSD>
39.897

$$$$
ligand
 OpenBabel11021811483D
libRbt.so/2013.1/901 2013/11/27
 27 29  0  0  0  0  0  0  0  0999 V2000
   39.8537   29.8735   13.7425 N   0  0  0  0  0  0  0  0  0  0  0  0
   40.8919   29.0996   13.0493 C   0  0  2  0  0  0  0  0  0  0  0  0
   40.6374   29.1783   11.5740 C   0  0  0  0  0  0  0  0  0  0  0  0
   41.4187   28.6596   10.7925 O   0  0  0  0  0  0  0  0  0  0  0  0
   40.8509   27.6310   13.4972 C   0  0  0  0  0  0  0  0  0  0  0  0
   39.4015   27.1540   13.4962 C   0  0  0  0  0  0  0  0  0  0  0  0
   39.1451   25.6099   14.4276 S   0  0  2  0  0  0  0  0  0  0  0  0
   40.2548   25.7523   15.8624 C   0  0  0  0  0  0  0  0  0  0  0  0
   39.9620   24.2027   13.5921 C   0  0  0  0  0  0  0  0  0  0  0  0
   38.9160   23.1165   13.6492 C   0  0  1  0  0  0  0  0  0  0  0  0
   39.2550   22.2722   12.5990 O   0  0  0  0  0  0  0  0  0  0  0  0
   38.8384   22.1291   14.8146 C   0  0  1  0  0  0  0  0  0  0  0  0
   38.0003   22.5753   15.8419 O   0  0  0  0  0  0  0  0  0  0  0  0
   38.2719   20.8606   14.0143 C   0  0  1  0  0  0  0  0  0  0  0  0
   37.0507   21.1030   13.3005 O   0  0  0  0  0  0  0  0  0  0  0  0
   39.5175   20.9263   13.1607 C   0  0  1  0  0  0  0  0  0  0  0  0
   39.6398   29.7485   11.1611 O   0  0  0  0  0  0  0  0  0  0  0  0
   40.4648   16.2014   11.7302 N   0  0  0  0  0  0  0  0  0  0  0  0
   40.0309   16.6982   12.8897 C   0  0  0  0  0  0  0  0  0  0  0  0
   39.7902   17.9987   13.0513 N   0  0  0  0  0  0  0  0  0  0  0  0
   40.0945   18.8818   12.0909 C   0  0  0  0  0  0  0  0  0  0  0  0
   40.6260   18.3947   10.8544 C   0  0  0  0  0  0  0  0  0  0  0  0
   40.7912   16.9893   10.7137 C   0  0  0  0  0  0  0  0  0  0  0  0
   41.2756   16.4421    9.5589 N   0  0  0  0  0  0  0  0  0  0  0  0
   40.8495   19.4668   10.0695 N   0  0  0  0  0  0  0  0  0  0  0  0
   40.5086   20.5602   10.7153 C   0  0  0  0  0  0  0  0  0  0  0  0
   40.0189   20.2726   11.9657 N   0  0  0  0  0  0  0  0  0  0  0  0
  2  1  1  1  0  0  0
  2  3  1  0  0  0  0
  2  5  1  0  0  0  0
  3  4  1  0  0  0  0
  3 17  1  0  0  0  0
  5  6  1  0  0  0  0
  7  6  1  6  0  0  0
  7  8  1  0  0  0  0
  7  9  1  0  0  0  0
 10  9  1  1  0  0  0
 10 11  1  0  0  0  0
 10 12  1  0  0  0  0
 11 16  1  0  0  0  0
 12 13  1  1  0  0  0
 12 14  1  0  0  0  0
 14 15  1  6  0  0  0
 14 16  1  0  0  0  0
 16 27  1  6  0  0  0
 18 19  2  0  0  0  0
 18 23  1  0  0  0  0
 19 20  1  0  0  0  0
 20 21  2  0  0  0  0
 21 22  1  0  0  0  0
 21 27  1  0  0  0  0
 22 23  2  0  0  0  0
 22 25  1  0  0  0  0
 23 24  1  0  0  0  0
 25 26  2  0  0  0  0
 26 27  1  0  0  0  0
M  END
>  <CHROM.1>
176.40724487,45.75594066,-164.06175671,37.50145273,-135.25144171,156.52643855
-166.97483845,39.80199481,22.93164746,12.78925877,1.57842034,1.07369067,0.12298466

>  <Name>
ligand

>  <RI>
0

>  <Rbt.Current_Directory>
/home/itssahil/PROJECTS/Mol_Feturizer/New_Systems/rnas/3IQN

>  <Rbt.Executable>
rbdock ($Id: //depot/dev/client3/rdock/2013.1/src/exe/rbdock.cxx#4 $)

>  <Rbt.Library>
libRbt.so (2013.1, Build901 2013/11/27)

>  <Rbt.Parameter_File>
/export/apps/rDock/src/rDock_2013.1_src/data/scripts/dock_solv.prm

>  <Rbt.Receptor>
prm/blind_docking_60.prm

>  <SCORE>
-1.80243

>  <SCORE.INTER>
-4.33327

>  <SCORE.INTER.CONST>
1

>  <SCORE.INTER.POLAR>
0

>  <SCORE.INTER.ROT>
7

>  <SCORE.INTER.SOLV>
13.7159

>  <SCORE.INTER.VDW>
-15.7275

>  <SCORE.INTER.norm>
-0.160492

>  <SCORE.INTRA>
1.03481

>  <SCORE.INTRA.DIHEDRAL>
1.21576

>  <SCORE.INTRA.DIHEDRAL.0>
10.0365

>  <SCORE.INTRA.POLAR>
0

>  <SCORE.INTRA.POLAR.0>
0

>  <SCORE.INTRA.REPUL>
0

>  <SCORE.INTRA.REPUL.0>
0

>  <SCORE.INTRA.SOLV>
0.0500781

>  <SCORE.INTRA.SOLV.lig_0>
-48.6728

>  <SCORE.INTRA.VDW>
0.401887

>  <SCORE.INTRA.VDW.0>
-1.10662

>  <SCORE.INTRA.norm>
0.0383262

>  <SCORE.RESTR>
1.49603

>  <SCORE.RESTR.CAVITY>
1.49603

>  <SCORE.RESTR.norm>
0.0554085

>  <SCORE.SYSTEM>
0

>  <SCORE.SYSTEM.CONST>
0

>  <SCORE.SYSTEM.DIHEDRAL>
0

>  <SCORE.SYSTEM.SOLV>
0

>  <SCORE.SYSTEM.norm>
0

>  <SCORE.heavy>
27

>  <SCORE.norm>
-0.0667567

>  <RMSD>
39.910

$$$$
ligand
 OpenBabel11021811483D
libRbt.so/2013.1/901 2013/11/27
 27 29  0  0  0  0  0  0  0  0999 V2000
   39.5678   28.1345   10.5253 N   0  0  0  0  0  0  0  0  0  0  0  0
   39.5109   28.2407   11.9891 C   0  0  2  0  0  0  0  0  0  0  0  0
   40.6025   29.1635   12.4411 C   0  0  0  0  0  0  0  0  0  0  0  0
   40.3451   30.3262   12.7096 O   0  0  0  0  0  0  0  0  0  0  0  0
   39.7100   26.8601   12.6322 C   0  0  0  0  0  0  0  0  0  0  0  0
   39.6705   27.0114   14.1500 C   0  0  0  0  0  0  0  0  0  0  0  0
   39.1782   25.4880   15.0185 S   0  0  2  0  0  0  0  0  0  0  0  0
   40.1273   25.5198   16.5705 C   0  0  0  0  0  0  0  0  0  0  0  0
   39.9593   24.0215   14.2536 C   0  0  0  0  0  0  0  0  0  0  0  0
   38.8377   23.0123   14.2244 C   0  0  1  0  0  0  0  0  0  0  0  0
   39.1105   22.2437   13.0994 O   0  0  0  0  0  0  0  0  0  0  0  0
   38.6936   21.9323   15.2976 C   0  0  1  0  0  0  0  0  0  0  0  0
   37.8941   22.3432   16.3694 O   0  0  0  0  0  0  0  0  0  0  0  0
   38.0337   20.7847   14.3931 C   0  0  1  0  0  0  0  0  0  0  0  0
   36.8303   21.1772   13.7167 O   0  0  0  0  0  0  0  0  0  0  0  0
   39.2773   20.8375   13.5358 C   0  0  1  0  0  0  0  0  0  0  0  0
   41.7432   28.7428   12.5537 O   0  0  0  0  0  0  0  0  0  0  0  0
   40.3575   16.2305   11.8395 N   0  0  0  0  0  0  0  0  0  0  0  0
   39.9820   16.6568   13.0464 C   0  0  0  0  0  0  0  0  0  0  0  0
   39.6883   17.9352   13.2806 N   0  0  0  0  0  0  0  0  0  0  0  0
   39.8794   18.8709   12.3411 C   0  0  0  0  0  0  0  0  0  0  0  0
   40.3461   18.4625   11.0511 C   0  0  0  0  0  0  0  0  0  0  0  0
   40.5713   17.0746   10.8383 C   0  0  0  0  0  0  0  0  0  0  0  0
   40.9999   16.6005    9.6303 N   0  0  0  0  0  0  0  0  0  0  0  0
   40.4596   19.5754   10.3002 N   0  0  0  0  0  0  0  0  0  0  0  0
   40.1105   20.6225   11.0147 C   0  0  0  0  0  0  0  0  0  0  0  0
   39.7253   20.2596   12.2820 N   0  0  0  0  0  0  0  0  0  0  0  0
  2  1  1  6  0  0  0
  2  3  1  0  0  0  0
  2  5  1  0  0  0  0
  3  4  1  0  0  0  0
  3 17  1  0  0  0  0
  5  6  1  0  0  0  0
  7  6  1  6  0  0  0
  7  8  1  0  0  0  0
  7  9  1  0  0  0  0
 10  9  1  1  0  0  0
 10 11  1  0  0  0  0
 10 12  1  0  0  0  0
 11 16  1  0  0  0  0
 12 13  1  1  0  0  0
 12 14  1  0  0  0  0
 14 15  1  6  0  0  0
 14 16  1  0  0  0  0
 16 27  1  6  0  0  0
 18 19  2  0  0  0  0
 18 23  1  0  0  0  0
 19 20  1  0  0  0  0
 20 21  2  0  0  0  0
 21 22  1  0  0  0  0
 21 27  1  0  0  0  0
 22 23  2  0  0  0  0
 22 25  1  0  0  0  0
 23 24  1  0  0  0  0
 25 26  2  0  0  0  0
 26 27  1  0  0  0  0
M  END
>  <CHROM.1>
99.67995299,178.97993881,155.13884084,146.07477185,-137.42822530,149.12163110
-175.38116072,39.63283009,22.79865848,13.07836101,-1.54859430,-1.15754393
-2.98959427

>  <Name>
ligand

>  <RI>
0

>  <Rbt.Current_Directory>
/home/itssahil/PROJECTS/Mol_Feturizer/New_Systems/rnas/3IQN

>  <Rbt.Executable>
rbdock ($Id: //depot/dev/client3/rdock/2013.1/src/exe/rbdock.cxx#4 $)

>  <Rbt.Library>
libRbt.so (2013.1, Build901 2013/11/27)

>  <Rbt.Parameter_File>
/export/apps/rDock/src/rDock_2013.1_src/data/scripts/dock_solv.prm

>  <Rbt.Receptor>
prm/blind_docking_60.prm

>  <SCORE>
-2.728

>  <SCORE.INTER>
-4.93317

>  <SCORE.INTER.CONST>
1

>  <SCORE.INTER.POLAR>
0

>  <SCORE.INTER.ROT>
7

>  <SCORE.INTER.SOLV>
9.22659

>  <SCORE.INTER.VDW>
-14.631

>  <SCORE.INTER.norm>
-0.18271

>  <SCORE.INTRA>
0.756808

>  <SCORE.INTRA.DIHEDRAL>
3.61021

>  <SCORE.INTRA.DIHEDRAL.0>
10.0365

>  <SCORE.INTRA.POLAR>
0

>  <SCORE.INTRA.POLAR.0>
0

>  <SCORE.INTRA.REPUL>
0

>  <SCORE.INTRA.REPUL.0>
0

>  <SCORE.INTRA.SOLV>
-1.0878

>  <SCORE.INTRA.SOLV.lig_0>
-48.6728

>  <SCORE.INTRA.VDW>
-0.504393

>  <SCORE.INTRA.VDW.0>
-1.10662

>  <SCORE.INTRA.norm>
0.0280299

>  <SCORE.RESTR>
1.44837

>  <SCORE.RESTR.CAVITY>
1.44837

>  <SCORE.RESTR.norm>
0.0536434

>  <SCORE.SYSTEM>
0

>  <SCORE.SYSTEM.CONST>
0

>  <SCORE.SYSTEM.DIHEDRAL>
0

>  <SCORE.SYSTEM.SOLV>
0

>  <SCORE.SYSTEM.norm>
0

>  <SCORE.heavy>
27

>  <SCORE.norm>
-0.101037

>  <RMSD>
39.931

$$$$
ligand
 OpenBabel11021811483D
libRbt.so/2013.1/901 2013/11/27
 27 29  0  0  0  0  0  0  0  0999 V2000
   39.6434   30.2449   11.9464 N   0  0  0  0  0  0  0  0  0  0  0  0
   40.4064   29.1358   12.5339 C   0  0  2  0  0  0  0  0  0  0  0  0
   41.1317   28.4225   11.4328 C   0  0  0  0  0  0  0  0  0  0  0  0
   40.5532   28.1652   10.3891 O   0  0  0  0  0  0  0  0  0  0  0  0
   39.4609   28.1543   13.2425 C   0  0  0  0  0  0  0  0  0  0  0  0
   40.2827   27.2453   14.1516 C   0  0  0  0  0  0  0  0  0  0  0  0
   39.4571   25.6686   14.5391 S   0  0  2  0  0  0  0  0  0  0  0  0
   40.2400   25.1106   16.0838 C   0  0  0  0  0  0  0  0  0  0  0  0
   40.0513   24.3349   13.4372 C   0  0  0  0  0  0  0  0  0  0  0  0
   38.9949   23.2683   13.5902 C   0  0  1  0  0  0  0  0  0  0  0  0
   39.2610   22.3846   12.5515 O   0  0  0  0  0  0  0  0  0  0  0  0
   38.9701   22.3211   14.7907 C   0  0  1  0  0  0  0  0  0  0  0  0
   38.1986   22.8142   15.8482 O   0  0  0  0  0  0  0  0  0  0  0  0
   38.3405   21.0363   14.0670 C   0  0  1  0  0  0  0  0  0  0  0  0
   37.0840   21.2749   13.4160 O   0  0  0  0  0  0  0  0  0  0  0  0
   39.5360   21.0538   13.1424 C   0  0  1  0  0  0  0  0  0  0  0  0
   42.3044   28.1158   11.5794 O   0  0  0  0  0  0  0  0  0  0  0  0
   40.3096   16.2680   11.8134 N   0  0  0  0  0  0  0  0  0  0  0  0
   39.9492   16.8092   12.9781 C   0  0  0  0  0  0  0  0  0  0  0  0
   39.7437   18.1190   13.1112 N   0  0  0  0  0  0  0  0  0  0  0  0
   40.0132   18.9656   12.1085 C   0  0  0  0  0  0  0  0  0  0  0  0
   40.4671   18.4296   10.8614 C   0  0  0  0  0  0  0  0  0  0  0  0
   40.5962   17.0173   10.7565 C   0  0  0  0  0  0  0  0  0  0  0  0
   41.0063   16.4247    9.5953 N   0  0  0  0  0  0  0  0  0  0  0  0
   40.6692   19.4721   10.0321 N   0  0  0  0  0  0  0  0  0  0  0  0
   40.3857   20.5918   10.6603 C   0  0  0  0  0  0  0  0  0  0  0  0
   39.9588   20.3532   11.9435 N   0  0  0  0  0  0  0  0  0  0  0  0
  2  1  1  6  0  0  0
  2  3  1  0  0  0  0
  2  5  1  0  0  0  0
  3  4  1  0  0  0  0
  3 17  1  0  0  0  0
  5  6  1  0  0  0  0
  7  6  1  6  0  0  0
  7  8  1  0  0  0  0
  7  9  1  0  0  0  0
 10  9  1  1  0  0  0
 10 11  1  0  0  0  0
 10 12  1  0  0  0  0
 11 16  1  0  0  0  0
 12 13  1  1  0  0  0
 12 14  1  0  0  0  0
 14 15  1  6  0  0  0
 14 16  1  0  0  0  0
 16 27  1  6  0  0  0
 18 19  2  0  0  0  0
 18 23  1  0  0  0  0
 19 20  1  0  0  0  0
 20 21  2  0  0  0  0
 21 22  1  0  0  0  0
 21 27  1  0  0  0  0
 22 23  2  0  0  0  0
 22 25  1  0  0  0  0
 23 24  1  0  0  0  0
 25 26  2  0  0  0  0
 26 27  1  0  0  0  0
M  END
>  <CHROM.1>
-44.42119421,-164.62615464,-157.41250864,-157.50617870,-162.90933241,167.15094851
-166.58308785,39.85164791,22.90377118,12.73924577,-1.52433874,-1.11076191
-2.98525407

>  <Name>
ligand

>  <RI>
0

>  <Rbt.Current_Directory>
/home/itssahil/PROJECTS/Mol_Feturizer/New_Systems/rnas/3IQN

>  <Rbt.Executable>
rbdock ($Id: //depot/dev/client3/rdock/2013.1/src/exe/rbdock.cxx#4 $)

>  <Rbt.Library>
libRbt.so (2013.1, Build901 2013/11/27)

>  <Rbt.Parameter_File>
/export/apps/rDock/src/rDock_2013.1_src/data/scripts/dock_solv.prm

>  <Rbt.Receptor>
prm/blind_docking_60.prm

>  <SCORE>
-8.32865

>  <SCORE.INTER>
-7.66357

>  <SCORE.INTER.CONST>
1

>  <SCORE.INTER.POLAR>
0

>  <SCORE.INTER.ROT>
7

>  <SCORE.INTER.SOLV>
9.92388

>  <SCORE.INTER.VDW>
-16.6837

>  <SCORE.INTER.norm>
-0.283836

>  <SCORE.INTRA>
-1.98087

>  <SCORE.INTRA.DIHEDRAL>
-0.26626

>  <SCORE.INTRA.DIHEDRAL.0>
10.0365

>  <SCORE.INTRA.POLAR>
0

>  <SCORE.INTRA.POLAR.0>
0

>  <SCORE.INTRA.REPUL>
0

>  <SCORE.INTRA.REPUL.0>
0

>  <SCORE.INTRA.SOLV>
-0.87814

>  <SCORE.INTRA.SOLV.lig_0>
-48.6728

>  <SCORE.INTRA.VDW>
-1.40867

>  <SCORE.INTRA.VDW.0>
-1.10662

>  <SCORE.INTRA.norm>
-0.0733655

>  <SCORE.RESTR>
1.31579

>  <SCORE.RESTR.CAVITY>
1.31579

>  <SCORE.RESTR.norm>
0.0487329

>  <SCORE.SYSTEM>
0

>  <SCORE.SYSTEM.CONST>
0

>  <SCORE.SYSTEM.DIHEDRAL>
0

>  <SCORE.SYSTEM.SOLV>
0

>  <SCORE.SYSTEM.norm>
0

>  <SCORE.heavy>
27

>  <SCORE.norm>
-0.308469

>  <RMSD>
39.935

$$$$
ligand
 OpenBabel11021811483D
libRbt.so/2013.1/901 2013/11/27
 27 29  0  0  0  0  0  0  0  0999 V2000
   40.3501   29.8404   12.3816 N   0  0  0  0  0  0  0  0  0  0  0  0
   41.1975   28.7044   11.9958 C   0  0  2  0  0  0  0  0  0  0  0  0
   41.4413   28.7740   10.5183 C   0  0  0  0  0  0  0  0  0  0  0  0
   42.5672   28.6048   10.0780 O   0  0  0  0  0  0  0  0  0  0  0  0
   40.5002   27.3789   12.3367 C   0  0  0  0  0  0  0  0  0  0  0  0
   40.4267   27.2348   13.8539 C   0  0  0  0  0  0  0  0  0  0  0  0
   39.5046   25.7617   14.3991 S   0  0  2  0  0  0  0  0  0  0  0  0
   40.0085   25.5223   16.1309 C   0  0  0  0  0  0  0  0  0  0  0  0
   40.2328   24.2398   13.6924 C   0  0  0  0  0  0  0  0  0  0  0  0
   39.0911   23.2548   13.7513 C   0  0  1  0  0  0  0  0  0  0  0  0
   39.3336   22.3998   12.6832 O   0  0  0  0  0  0  0  0  0  0  0  0
   38.9400   22.2600   14.9031 C   0  0  1  0  0  0  0  0  0  0  0  0
   38.1631   22.7654   15.9509 O   0  0  0  0  0  0  0  0  0  0  0  0
   38.2454   21.0628   14.0939 C   0  0  1  0  0  0  0  0  0  0  0  0
   37.0411   21.4293   13.4047 O   0  0  0  0  0  0  0  0  0  0  0  0
   39.4783   21.0264   13.2205 C   0  0  1  0  0  0  0  0  0  0  0  0
   40.5080   28.9845    9.7597 O   0  0  0  0  0  0  0  0  0  0  0  0
   40.3490   16.2749   11.8300 N   0  0  0  0  0  0  0  0  0  0  0  0
   39.9949   16.7954   13.0061 C   0  0  0  0  0  0  0  0  0  0  0  0
   39.7589   18.0982   13.1559 N   0  0  0  0  0  0  0  0  0  0  0  0
   39.9900   18.9611   12.1574 C   0  0  0  0  0  0  0  0  0  0  0  0
   40.4359   18.4489   10.8975 C   0  0  0  0  0  0  0  0  0  0  0  0
   40.5986   17.0414   10.7761 C   0  0  0  0  0  0  0  0  0  0  0  0
   41.0036   16.4707    9.6022 N   0  0  0  0  0  0  0  0  0  0  0  0
   40.5976   19.5042   10.0756 N   0  0  0  0  0  0  0  0  0  0  0  0
   40.2969   20.6103   10.7198 C   0  0  0  0  0  0  0  0  0  0  0  0
   39.8980   20.3484   12.0075 N   0  0  0  0  0  0  0  0  0  0  0  0
  2  1  1  6  0  0  0
  2  3  1  0  0  0  0
  2  5  1  0  0  0  0
  3  4  1  0  0  0  0
  3 17  1  0  0  0  0
  5  6  1  0  0  0  0
  7  6  1  6  0  0  0
  7  8  1  0  0  0  0
  7  9  1  0  0  0  0
 10  9  1  1  0  0  0
 10 11  1  0  0  0  0
 10 12  1  0  0  0  0
 11 16  1  0  0  0  0
 12 13  1  1  0  0  0
 12 14  1  0  0  0  0
 14 15  1  6  0  0  0
 14 16  1  0  0  0  0
 16 27  1  6  0  0  0
 18 19  2  0  0  0  0
 18 23  1  0  0  0  0
 19 20  1  0  0  0  0
 20 21  2  0  0  0  0
 21 22  1  0  0  0  0
 21 27  1  0  0  0  0
 22 23  2  0  0  0  0
 22 25  1  0  0  0  0
 23 24  1  0  0  0  0
 25 26  2  0  0  0  0
 26 27  1  0  0  0  0
M  END
>  <CHROM.1>
134.48329770,-68.27027995,175.52051475,162.24033569,-157.66563449,150.63185970
-173.74052198,39.95690920,22.93706826,12.61167031,-1.41558908,-1.11288440
-2.95836817

>  <Name>
ligand

>  <RI>
0

>  <Rbt.Current_Directory>
/home/itssahil/PROJECTS/Mol_Feturizer/New_Systems/rnas/3IQN

>  <Rbt.Executable>
rbdock ($Id: //depot/dev/client3/rdock/2013.1/src/exe/rbdock.cxx#4 $)

>  <Rbt.Library>
libRbt.so (2013.1, Build901 2013/11/27)

>  <Rbt.Parameter_File>
/export/apps/rDock/src/rDock_2013.1_src/data/scripts/dock_solv.prm

>  <Rbt.Receptor>
prm/blind_docking_60.prm

>  <SCORE>
-8.55479

>  <SCORE.INTER>
-7.20564

>  <SCORE.INTER.CONST>
1

>  <SCORE.INTER.POLAR>
0

>  <SCORE.INTER.ROT>
7

>  <SCORE.INTER.SOLV>
12.5677

>  <SCORE.INTER.VDW>
-17.2597

>  <SCORE.INTER.norm>
-0.266876

>  <SCORE.INTRA>
-2.60851

>  <SCORE.INTRA.DIHEDRAL>
-1.96873

>  <SCORE.INTRA.DIHEDRAL.0>
10.0365

>  <SCORE.INTRA.POLAR>
0

>  <SCORE.INTRA.POLAR.0>
0

>  <SCORE.INTRA.REPUL>
0

>  <SCORE.INTRA.REPUL.0>
0

>  <SCORE.INTRA.SOLV>
-0.342278

>  <SCORE.INTRA.SOLV.lig_0>
-48.6728

>  <SCORE.INTRA.VDW>
-1.45301

>  <SCORE.INTRA.VDW.0>
-1.10662

>  <SCORE.INTRA.norm>
-0.0966114

>  <SCORE.RESTR>
1.25936

>  <SCORE.RESTR.CAVITY>
1.25936

>  <SCORE.RESTR.norm>
0.046643

>  <SCORE.SYSTEM>
0

>  <SCORE.SYSTEM.CONST>
0

>  <SCORE.SYSTEM.DIHEDRAL>
0

>  <SCORE.SYSTEM.SOLV>
0

>  <SCORE.SYSTEM.norm>
0

>  <SCORE.heavy>
27

>  <SCORE.norm>
-0.316844

>  <RMSD>
39.939

$$$$
ligand
 OpenBabel11021811483D
libRbt.so/2013.1/901 2013/11/27
 27 29  0  0  0  0  0  0  0  0999 V2000
   39.8828   28.4337   10.4608 N   0  0  0  0  0  0  0  0  0  0  0  0
   39.5443   28.4408   11.8901 C   0  0  2  0  0  0  0  0  0  0  0  0
   40.4648   29.3937   12.5915 C   0  0  0  0  0  0  0  0  0  0  0  0
   40.0640   30.4999   12.9167 O   0  0  0  0  0  0  0  0  0  0  0  0
   39.7139   27.0350   12.4853 C   0  0  0  0  0  0  0  0  0  0  0  0
   39.5371   27.1143   13.9989 C   0  0  0  0  0  0  0  0  0  0  0  0
   39.1266   25.5143   14.7663 S   0  0  2  0  0  0  0  0  0  0  0  0
   40.1314   25.4637   16.2823 C   0  0  0  0  0  0  0  0  0  0  0  0
   39.9254   24.1368   13.8661 C   0  0  0  0  0  0  0  0  0  0  0  0
   38.8883   23.0423   13.9252 C   0  0  1  0  0  0  0  0  0  0  0  0
   39.1878   22.2404   12.8306 O   0  0  0  0  0  0  0  0  0  0  0  0
   38.8643   22.0112   15.0545 C   0  0  1  0  0  0  0  0  0  0  0  0
   38.0673   22.4127   16.1316 O   0  0  0  0  0  0  0  0  0  0  0  0
   38.2716   20.7699   14.2307 C   0  0  1  0  0  0  0  0  0  0  0  0
   37.0206   21.0307   13.5777 O   0  0  0  0  0  0  0  0  0  0  0  0
   39.4804   20.8761   13.3296 C   0  0  1  0  0  0  0  0  0  0  0  0
   41.6086   29.0523   12.8485 O   0  0  0  0  0  0  0  0  0  0  0  0
   40.4373   16.2188   11.6979 N   0  0  0  0  0  0  0  0  0  0  0  0
   40.0509   16.6692   12.8926 C   0  0  0  0  0  0  0  0  0  0  0  0
   39.7965   17.9591   13.1091 N   0  0  0  0  0  0  0  0  0  0  0  0
   40.0398   18.8787   12.1657 C   0  0  0  0  0  0  0  0  0  0  0  0
   40.5199   18.4423   10.8899 C   0  0  0  0  0  0  0  0  0  0  0  0
   40.7017   17.0455   10.6943 C   0  0  0  0  0  0  0  0  0  0  0  0
   41.1396   16.5454    9.5002 N   0  0  0  0  0  0  0  0  0  0  0  0
   40.6879   19.5434   10.1318 N   0  0  0  0  0  0  0  0  0  0  0  0
   40.3598   20.6086   10.8293 C   0  0  0  0  0  0  0  0  0  0  0  0
   39.9351   20.2712   12.0910 N   0  0  0  0  0  0  0  0  0  0  0  0
  2  1  1  6  0  0  0
  2  3  1  0  0  0  0
  2  5  1  0  0  0  0
  3  4  1  0  0  0  0
  3 17  1  0  0  0  0
  5  6  1  0  0  0  0
  7  6  1  6  0  0  0
  7  8  1  0  0  0  0
  7  9  1  0  0  0  0
 10  9  1  1  0  0  0
 10 11  1  0  0  0  0
 10 12  1  0  0  0  0
 11 16  1  0  0  0  0
 12 13  1  1  0  0  0
 12 14  1  0  0  0  0
 14 15  1  6  0  0  0
 14 16  1  0  0  0  0
 16 27  1  6  0  0  0
 18 19  2  0  0  0  0
 18 23  1  0  0  0  0
 19 20  1  0  0  0  0
 20 21  2  0  0  0  0
 21 22  1  0  0  0  0
 21 27  1  0  0  0  0
 22 23  2  0  0  0  0
 22 25  1  0  0  0  0
 23 24  1  0  0  0  0
 25 26  2  0  0  0  0
 26 27  1  0  0  0  0
M  END
>  <CHROM.1>
102.73549064,172.51679931,159.59512659,138.12129523,-143.09907682,155.73456546
-167.76123965,39.70573679,22.85462800,12.93063691,-1.59856718,-1.14762689
-3.02477227

>  <Name>
ligand

>  <RI>
0

>  <Rbt.Current_Directory>
/home/itssahil/PROJECTS/Mol_Feturizer/New_Systems/rnas/3IQN

>  <Rbt.Executable>
rbdock ($Id: //depot/dev/client3/rdock/2013.1/src/exe/rbdock.cxx#4 $)

>  <Rbt.Library>
libRbt.so (2013.1, Build901 2013/11/27)

>  <Rbt.Parameter_File>
/export/apps/rDock/src/rDock_2013.1_src/data/scripts/dock_solv.prm

>  <Rbt.Receptor>
prm/blind_docking_60.prm

>  <SCORE>
-2.30611

>  <SCORE.INTER>
-4.41047

>  <SCORE.INTER.CONST>
1

>  <SCORE.INTER.POLAR>
0

>  <SCORE.INTER.ROT>
7

>  <SCORE.INTER.SOLV>
9.95638

>  <SCORE.INTER.VDW>
-14.5258

>  <SCORE.INTER.norm>
-0.163351

>  <SCORE.INTRA>
0.688276

>  <SCORE.INTRA.DIHEDRAL>
2.77804

>  <SCORE.INTRA.DIHEDRAL.0>
10.0365

>  <SCORE.INTRA.POLAR>
0

>  <SCORE.INTRA.POLAR.0>
0

>  <SCORE.INTRA.REPUL>
0

>  <SCORE.INTRA.REPUL.0>
0

>  <SCORE.INTRA.SOLV>
-1.03805

>  <SCORE.INTRA.SOLV.lig_0>
-48.6728

>  <SCORE.INTRA.VDW>
-0.181716

>  <SCORE.INTRA.VDW.0>
-1.10662

>  <SCORE.INTRA.norm>
0.0254917

>  <SCORE.RESTR>
1.41608

>  <SCORE.RESTR.CAVITY>
1.41608

>  <SCORE.RESTR.norm>
0.0524475

>  <SCORE.SYSTEM>
0

>  <SCORE.SYSTEM.CONST>
0

>  <SCORE.SYSTEM.DIHEDRAL>
0

>  <SCORE.SYSTEM.SOLV>
0

>  <SCORE.SYSTEM.norm>
0

>  <SCORE.heavy>
27

>  <SCORE.norm>
-0.0854116

>  <RMSD>
39.943

$$$$
ligand
 OpenBabel11021811483D
libRbt.so/2013.1/901 2013/11/27
 27 29  0  0  0  0  0  0  0  0999 V2000
   39.4949   30.2070   11.4368 N   0  0  0  0  0  0  0  0  0  0  0  0
   40.3196   29.1998   12.1169 C   0  0  2  0  0  0  0  0  0  0  0  0
   41.3095   28.6531   11.1327 C   0  0  0  0  0  0  0  0  0  0  0  0
   41.1482   28.8423    9.9376 O   0  0  0  0  0  0  0  0  0  0  0  0
   39.4390   28.0570   12.6442 C   0  0  0  0  0  0  0  0  0  0  0  0
   40.1834   27.3355   13.7638 C   0  0  0  0  0  0  0  0  0  0  0  0
   39.4102   25.7601   14.2515 S   0  0  2  0  0  0  0  0  0  0  0  0
   40.1856   25.3443   15.8441 C   0  0  0  0  0  0  0  0  0  0  0  0
   40.0731   24.3748   13.2578 C   0  0  0  0  0  0  0  0  0  0  0  0
   39.0521   23.2836   13.4677 C   0  0  1  0  0  0  0  0  0  0  0  0
   39.3004   22.3915   12.4318 O   0  0  0  0  0  0  0  0  0  0  0  0
   39.0996   22.3543   14.6814 C   0  0  1  0  0  0  0  0  0  0  0  0
   38.3576   22.8433   15.7618 O   0  0  0  0  0  0  0  0  0  0  0  0
   38.4763   21.0429   14.0015 C   0  0  1  0  0  0  0  0  0  0  0  0
   37.1893   21.2391   13.3977 O   0  0  0  0  0  0  0  0  0  0  0  0
   39.6335   21.0774   13.0300 C   0  0  1  0  0  0  0  0  0  0  0  0
   42.2824   28.0335   11.5330 O   0  0  0  0  0  0  0  0  0  0  0  0
   40.3880   16.2850   11.7137 N   0  0  0  0  0  0  0  0  0  0  0  0
   40.0563   16.8331   12.8837 C   0  0  0  0  0  0  0  0  0  0  0  0
   39.8501   18.1430   13.0133 N   0  0  0  0  0  0  0  0  0  0  0  0
   40.0904   18.9836   11.9981 C   0  0  0  0  0  0  0  0  0  0  0  0
   40.5134   18.4405   10.7432 C   0  0  0  0  0  0  0  0  0  0  0  0
   40.6444   17.0279   10.6445 C   0  0  0  0  0  0  0  0  0  0  0  0
   41.0260   16.4286    9.4771 N   0  0  0  0  0  0  0  0  0  0  0  0
   40.6903   19.4779    9.9019 N   0  0  0  0  0  0  0  0  0  0  0  0
   40.4196   20.6010   10.5296 C   0  0  0  0  0  0  0  0  0  0  0  0
   40.0272   20.3699   11.8252 N   0  0  0  0  0  0  0  0  0  0  0  0
  2  1  1  6  0  0  0
  2  3  1  0  0  0  0
  2  5  1  0  0  0  0
  3  4  1  0  0  0  0
  3 17  1  0  0  0  0
  5  6  1  0  0  0  0
  7  6  1  6  0  0  0
  7  8  1  0  0  0  0
  7  9  1  0  0  0  0
 10  9  1  1  0  0  0
 10 11  1  0  0  0  0
 10 12  1  0  0  0  0
 11 16  1  0  0  0  0
 12 13  1  1  0  0  0
 12 14  1  0  0  0  0
 14 15  1  6  0  0  0
 14 16  1  0  0  0  0
 16 27  1  6  0  0  0
 18 19  2  0  0  0  0
 18 23  1  0  0  0  0
 19 20  1  0  0  0  0
 20 21  2  0  0  0  0
 21 22  1  0  0  0  0
 21 27  1  0  0  0  0
 22 23  2  0  0  0  0
 22 25  1  0  0  0  0
 23 24  1  0  0  0  0
 25 26  2  0  0  0  0
 26 27  1  0  0  0  0
M  END
>  <CHROM.1>
-15.53509540,-158.50771885,-168.29164144,-165.14988939,-162.73082102,162.47198028
-164.99529678,39.90948871,22.96098988,12.54216597,-1.52324371,-1.11420799
-3.01868866

>  <Name>
ligand

>  <RI>
0

>  <Rbt.Current_Directory>
/home/itssahil/PROJECTS/Mol_Feturizer/New_Systems/rnas/3IQN

>  <Rbt.Executable>
rbdock ($Id: //depot/dev/client3/rdock/2013.1/src/exe/rbdock.cxx#4 $)

>  <Rbt.Library>
libRbt.so (2013.1, Build901 2013/11/27)

>  <Rbt.Parameter_File>
/export/apps/rDock/src/rDock_2013.1_src/data/scripts/dock_solv.prm

>  <Rbt.Receptor>
prm/blind_docking_60.prm

>  <SCORE>
-8.36762

>  <SCORE.INTER>
-7.46131

>  <SCORE.INTER.CONST>
1

>  <SCORE.INTER.POLAR>
0

>  <SCORE.INTER.ROT>
7

>  <SCORE.INTER.SOLV>
9.19391

>  <SCORE.INTER.VDW>
-16.3055

>  <SCORE.INTER.norm>
-0.276345

>  <SCORE.INTRA>
-2.24886

>  <SCORE.INTRA.DIHEDRAL>
-1.12321

>  <SCORE.INTRA.DIHEDRAL.0>
10.0365

>  <SCORE.INTRA.POLAR>
0

>  <SCORE.INTRA.POLAR.0>
0

>  <SCORE.INTRA.REPUL>
0

>  <SCORE.INTRA.REPUL.0>
0

>  <SCORE.INTRA.SOLV>
-0.873113

>  <SCORE.INTRA.SOLV.lig_0>
-48.6728

>  <SCORE.INTRA.VDW>
-1.2507

>  <SCORE.INTRA.VDW.0>
-1.10662

>  <SCORE.INTRA.norm>
-0.0832911

>  <SCORE.RESTR>
1.34256

>  <SCORE.RESTR.CAVITY>
1.34256

>  <SCORE.RESTR.norm>
0.0497244

>  <SCORE.SYSTEM>
0

>  <SCORE.SYSTEM.CONST>
0

>  <SCORE.SYSTEM.DIHEDRAL>
0

>  <SCORE.SYSTEM.SOLV>
0

>  <SCORE.SYSTEM.norm>
0

>  <SCORE.heavy>
27

>  <SCORE.norm>
-0.309912

>  <RMSD>
39.969

$$$$
ligand
 OpenBabel11021811483D
libRbt.so/2013.1/901 2013/11/27
 27 29  0  0  0  0  0  0  0  0999 V2000
   39.4915   30.2238   11.6130 N   0  0  0  0  0  0  0  0  0  0  0  0
   40.3048   29.1741   12.2408 C   0  0  2  0  0  0  0  0  0  0  0  0
   41.2492   28.6268   11.2132 C   0  0  0  0  0  0  0  0  0  0  0  0
   42.3048   28.1232   11.5628 O   0  0  0  0  0  0  0  0  0  0  0  0
   39.4058   28.0431   12.7623 C   0  0  0  0  0  0  0  0  0  0  0  0
   40.1371   27.3059   13.8803 C   0  0  0  0  0  0  0  0  0  0  0  0
   39.3771   25.7087   14.3146 S   0  0  2  0  0  0  0  0  0  0  0  0
   40.2136   25.2072   15.8505 C   0  0  0  0  0  0  0  0  0  0  0  0
   39.9937   24.3765   13.2232 C   0  0  0  0  0  0  0  0  0  0  0  0
   38.9948   23.2664   13.4401 C   0  0  1  0  0  0  0  0  0  0  0  0
   39.2597   22.3739   12.4086 O   0  0  0  0  0  0  0  0  0  0  0  0
   39.0623   22.3446   14.6587 C   0  0  1  0  0  0  0  0  0  0  0  0
   38.3120   22.8245   15.7374 O   0  0  0  0  0  0  0  0  0  0  0  0
   38.4644   21.0175   13.9865 C   0  0  1  0  0  0  0  0  0  0  0  0
   37.1730   21.1848   13.3832 O   0  0  0  0  0  0  0  0  0  0  0  0
   39.6196   21.0698   13.0133 C   0  0  1  0  0  0  0  0  0  0  0  0
   40.9505   28.6734   10.0302 O   0  0  0  0  0  0  0  0  0  0  0  0
   40.3947   16.2798   11.7006 N   0  0  0  0  0  0  0  0  0  0  0  0
   40.0510   16.8264   12.8679 C   0  0  0  0  0  0  0  0  0  0  0  0
   39.8413   18.1359   12.9964 N   0  0  0  0  0  0  0  0  0  0  0  0
   40.0898   18.9776   11.9842 C   0  0  0  0  0  0  0  0  0  0  0  0
   40.5256   18.4362   10.7330 C   0  0  0  0  0  0  0  0  0  0  0  0
   40.6599   17.0239   10.6345 C   0  0  0  0  0  0  0  0  0  0  0  0
   41.0536   16.4262    9.4703 N   0  0  0  0  0  0  0  0  0  0  0  0
   40.7087   19.4745    9.8942 N   0  0  0  0  0  0  0  0  0  0  0  0
   40.4301   20.5967   10.5202 C   0  0  0  0  0  0  0  0  0  0  0  0
   40.0258   20.3639   11.8118 N   0  0  0  0  0  0  0  0  0  0  0  0
  2  1  1  6  0  0  0
  2  3  1  0  0  0  0
  2  5  1  0  0  0  0
  3  4  1  0  0  0  0
  3 17  1  0  0  0  0
  5  6  1  0  0  0  0
  7  6  1  6  0  0  0
  7  8  1  0  0  0  0
  7  9  1  0  0  0  0
 10  9  1  1  0  0  0
 10 11  1  0  0  0  0
 10 12  1  0  0  0  0
 11 16  1  0  0  0  0
 12 13  1  1  0  0  0
 12 14  1  0  0  0  0
 14 15  1  6  0  0  0
 14 16  1  0  0  0  0
 16 27  1  6  0  0  0
 18 19  2  0  0  0  0
 18 23  1  0  0  0  0
 19 20  1  0  0  0  0
 20 21  2  0  0  0  0
 21 22  1  0  0  0  0
 21 27  1  0  0  0  0
 22 23  2  0  0  0  0
 22 25  1  0  0  0  0
 23 24  1  0  0  0  0
 25 26  2  0  0  0  0
 26 27  1  0  0  0  0
M  END
>  <CHROM.1>
153.87806521,-156.12708038,-165.95839929,-169.17481471,-163.98990000,166.80503585
-163.73775524,39.88677453,22.93832860,12.56354878,-1.53589696,-1.10828125
-3.01805166

>  <Name>
ligand

>  <RI>
0

>  <Rbt.Current_Directory>
/home/itssahil/PROJECTS/Mol_Feturizer/New_Systems/rnas/3IQN

>  <Rbt.Executable>
rbdock ($Id: //depot/dev/client3/rdock/2013.1/src/exe/rbdock.cxx#4 $)

>  <Rbt.Library>
libRbt.so (2013.1, Build901 2013/11/27)

>  <Rbt.Parameter_File>
/export/apps/rDock/src/rDock_2013.1_src/data/scripts/dock_solv.prm

>  <Rbt.Receptor>
prm/blind_docking_60.prm

>  <SCORE>
-8.63561

>  <SCORE.INTER>
-7.51875

>  <SCORE.INTER.CONST>
1

>  <SCORE.INTER.POLAR>
0

>  <SCORE.INTER.ROT>
7

>  <SCORE.INTER.SOLV>
9.30157

>  <SCORE.INTER.VDW>
-16.3797

>  <SCORE.INTER.norm>
-0.278472

>  <SCORE.INTRA>
-2.48952

>  <SCORE.INTRA.DIHEDRAL>
-1.58358

>  <SCORE.INTRA.DIHEDRAL.0>
10.0365

>  <SCORE.INTRA.POLAR>
0

>  <SCORE.INTRA.POLAR.0>
0

>  <SCORE.INTRA.REPUL>
0

>  <SCORE.INTRA.REPUL.0>
0

>  <SCORE.INTRA.SOLV>
-0.847731

>  <SCORE.INTRA.SOLV.lig_0>
-48.6728

>  <SCORE.INTRA.VDW>
-1.27387

>  <SCORE.INTRA.VDW.0>
-1.10662

>  <SCORE.INTRA.norm>
-0.0922044

>  <SCORE.RESTR>
1.37266

>  <SCORE.RESTR.CAVITY>
1.37266

>  <SCORE.RESTR.norm>
0.0508393

>  <SCORE.SYSTEM>
0

>  <SCORE.SYSTEM.CONST>
0

>  <SCORE.SYSTEM.DIHEDRAL>
0

>  <SCORE.SYSTEM.SOLV>
0

>  <SCORE.SYSTEM.norm>
0

>  <SCORE.heavy>
27

>  <SCORE.norm>
-0.319837

>  <RMSD>
39.981

$$$$
ligand
 OpenBabel11021811483D
libRbt.so/2013.1/901 2013/11/27
 27 29  0  0  0  0  0  0  0  0999 V2000
   39.4143   26.7198   11.6478 N   0  0  0  0  0  0  0  0  0  0  0  0
   39.7171   28.1336   11.9061 C   0  0  2  0  0  0  0  0  0  0  0  0
   41.0178   28.4700   11.2409 C   0  0  0  0  0  0  0  0  0  0  0  0
   42.0391   27.8887   11.5711 O   0  0  0  0  0  0  0  0  0  0  0  0
   39.8354   28.3864   13.4166 C   0  0  0  0  0  0  0  0  0  0  0  0
   40.6440   27.2554   14.0453 C   0  0  0  0  0  0  0  0  0  0  0  0
   39.6497   25.7778   14.4268 S   0  0  2  0  0  0  0  0  0  0  0  0
   40.1405   25.3211   16.1182 C   0  0  0  0  0  0  0  0  0  0  0  0
   40.3017   24.3107   13.5503 C   0  0  0  0  0  0  0  0  0  0  0  0
   39.1625   23.3249   13.6386 C   0  0  1  0  0  0  0  0  0  0  0  0
   39.4039   22.4426   12.5926 O   0  0  0  0  0  0  0  0  0  0  0  0
   39.0171   22.3606   14.8167 C   0  0  1  0  0  0  0  0  0  0  0  0
   38.2422   22.8916   15.8531 O   0  0  0  0  0  0  0  0  0  0  0  0
   38.3229   21.1408   14.0414 C   0  0  1  0  0  0  0  0  0  0  0  0
   37.1158   21.4862   13.3463 O   0  0  0  0  0  0  0  0  0  0  0  0
   39.5533   21.0842   13.1655 C   0  0  1  0  0  0  0  0  0  0  0  0
   41.0465   29.3142   10.3593 O   0  0  0  0  0  0  0  0  0  0  0  0
   40.2830   16.2866   11.8542 N   0  0  0  0  0  0  0  0  0  0  0  0
   39.9261   16.8353   13.0165 C   0  0  0  0  0  0  0  0  0  0  0  0
   39.7330   18.1474   13.1447 N   0  0  0  0  0  0  0  0  0  0  0  0
   40.0120   18.9879   12.1395 C   0  0  0  0  0  0  0  0  0  0  0  0
   40.4625   18.4433   10.8949 C   0  0  0  0  0  0  0  0  0  0  0  0
   40.5783   17.0295   10.7950 C   0  0  0  0  0  0  0  0  0  0  0  0
   40.9843   16.4290    9.6365 N   0  0  0  0  0  0  0  0  0  0  0  0
   40.6758   19.4809   10.0623 N   0  0  0  0  0  0  0  0  0  0  0  0
   40.4021   20.6055   10.6862 C   0  0  0  0  0  0  0  0  0  0  0  0
   39.9711   20.3754   11.9696 N   0  0  0  0  0  0  0  0  0  0  0  0
  2  1  1  1  0  0  0
  2  3  1  0  0  0  0
  2  5  1  0  0  0  0
  3  4  1  0  0  0  0
  3 17  1  0  0  0  0
  5  6  1  0  0  0  0
  7  6  1  6  0  0  0
  7  8  1  0  0  0  0
  7  9  1  0  0  0  0
 10  9  1  1  0  0  0
 10 11  1  0  0  0  0
 10 12  1  0  0  0  0
 11 16  1  0  0  0  0
 12 13  1  1  0  0  0
 12 14  1  0  0  0  0
 14 15  1  6  0  0  0
 14 16  1  0  0  0  0
 16 27  1  6  0  0  0
 18 19  2  0  0  0  0
 18 23  1  0  0  0  0
 19 20  1  0  0  0  0
 20 21  2  0  0  0  0
 21 22  1  0  0  0  0
 21 27  1  0  0  0  0
 22 23  2  0  0  0  0
 22 25  1  0  0  0  0
 23 24  1  0  0  0  0
 25 26  2  0  0  0  0
 26 27  1  0  0  0  0
M  END
>  <CHROM.1>
-61.16977567,43.42890061,-83.46838888,-133.58001956,-163.68882806,158.13980684
-171.18185158,39.88741163,22.83560198,12.71146973,-1.50430957,-1.13557656
-2.96895311

>  <Name>
ligand

>  <RI>
0

>  <Rbt.Current_Directory>
/home/itssahil/PROJECTS/Mol_Feturizer/New_Systems/rnas/3IQN

>  <Rbt.Executable>
rbdock ($Id: //depot/dev/client3/rdock/2013.1/src/exe/rbdock.cxx#4 $)

>  <Rbt.Library>
libRbt.so (2013.1, Build901 2013/11/27)

>  <Rbt.Parameter_File>
/export/apps/rDock/src/rDock_2013.1_src/data/scripts/dock_solv.prm

>  <Rbt.Receptor>
prm/blind_docking_60.prm

>  <SCORE>
-3.70137

>  <SCORE.INTER>
-7.3335

>  <SCORE.INTER.CONST>
1

>  <SCORE.INTER.POLAR>
0

>  <SCORE.INTER.ROT>
7

>  <SCORE.INTER.SOLV>
9.92517

>  <SCORE.INTER.VDW>
-16.4641

>  <SCORE.INTER.norm>
-0.271611

>  <SCORE.INTRA>
2.33624

>  <SCORE.INTRA.DIHEDRAL>
2.92113

>  <SCORE.INTRA.DIHEDRAL.0>
10.0365

>  <SCORE.INTRA.POLAR>
0

>  <SCORE.INTRA.POLAR.0>
0

>  <SCORE.INTRA.REPUL>
0

>  <SCORE.INTRA.REPUL.0>
0

>  <SCORE.INTRA.SOLV>
2.58986

>  <SCORE.INTRA.SOLV.lig_0>
-48.6728

>  <SCORE.INTRA.VDW>
-0.419253

>  <SCORE.INTRA.VDW.0>
-1.10662

>  <SCORE.INTRA.norm>
0.0865274

>  <SCORE.RESTR>
1.2959

>  <SCORE.RESTR.CAVITY>
1.2959

>  <SCORE.RESTR.norm>
0.0479962

>  <SCORE.SYSTEM>
0

>  <SCORE.SYSTEM.CONST>
0

>  <SCORE.SYSTEM.DIHEDRAL>
0

>  <SCORE.SYSTEM.SOLV>
0

>  <SCORE.SYSTEM.norm>
0

>  <SCORE.heavy>
27

>  <SCORE.norm>
-0.137088

>  <RMSD>
39.995

$$$$
ligand
 OpenBabel11021811483D
libRbt.so/2013.1/901 2013/11/27
 27 29  0  0  0  0  0  0  0  0999 V2000
   39.4113   26.9305   10.9483 N   0  0  0  0  0  0  0  0  0  0  0  0
   40.0523   28.0480   11.6538 C   0  0  2  0  0  0  0  0  0  0  0  0
   40.5085   29.0518   10.6381 C   0  0  0  0  0  0  0  0  0  0  0  0
   40.8185   28.6851    9.5158 O   0  0  0  0  0  0  0  0  0  0  0  0
   41.2622   27.5479   12.4571 C   0  0  0  0  0  0  0  0  0  0  0  0
   40.8240   27.2756   13.8931 C   0  0  0  0  0  0  0  0  0  0  0  0
   39.6363   25.9027   14.0414 S   0  0  2  0  0  0  0  0  0  0  0  0
   39.5257   25.5855   15.8295 C   0  0  0  0  0  0  0  0  0  0  0  0
   40.4026   24.3216   13.5328 C   0  0  0  0  0  0  0  0  0  0  0  0
   39.2579   23.3424   13.6212 C   0  0  1  0  0  0  0  0  0  0  0  0
   39.4903   22.4628   12.5709 O   0  0  0  0  0  0  0  0  0  0  0  0
   39.1107   22.3742   14.7960 C   0  0  1  0  0  0  0  0  0  0  0  0
   38.3425   22.9058   15.8372 O   0  0  0  0  0  0  0  0  0  0  0  0
   38.4065   21.1618   14.0183 C   0  0  1  0  0  0  0  0  0  0  0  0
   37.1991   21.5172   13.3288 O   0  0  0  0  0  0  0  0  0  0  0  0
   39.6335   21.1012   13.1379 C   0  0  1  0  0  0  0  0  0  0  0  0
   40.5528   30.2355   10.9341 O   0  0  0  0  0  0  0  0  0  0  0  0
   40.3284   16.3045   11.8047 N   0  0  0  0  0  0  0  0  0  0  0  0
   39.9788   16.8507   12.9704 C   0  0  0  0  0  0  0  0  0  0  0  0
   39.7944   18.1634   13.1046 N   0  0  0  0  0  0  0  0  0  0  0  0
   40.0755   19.0063   12.1019 C   0  0  0  0  0  0  0  0  0  0  0  0
   40.5185   18.4639   10.8536 C   0  0  0  0  0  0  0  0  0  0  0  0
   40.6249   17.0498   10.7477 C   0  0  0  0  0  0  0  0  0  0  0  0
   41.0234   16.4514    9.5854 N   0  0  0  0  0  0  0  0  0  0  0  0
   40.7357   19.5035   10.0246 N   0  0  0  0  0  0  0  0  0  0  0  0
   40.4712   20.6273   10.6539 C   0  0  0  0  0  0  0  0  0  0  0  0
   40.0429   20.3947   11.9378 N   0  0  0  0  0  0  0  0  0  0  0  0
  2  1  1  6  0  0  0
  2  3  1  0  0  0  0
  2  5  1  0  0  0  0
  3  4  1  0  0  0  0
  3 17  1  0  0  0  0
  5  6  1  0  0  0  0
  7  6  1  1  0  0  0
  7  8  1  0  0  0  0
  7  9  1  0  0  0  0
 10  9  1  1  0  0  0
 10 11  1  0  0  0  0
 10 12  1  0  0  0  0
 11 16  1  0  0  0  0
 12 13  1  1  0  0  0
 12 14  1  0  0  0  0
 14 15  1  6  0  0  0
 14 16  1  0  0  0  0
 16 27  1  6  0  0  0
 18 19  2  0  0  0  0
 18 23  1  0  0  0  0
 19 20  1  0  0  0  0
 20 21  2  0  0  0  0
 21 22  1  0  0  0  0
 21 27  1  0  0  0  0
 22 23  2  0  0  0  0
 22 25  1  0  0  0  0
 23 24  1  0  0  0  0
 25 26  2  0  0  0  0
 26 27  1  0  0  0  0
M  END
>  <CHROM.1>
-29.21448757,-95.07363139,65.86815128,169.67797577,-175.88159969,144.84028560
-171.15921832,39.89078593,22.93150396,12.49633297,-1.52600645,-1.20886307
-3.05715128

>  <Name>
ligand

>  <RI>
0

>  <Rbt.Current_Directory>
/home/itssahil/PROJECTS/Mol_Feturizer/New_Systems/rnas/3IQN

>  <Rbt.Executable>
rbdock ($Id: //depot/dev/client3/rdock/2013.1/src/exe/rbdock.cxx#4 $)

>  <Rbt.Library>
libRbt.so (2013.1, Build901 2013/11/27)

>  <Rbt.Parameter_File>
/export/apps/rDock/src/rDock_2013.1_src/data/scripts/dock_solv.prm

>  <Rbt.Receptor>
prm/blind_docking_60.prm

>  <SCORE>
-4.92364

>  <SCORE.INTER>
-5.94886

>  <SCORE.INTER.CONST>
1

>  <SCORE.INTER.POLAR>
0

>  <SCORE.INTER.ROT>
7

>  <SCORE.INTER.SOLV>
11.2009

>  <SCORE.INTER.VDW>
-15.9662

>  <SCORE.INTER.norm>
-0.220328

>  <SCORE.INTRA>
-0.273288

>  <SCORE.INTRA.DIHEDRAL>
0.276086

>  <SCORE.INTRA.DIHEDRAL.0>
10.0365

>  <SCORE.INTRA.POLAR>
0

>  <SCORE.INTRA.POLAR.0>
0

>  <SCORE.INTRA.REPUL>
0

>  <SCORE.INTRA.REPUL.0>
0

>  <SCORE.INTRA.SOLV>
1.23931

>  <SCORE.INTRA.SOLV.lig_0>
-48.6728

>  <SCORE.INTRA.VDW>
-1.03098

>  <SCORE.INTRA.VDW.0>
-1.10662

>  <SCORE.INTRA.norm>
-0.0101218

>  <SCORE.RESTR>
1.29851

>  <SCORE.RESTR.CAVITY>
1.29851

>  <SCORE.RESTR.norm>
0.0480929

>  <SCORE.SYSTEM>
0

>  <SCORE.SYSTEM.CONST>
0

>  <SCORE.SYSTEM.DIHEDRAL>
0

>  <SCORE.SYSTEM.SOLV>
0

>  <SCORE.SYSTEM.norm>
0

>  <SCORE.heavy>
27

>  <SCORE.norm>
-0.182357

>  <RMSD>
40.003

$$$$
