@<TRIPOS>MOLECULE
3IQN_rdock.pdb
 2030 2276 0 0 0
SMALL
GASTEIGER

@<TRIPOS>ATOM
      1  P         66.1130   53.2990   32.8590 P.3     1  G1          0.1280
      2  C5'       67.8010   51.2020   32.9380 C.3     1  G1          0.1795
      3  O5'       66.7490   51.9700   33.5700 O.3     1  G1         -0.3259
      4  C4'       68.5910   50.4390   33.9840 C.3     1  G1          0.1772
      5  O4'       69.2320   51.3660   34.8980 O.3     1  G1         -0.3307
      6  C3'       67.7940   49.5010   34.8700 C.3     1  G1          0.1860
      7  O3'       67.7500   48.2240   34.2600 O.3     1  G1         -0.3112
      8  C2'       68.6590   49.4200   36.1210 C.3     1  G1          0.2309
      9  O2'       69.7080   48.4870   35.9840 O.3     1  G1         -0.2156
     10  C1'       69.2040   50.8460   36.2160 C.3     1  G1          0.2408
     11  N1        67.2040   51.8790   40.8100 N.ar    1  G1         -0.1709
     12  C2        67.9920   50.8210   40.4300 C.ar    1  G1          0.2606
     13  N2        68.2750   49.9400   41.3920 N.pl3   1  G1         -0.0859
     14  N3        68.4630   50.6450   39.1990 N.ar    1  G1         -0.1918
     15  C4        68.0680   51.6330   38.3630 C.ar    1  G1          0.1723
     16  C5        67.2790   52.7340   38.6460 C.ar    1  G1          0.1748
     17  C6        66.7880   52.9100   39.9700 C.ar    1  G1          0.3023
     18  O6        66.0790   53.8270   40.4160 O.2     1  G1         -0.2633
     19  N7        67.0970   53.5170   37.5120 N.ar    1  G1         -0.2173
     20  C8        67.7630   52.8930   36.5780 C.ar    1  G1          0.1817
     21  N9        68.3810   51.7460   37.0220 N.ar    1  G1         -0.2693
     22  OP1       67.2240   54.3300   32.7540 O.3     1  G1         -0.1955
     23  OP2       65.6400   52.8580   31.4830 O.co2   1  G1         -0.7863
     24  P         66.5150   47.2470   34.5550 P.3     2  G2          0.2141
     25  C5'       67.3480   45.9490   36.6550 C.3     2  G2          0.1812
     26  O5'       66.5720   47.0100   36.1260 O.3     2  G2         -0.3114
     27  C4'       67.0310   45.7470   38.1120 C.3     2  G2          0.1773
     28  O4'       67.4190   46.9390   38.8400 O.3     2  G2         -0.3307
     29  C3'       65.5610   45.5590   38.4580 C.3     2  G2          0.1860
     30  O3'       65.1740   44.2000   38.3400 O.3     2  G2         -0.3112
     31  C2'       65.5310   45.9920   39.9130 C.3     2  G2          0.2309
     32  O2'       66.0200   44.9910   40.7810 O.3     2  G2         -0.2156
     33  C1'       66.5060   47.1660   39.8940 C.3     2  G2          0.2408
     34  N1        63.4420   50.6870   41.8310 N.ar    2  G2         -0.1709
     35  C2        63.9300   49.5320   42.4040 C.ar    2  G2          0.2606
     36  N2        63.5560   49.2800   43.6610 N.pl3   2  G2         -0.0859
     37  N3        64.7300   48.6870   41.7880 N.ar    2  G2         -0.1918
     38  C4        65.0150   49.0900   40.5310 C.ar    2  G2          0.1723
     39  C5        64.5880   50.2200   39.8660 C.ar    2  G2          0.1748
     40  C6        63.7280   51.1240   40.5390 C.ar    2  G2          0.3023
     41  O6        63.2460   52.1870   40.1230 O.2     2  G2         -0.2633
     42  N7        65.1140   50.2610   38.5820 N.ar    2  G2         -0.2173
     43  C8        65.8340   49.1740   38.4910 C.ar    2  G2          0.1817
     44  N9        65.8180   48.4240   39.6410 N.ar    2  G2         -0.2693
     45  OP1       66.7800   45.9400   33.8960 O.2     2  G2         -0.5172
     46  OP2       65.2900   48.0110   34.2160 O.co2   2  G2         -0.4373
     47  P         63.6350   43.8330   38.0580 P.3     3  C3          0.2141
     48  C5'       63.5730   43.4030   40.6280 C.3     3  C3          0.1812
     49  O5'       62.9420   43.9520   39.4860 O.3     3  C3         -0.3114
     50  C4'       62.8460   43.8060   41.8820 C.3     3  C3          0.1773
     51  O4'       63.1930   45.1730   42.2240 O.3     3  C3         -0.3307
     52  C3'       61.3420   43.8620   41.7460 C.3     3  C3          0.1860
     53  O3'       60.7660   42.5950   41.9220 O.3     3  C3         -0.3112
     54  C2'       60.9510   44.7910   42.8760 C.3     3  C3          0.2309
     55  O2'       61.0120   44.1270   44.1150 O.3     3  C3         -0.2156
     56  C1'       62.0750   45.8160   42.8130 C.3     3  C3          0.2420
     57  N1        61.6920   46.9550   41.9810 N.ar    3  C3         -0.2535
     58  C2        60.8730   47.9400   42.5370 C.ar    3  C3          0.3532
     59  O2        60.5050   47.8200   43.7160 O.2     3  C3         -0.2443
     60  N3        60.5030   48.9900   41.7790 N.ar    3  C3         -0.1739
     61  C4        60.9140   49.0760   40.5170 C.ar    3  C3          0.1759
     62  N4        60.5200   50.1250   39.8100 N.pl3   3  C3         -0.1070
     63  C5        61.7490   48.0870   39.9260 C.ar    3  C3          0.0566
     64  C6        62.1140   47.0530   40.6880 C.ar    3  C3          0.0850
     65  OP1       63.5960   42.4160   37.6220 O.3     3  C3         -0.4373
     66  OP2       63.0470   44.8810   37.1930 O.co2   3  C3         -0.5172
     67  P         59.4570   42.2320   41.0920 P.3     4  U4          0.2141
     68  C5'       57.7120   42.5060   43.0070 C.3     4  U4          0.1812
     69  O5'       58.3010   43.0360   41.8400 O.3     4  U4         -0.3114
     70  C4'       56.9640   43.5690   43.7660 C.3     4  U4          0.1773
     71  O4'       57.6790   44.8320   43.6890 O.3     4  U4         -0.3307
     72  C3'       55.6200   43.9140   43.1630 C.3     4  U4          0.1860
     73  O3'       54.6280   42.9640   43.4930 O.3     4  U4         -0.3112
     74  C2'       55.3510   45.2950   43.7340 C.3     4  U4          0.2309
     75  O2'       54.8890   45.2280   45.0700 O.3     4  U4         -0.2156
     76  C1'       56.7520   45.9090   43.6930 C.3     4  U4          0.2420
     77  N1        56.9970   46.7700   42.5220 N.ar    4  U4         -0.2534
     78  C2        56.3270   47.9910   42.4650 C.ar    4  U4          0.3546
     79  O2        55.5580   48.3620   43.3190 O.2     4  U4         -0.2443
     80  N3        56.5950   48.7580   41.3660 N.ar    4  U4         -0.1530
     81  C4        57.4400   48.4480   40.3310 C.ar    4  U4          0.2846
     82  O4        57.5790   49.2540   39.4130 O.2     4  U4         -0.2650
     83  C5        58.0950   47.1690   40.4490 C.ar    4  U4          0.0814
     84  C6        57.8560   46.3950   41.5170 C.ar    4  U4          0.0870
     85  OP1       59.2220   40.7650   41.2020 O.3     4  U4         -0.4373
     86  OP2       59.7010   42.8490   39.7610 O.co2   4  U4         -0.5172
     87  P         53.7250   42.3530   42.3210 P.3     5  U5          0.2141
     88  C5'       51.7570   43.9470   42.9640 C.3     5  U5          0.1812
     89  O5'       52.7160   43.5470   41.9890 O.3     5  U5         -0.3114
     90  C4'       51.2450   45.3520   42.7040 C.3     5  U5          0.1773
     91  O4'       52.3520   46.2960   42.6110 O.3     5  U5         -0.3307
     92  C3'       50.4890   45.5530   41.4040 C.3     5  U5          0.1860
     93  O3'       49.1440   45.1130   41.5090 O.3     5  U5         -0.3112
     94  C2'       50.6160   47.0540   41.1810 C.3     5  U5          0.2309
     95  O2'       49.7290   47.7900   41.9990 O.3     5  U5         -0.2156
     96  C1'       52.0450   47.3040   41.6550 C.3     5  U5          0.2420
     97  N1        53.0280   47.2260   40.5660 N.ar    5  U5         -0.2534
     98  C2        53.1520   48.3140   39.7140 C.ar    5  U5          0.3546
     99  O2        52.4890   49.3220   39.8230 O.2     5  U5         -0.2443
    100  N3        54.0900   48.1690   38.7280 N.ar    5  U5         -0.1530
    101  C4        54.9010   47.0740   38.5120 C.ar    5  U5          0.2846
    102  O4        55.7060   47.0960   37.5870 O.2     5  U5         -0.2650
    103  C5        54.7130   45.9960   39.4290 C.ar    5  U5          0.0814
    104  C6        53.8050   46.1060   40.4010 C.ar    5  U5          0.0870
    105  OP1       52.9400   41.2190   42.8740 O.3     5  U5         -0.4373
    106  OP2       54.6440   42.1130   41.1770 O.co2   5  U5         -0.5172
    107  P         48.4720   44.3600   40.2610 P.3     6  A6          0.2141
    108  C5'       46.7290   46.2790   40.0900 C.3     6  A6          0.1812
    109  O5'       47.7750   45.5530   39.4730 O.3     6  A6         -0.3114
    110  C4'       46.4970   47.5770   39.3810 C.3     6  A6          0.1773
    111  O4'       47.6810   48.3930   39.5190 O.3     6  A6         -0.3307
    112  C3'       46.3200   47.4810   37.8840 C.3     6  A6          0.1860
    113  O3'       45.0170   47.1170   37.4980 O.3     6  A6         -0.3112
    114  C2'       46.6850   48.8780   37.4420 C.3     6  A6          0.2309
    115  O2'       45.6540   49.7770   37.7940 O.3     6  A6         -0.2156
    116  C1'       47.8870   49.1410   38.3360 C.3     6  A6          0.2408
    117  N1        51.8280   50.3320   35.2840 N.ar    6  A6         -0.2040
    118  C2        50.7560   51.0330   35.6880 C.ar    6  A6          0.2016
    119  N3        49.7630   50.6620   36.4820 N.ar    6  A6         -0.2048
    120  C4        49.9390   49.3940   36.8890 C.ar    6  A6          0.1692
    121  C5        50.9840   48.5500   36.5600 C.ar    6  A6          0.1518
    122  C6        51.9750   49.0630   35.7120 C.ar    6  A6          0.1919
    123  N6        53.0480   48.3730   35.3070 N.pl3   6  A6         -0.1054
    124  N7        50.8210   47.3150   37.1630 N.ar    6  A6         -0.2193
    125  C8        49.7020   47.4370   37.8320 C.ar    6  A6          0.1816
    126  N9        49.1200   48.6700   37.7150 N.ar    6  A6         -0.2693
    127  OP1       47.4390   43.4360   40.7870 O.3     6  A6         -0.4373
    128  OP2       49.5710   43.8160   39.4240 O.co2   6  A6         -0.5172
    129  P         44.8370   46.1250   36.2610 P.3     7  U7          0.2141
    130  C5'       44.2480   48.3720   35.0730 C.3     7  U7          0.1812
    131  O5'       44.8590   47.0990   35.0040 O.3     7  U7         -0.3114
    132  C4'       44.6430   49.2110   33.8870 C.3     7  U7          0.1773
    133  O4'       45.9310   49.8280   34.1580 O.3     7  U7         -0.3307
    134  C3'       44.8650   48.4760   32.5780 C.3     7  U7          0.1860
    135  O3'       43.6670   48.1960   31.8570 O.3     7  U7         -0.3112
    136  C2'       45.7630   49.4550   31.8400 C.3     7  U7          0.2309
    137  O2'       45.0190   50.5740   31.4020 O.3     7  U7         -0.2156
    138  C1'       46.6860   49.9120   32.9640 C.3     7  U7          0.2420
    139  N1        47.8810   49.0670   33.1130 N.ar    7  U7         -0.2534
    140  C2        49.0180   49.3970   32.3810 C.ar    7  U7          0.3546
    141  O2        49.0620   50.3500   31.6120 O.2     7  U7         -0.2443
    142  N3        50.1030   48.5750   32.5870 N.ar    7  U7         -0.1530
    143  C4        50.1690   47.4790   33.4270 C.ar    7  U7          0.2846
    144  O4        51.2170   46.8280   33.5110 O.2     7  U7         -0.2650
    145  C5        48.9580   47.2080   34.1370 C.ar    7  U7          0.0814
    146  C6        47.8830   47.9890   33.9570 C.ar    7  U7          0.0870
    147  OP1       43.5040   45.5010   36.4050 O.3     7  U7         -0.4373
    148  OP2       46.0490   45.2680   36.1490 O.co2   7  U7         -0.5172
    149  P         43.6420   46.9760   30.8000 P.3     8  C8          0.2141
    150  C5'       44.2130   48.6700   28.9040 C.3     8  C8          0.1812
    151  O5'       44.5490   47.4910   29.6050 O.3     8  C8         -0.3114
    152  C4'       45.2650   48.9650   27.8760 C.3     8  C8          0.1773
    153  O4'       46.4970   49.2780   28.5680 O.3     8  C8         -0.3307
    154  C3'       45.6390   47.7790   27.0090 C.3     8  C8          0.1860
    155  O3'       44.7600   47.6880   25.9050 O.3     8  C8         -0.3112
    156  C2'       47.0430   48.1500   26.5590 C.3     8  C8          0.2309
    157  O2'       47.0300   49.1110   25.5300 O.3     8  C8         -0.2156
    158  C1'       47.5980   48.8050   27.8210 C.3     8  C8          0.2420
    159  N1        48.3670   47.8820   28.6550 N.ar    8  C8         -0.2535
    160  C2        49.7570   47.8280   28.4800 C.ar    8  C8          0.3532
    161  O2        50.2900   48.6010   27.6580 O.2     8  C8         -0.2443
    162  N3        50.4790   46.9400   29.2050 N.ar    8  C8         -0.1739
    163  C4        49.8660   46.1370   30.0740 C.ar    8  C8          0.1759
    164  N4        50.6110   45.2670   30.7400 N.pl3   8  C8         -0.1070
    165  C5        48.4570   46.1900   30.2910 C.ar    8  C8          0.0566
    166  C6        47.7520   47.0720   29.5690 C.ar    8  C8          0.0850
    167  OP1       42.2530   46.8090   30.3040 O.2     8  C8         -0.5172
    168  OP2       44.3630   45.8050   31.3560 O.co2   8  C8         -0.4373
    169  P         44.2800   46.2500   25.3920 P.3     9  A9          0.2141
    170  C5'       43.5040   46.9710   22.9960 C.3     9  A9          0.1812
    171  O5'       43.1550   46.5950   24.3210 O.3     9  A9         -0.3114
    172  C4'       42.2670   47.3500   22.2130 C.3     9  A9          0.1773
    173  O4'       41.4080   46.1890   22.0380 O.3     9  A9         -0.3307
    174  C3'       41.3830   48.3920   22.8780 C.3     9  A9          0.1860
    175  O3'       40.5590   48.9940   21.9010 O.3     9  A9         -0.3112
    176  C2'       40.4780   47.5480   23.7560 C.3     9  A9          0.2309
    177  O2'       39.2530   48.2060   24.0020 O.3     9  A9         -0.2156
    178  C1'       40.2700   46.3060   22.8800 C.3     9  A9          0.2408
    179  N1        38.7030   41.3830   22.8660 N.ar    9  A9         -0.2040
    180  C2        38.6910   42.3320   21.9200 C.ar    9  A9          0.2016
    181  N3        39.1110   43.5980   21.9860 N.ar    9  A9         -0.2048
    182  C4        39.5980   43.8730   23.2070 C.ar    9  A9          0.1692
    183  C5        39.6730   43.0030   24.2830 C.ar    9  A9          0.1518
    184  C6        39.1980   41.6940   24.0850 C.ar    9  A9          0.1919
    185  N6        39.2140   40.7510   25.0310 N.pl3   9  A9         -0.1054
    186  N7        40.2330   43.6320   25.3870 N.ar    9  A9         -0.2193
    187  C8        40.4860   44.8470   24.9610 C.ar    9  A9          0.1816
    188  N9        40.1270   45.0640   23.6490 N.ar    9  A9         -0.2693
    189  OP1       43.6230   45.5660   26.5320 O.3     9  A9         -0.4373
    190  OP2       45.4290   45.6100   24.7050 O.co2   9  A9         -0.5172
    191  P         41.2160   49.8320   20.7070 P.3    10  A10         0.2141
    192  C5'       38.8000   50.7870   20.6740 C.3    10  A10         0.1812
    193  O5'       40.1940   51.0350   20.5620 O.3    10  A10        -0.3114
    194  C4'       38.1190   51.9240   21.3840 C.3    10  A10         0.1773
    195  O4'       38.3130   51.7800   22.8150 O.3    10  A10        -0.3307
    196  C3'       38.6990   53.2890   21.0800 C.3    10  A10         0.1860
    197  O3'       38.1950   53.8090   19.8690 O.3    10  A10        -0.3112
    198  C2'       38.2760   54.0960   22.2960 C.3    10  A10         0.2309
    199  O2'       36.9250   54.5050   22.2300 O.3    10  A10        -0.2156
    200  C1'       38.4570   53.0630   23.4080 C.3    10  A10         0.2408
    201  N1        41.6080   55.7110   26.4740 N.ar   10  A10        -0.2040
    202  C2        40.3240   55.8820   26.1470 C.ar   10  A10         0.2016
    203  N3        39.5540   55.1450   25.3600 N.ar   10  A10        -0.2048
    204  C4        40.2430   54.1050   24.8680 C.ar   10  A10         0.1692
    205  C5        41.5640   53.7940   25.1180 C.ar   10  A10         0.1518
    206  C6        42.2680   54.6490   25.9650 C.ar   10  A10         0.1919
    207  N6        43.5460   54.4700   26.2920 N.pl3  10  A10        -0.1054
    208  N7        41.9350   52.6450   24.4400 N.ar   10  A10        -0.2193
    209  C8        40.8470   52.2920   23.8010 C.ar   10  A10         0.1816
    210  N9        39.7900   53.1400   24.0030 N.ar   10  A10        -0.2693
    211  OP1       41.1530   49.0150   19.4720 O.2    10  A10        -0.5172
    212  OP2       42.5210   50.3440   21.1830 O.co2  10  A10        -0.4373
    213  P         39.0740   54.8670   19.0540 P.3    11  G11         0.2141
    214  C5'       38.1960   57.0070   20.3380 C.3    11  G11         0.1812
    215  O5'       39.2490   56.0780   20.0800 O.3    11  G11        -0.3114
    216  C4'       38.7420   58.1840   21.1110 C.3    11  G11         0.1773
    217  O4'       39.2240   57.7170   22.3890 O.3    11  G11        -0.3307
    218  C3'       39.9240   58.9000   20.4780 C.3    11  G11         0.1860
    219  O3'       39.4430   59.9290   19.6230 O.3    11  G11        -0.3112
    220  C2'       40.6360   59.4940   21.6870 C.3    11  G11         0.2309
    221  O2'       40.1420   60.7340   22.1310 O.3    11  G11        -0.2156
    222  C1'       40.4050   58.4090   22.7340 C.3    11  G11         0.2408
    223  N1        44.9390   57.1990   24.5720 N.ar   11  G11        -0.1709
    224  C2        44.1530   58.2840   24.8440 C.ar   11  G11         0.2606
    225  N2        44.6460   59.1580   25.7100 N.pl3  11  G11        -0.0859
    226  N3        42.9720   58.4920   24.3060 N.ar   11  G11        -0.1918
    227  C4        42.6340   57.5070   23.4490 C.ar   11  G11         0.1723
    228  C5        43.3450   56.3760   23.1110 C.ar   11  G11         0.1748
    229  C6        44.6060   56.1660   23.7030 C.ar   11  G11         0.3023
    230  O6        45.3770   55.2230   23.5440 O.2    11  G11        -0.2633
    231  N7        42.6360   55.6010   22.2050 N.ar   11  G11        -0.2173
    232  C8        41.5330   56.2670   22.0140 C.ar   11  G11         0.1817
    233  N9        41.4780   57.4340   22.7330 N.ar   11  G11        -0.2693
    234  OP1       38.2690   55.3190   17.8860 O.2    11  G11        -0.5172
    235  OP2       40.4170   54.2720   18.8330 O.co2  11  G11        -0.4373
    236  P         39.9150   59.9770   18.0900 P.3    12  A12         0.2141
    237  C5'       40.5250   62.4790   18.5510 C.3    12  A12         0.1812
    238  O5'       40.9240   61.2100   18.0550 O.3    12  A12        -0.3114
    239  C4'       41.7070   63.2040   19.1450 C.3    12  A12         0.1773
    240  O4'       42.1590   62.4960   20.3260 O.3    12  A12        -0.3307
    241  C3'       42.9420   63.2990   18.2680 C.3    12  A12         0.1860
    242  O3'       42.8510   64.3960   17.3780 O.3    12  A12        -0.3112
    243  C2'       44.0480   63.4900   19.2930 C.3    12  A12         0.2309
    244  O2'       44.1240   64.8200   19.7640 O.3    12  A12        -0.2156
    245  C1'       43.5730   62.5640   20.4120 C.3    12  A12         0.2408
    246  N1        46.3940   58.7930   22.4690 N.ar   12  A12        -0.2040
    247  C2        46.1340   60.0380   22.8780 C.ar   12  A12         0.2016
    248  N3        45.4070   60.9810   22.2910 N.ar   12  A12        -0.2048
    249  C4        44.9010   60.5320   21.1310 C.ar   12  A12         0.1692
    250  C5        45.0850   59.2800   20.5800 C.ar   12  A12         0.1518
    251  C6        45.8710   58.3770   21.3000 C.ar   12  A12         0.1919
    252  N6        46.1240   57.1390   20.8920 N.pl3  12  A12        -0.1054
    253  N7        44.4130   59.1730   19.3720 N.ar   12  A12        -0.2193
    254  C8        43.8380   60.3380   19.2290 C.ar   12  A12         0.1816
    255  N9        44.0850   61.2070   20.2600 N.ar   12  A12        -0.2693
    256  OP1       38.7180   60.3150   17.2750 O.2    12  A12        -0.5172
    257  OP2       40.6790   58.7340   17.7900 O.co2  12  A12        -0.4373
    258  P         42.6520   64.1170   15.8190 P.3    13  G13         0.2141
    259  C5'       42.2430   66.5690   14.9730 C.3    13  G13         0.1812
    260  O5'       43.1300   65.4610   15.1160 O.3    13  G13        -0.3114
    261  C4'       42.9180   67.6820   14.2010 C.3    13  G13         0.1773
    262  O4'       43.7600   68.4390   15.1100 O.3    13  G13        -0.3307
    263  C3'       43.8920   67.2200   13.1280 C.3    13  G13         0.1860
    264  O3'       43.2480   66.9010   11.9100 O.3    13  G13        -0.3112
    265  C2'       44.8200   68.4160   12.9780 C.3    13  G13         0.2309
    266  O2'       44.2960   69.4420   12.1520 O.3    13  G13        -0.2156
    267  C1'       44.9240   68.8820   14.4280 C.3    13  G13         0.2408
    268  N1        49.1310   70.2480   16.8470 N.ar   13  G13        -0.1709
    269  C2        48.1730   71.0180   16.2120 C.ar   13  G13         0.2606
    270  N2        48.3500   72.3470   16.2220 N.pl3  13  G13        -0.0859
    271  N3        47.1190   70.5230   15.6080 N.ar   13  G13        -0.1918
    272  C4        47.0850   69.1780   15.6710 C.ar   13  G13         0.1723
    273  C5        47.9820   68.3100   16.2630 C.ar   13  G13         0.1748
    274  C6        49.1180   68.8540   16.9290 C.ar   13  G13         0.3023
    275  O6        50.0270   68.2580   17.5360 O.2    13  G13        -0.2633
    276  N7        47.5790   66.9910   16.0880 N.ar   13  G13        -0.2173
    277  C8        46.4600   67.0830   15.4150 C.ar   13  G13         0.1817
    278  N9        46.1040   68.3880   15.1380 N.ar   13  G13        -0.2693
    279  OP1       41.2060   63.9320   15.5840 O.3    13  G13        -0.4373
    280  OP2       43.6000   63.0300   15.4780 O.co2  13  G13        -0.5172
    281  P         43.9080   65.7990   10.9480 P.3    14  A14         0.2141
    282  C5'       45.4100   67.7530    9.9970 C.3    14  A14         0.1812
    283  O5'       44.5230   66.6570    9.7490 O.3    14  A14        -0.3114
    284  C4'       45.5130   68.6440    8.7730 C.3    14  A14         0.1773
    285  O4'       45.2590   67.8790    7.5680 O.3    14  A14        -0.3307
    286  C3'       44.5950   69.8620    8.7500 C.3    14  A14         0.1860
    287  O3'       45.3570   71.0260    8.4490 O.3    14  A14        -0.3112
    288  C2'       43.5430   69.5430    7.6820 C.3    14  A14         0.2309
    289  O2'       43.2040   70.6750    6.9030 O.3    14  A14        -0.2156
    290  C1'       44.2300   68.4850    6.8110 C.3    14  A14         0.2408
    291  N1        40.0440   67.2590    4.0290 N.ar   14  A14        -0.2040
    292  C2        40.6580   68.4300    4.2560 C.ar   14  A14         0.2016
    293  N3        41.7480   68.6860    4.9830 N.ar   14  A14        -0.2048
    294  C4        42.2330   67.5540    5.5270 C.ar   14  A14         0.1692
    295  C5        41.7130   66.2760    5.3820 C.ar   14  A14         0.1518
    296  C6        40.5570   66.1400    4.5890 C.ar   14  A14         0.1919
    297  N6        39.9460   64.9730    4.3660 N.pl3  14  A14        -0.1054
    298  N7        42.4760   65.3520    6.0830 N.ar   14  A14        -0.2193
    299  C8        43.4210   66.0760    6.6310 C.ar   14  A14         0.1816
    300  N9        43.3340   67.4200    6.3430 N.ar   14  A14        -0.2693
    301  OP1       42.8140   64.9300   10.4200 O.2    14  A14        -0.5172
    302  OP2       45.0350   65.1850   11.7060 O.co2  14  A14        -0.4373
    303  P         46.7270   71.2960    9.2450 P.3    15  G15         0.2141
    304  C5'       48.2700   73.3880    9.2090 C.3    15  G15         0.1812
    305  O5'       46.9640   72.8580    9.1090 O.3    15  G15        -0.3114
    306  C4'       48.3210   74.4310   10.2870 C.3    15  G15         0.1773
    307  O4'       47.7820   73.8790   11.5150 O.3    15  G15        -0.3307
    308  C3'       49.7170   74.8770   10.6670 C.3    15  G15         0.1860
    309  O3'       50.1640   75.8860    9.7910 O.3    15  G15        -0.3112
    310  C2'       49.5110   75.4020   12.0740 C.3    15  G15         0.2309
    311  O2'       48.9540   76.6960   12.0740 O.3    15  G15        -0.2156
    312  C1'       48.5170   74.3780   12.6240 C.3    15  G15         0.2408
    313  N1        52.4070   72.9770   15.5600 N.ar   15  G15        -0.1709
    314  C2        51.9710   74.2380   15.2440 C.ar   15  G15         0.2606
    315  N2        52.6760   75.2560   15.7590 N.pl3  15  G15        -0.0859
    316  N3        50.9230   74.4830   14.4780 N.ar   15  G15        -0.1918
    317  C4        50.3370   73.3440   14.0460 C.ar   15  G15         0.1723
    318  C5        50.6950   72.0410   14.3080 C.ar   15  G15         0.1748
    319  C6        51.8170   71.7930   15.1250 C.ar   15  G15         0.3023
    320  O6        52.2920   70.7060   15.4660 O.2    15  G15        -0.2633
    321  N7        49.8270   71.1570   13.6830 N.ar   15  G15        -0.2173
    322  C8        48.9760   71.9240   13.0580 C.ar   15  G15         0.1817
    323  N9        49.2360   73.2610   13.2240 N.ar   15  G15        -0.2693
    324  OP1       47.8250   70.6120    8.5210 O.2    15  G15        -0.5172
    325  OP2       46.4840   70.9900   10.6810 O.co2  15  G15        -0.4373
    326  P         51.2250   75.5170    8.6480 P.3    16  G16         0.2141
    327  C5'       53.6590   76.2600    9.1690 C.3    16  G16         0.1812
    328  O5'       52.3440   76.6310    8.8280 O.3    16  G16        -0.3114
    329  C4'       54.0990   76.9740   10.4150 C.3    16  G16         0.1773
    330  O4'       53.3460   76.5100   11.5650 O.3    16  G16        -0.3307
    331  C3'       55.5350   76.7150   10.7850 C.3    16  G16         0.1860
    332  O3'       56.3710   77.5090    9.9800 O.3    16  G16        -0.3112
    333  C2'       55.5420   77.0180   12.2690 C.3    16  G16         0.2309
    334  O2'       55.4700   78.4060   12.4770 O.3    16  G16        -0.2156
    335  C1'       54.2140   76.3880   12.6880 C.3    16  G16         0.2408
    336  N1        56.8640   72.6740   15.0010 N.ar   16  G16        -0.1709
    337  C2        57.1140   74.0220   14.9770 C.ar   16  G16         0.2606
    338  N2        58.1920   74.4260   15.6600 N.pl3  16  G16        -0.0859
    339  N3        56.3620   74.9070   14.3340 N.ar   16  G16        -0.1918
    340  C4        55.3210   74.3200   13.7100 C.ar   16  G16         0.1723
    341  C5        54.9880   72.9800   13.6730 C.ar   16  G16         0.1748
    342  C6        55.8020   72.0500   14.3630 C.ar   16  G16         0.3023
    343  O6        55.6680   70.8230   14.4460 O.2    16  G16        -0.2633
    344  N7        53.8420   72.7740   12.9200 N.ar   16  G16        -0.2173
    345  C8        53.5000   73.9670   12.5190 C.ar   16  G16         0.1817
    346  N9        54.3470   74.9570   12.9660 N.ar   16  G16        -0.2693
    347  OP1       50.5730   75.6960    7.3260 O.2    16  G16        -0.5172
    348  OP2       51.8420   74.2090    8.9920 O.co2  16  G16        -0.4373
    349  P         57.2890   76.7870    8.8890 P.3    17  U17         0.2141
    350  C5'       58.9070   77.6060   10.7510 C.3    17  U17         0.1812
    351  O5'       58.7000   76.7770    9.6170 O.3    17  U17        -0.3114
    352  C4'       59.9210   76.9880   11.6650 C.3    17  U17         0.1773
    353  O4'       59.2240   76.2100   12.6760 O.3    17  U17        -0.3307
    354  C3'       60.8110   75.9640   10.9910 C.3    17  U17         0.1860
    355  O3'       61.8790   76.5490   10.2720 O.3    17  U17        -0.3112
    356  C2'       61.2750   75.1310   12.1690 C.3    17  U17         0.2309
    357  O2'       62.2800   75.7880   12.9040 O.3    17  U17        -0.2156
    358  C1'       59.9940   75.0660   12.9990 C.3    17  U17         0.2420
    359  N1        59.2360   73.8570   12.6540 N.ar   17  U17        -0.2534
    360  C2        59.7180   72.6740   13.1600 C.ar   17  U17         0.3546
    361  O2        60.7090   72.6280   13.8790 O.2    17  U17        -0.2443
    362  N3        59.0100   71.5520   12.7990 N.ar   17  U17        -0.1530
    363  C4        57.8950   71.5010   12.0070 C.ar   17  U17         0.2846
    364  O4        57.3640   70.4160   11.7890 O.2    17  U17        -0.2650
    365  C5        57.4480   72.7720   11.5240 C.ar   17  U17         0.0814
    366  C6        58.1180   73.8820   11.8580 C.ar   17  U17         0.0870
    367  OP1       57.3450   77.6330    7.6700 O.2    17  U17        -0.5172
    368  OP2       56.8170   75.3810    8.7900 O.co2  17  U17        -0.4373
    369  P         62.2710   75.9470    8.8370 P.3    18  G18         0.2141
    370  C5'       63.8350   74.3130   10.1470 C.3    18  G18         0.1812
    371  O5'       62.8200   74.4880    9.1700 O.3    18  G18        -0.3114
    372  C4'       63.9680   72.8570   10.5190 C.3    18  G18         0.1773
    373  O4'       62.7040   72.3660   11.0290 O.3    18  G18        -0.3307
    374  C3'       64.3010   71.9290    9.3620 C.3    18  G18         0.1860
    375  O3'       65.7090   71.8390    9.2300 O.3    18  G18        -0.3112
    376  C2'       63.7710   70.5910    9.8490 C.3    18  G18         0.2309
    377  O2'       64.7100   69.9300   10.6690 O.3    18  G18        -0.2156
    378  C1'       62.5270   71.0170   10.6320 C.3    18  G18         0.2408
    379  N1        58.4740   68.1680    9.4800 N.ar   18  G18        -0.1709
    380  C2        59.5750   67.8410   10.2360 C.ar   18  G18         0.2606
    381  N2        59.5790   66.6080   10.7770 N.pl3  18  G18        -0.0859
    382  N3        60.5940   68.6620   10.4500 N.ar   18  G18        -0.1918
    383  C4        60.4160   69.8560    9.8380 C.ar   18  G18         0.1723
    384  C5        59.3570   70.2740    9.0610 C.ar   18  G18         0.1748
    385  C6        58.2750   69.3890    8.8430 C.ar   18  G18         0.3023
    386  O6        57.2440   69.5820    8.1900 O.2    18  G18        -0.2633
    387  N7        59.5590   71.5720    8.6100 N.ar   18  G18        -0.2173
    388  C8        60.7120   71.9180    9.1180 C.ar   18  G18         0.1817
    389  N9        61.2790   70.9310    9.8850 N.ar   18  G18        -0.2693
    390  OP1       63.3780   76.7630    8.2710 O.3    18  G18        -0.4373
    391  OP2       61.0000   75.8110    8.0830 O.co2  18  G18        -0.5172
    392  P         66.3960   72.2300    7.8390 P.3    19  G19         0.2141
    393  C5'       67.1890   70.1330    6.4700 C.3    19  G19         0.1812
    394  O5'       67.3810   71.0080    7.5770 O.3    19  G19        -0.3114
    395  C4'       66.5300   68.8610    6.9320 C.3    19  G19         0.1773
    396  O4'       65.2160   69.1570    7.4460 O.3    19  G19        -0.3307
    397  C3'       66.3560   67.7720    5.8930 C.3    19  G19         0.1860
    398  O3'       67.5430   66.9790    6.0590 O.3    19  G19        -0.3112
    399  C2'       65.1480   67.0140    6.4350 C.3    19  G19         0.2309
    400  O2'       65.5710   66.1030    7.4280 O.3    19  G19        -0.2156
    401  C1'       64.3240   68.1270    7.0940 C.3    19  G19         0.2408
    402  N1        59.3010   68.0750    6.1070 N.ar   19  G19        -0.1709
    403  C2        60.0580   67.1360    6.7560 C.ar   19  G19         0.2606
    404  N2        59.3870   66.0790    7.2290 N.pl3  19  G19        -0.0859
    405  N3        61.3750   67.2250    6.9280 N.ar   19  G19        -0.1918
    406  C4        61.8790   68.3540    6.3810 C.ar   19  G19         0.1723
    407  C5        61.2040   69.3560    5.7150 C.ar   19  G19         0.1748
    408  C6        59.7940   69.2450    5.5470 C.ar   19  G19         0.3023
    409  O6        59.0190   70.0330    4.9940 O.2    19  G19        -0.2633
    410  N7        62.0790   70.3480    5.3030 N.ar   19  G19        -0.2173
    411  C8        63.2500   69.9450    5.7150 C.ar   19  G19         0.1817
    412  N9        63.2020   68.7590    6.4020 N.ar   19  G19        -0.2693
    413  OP1       67.2280   73.4450    8.0370 O.3    19  G19        -0.4373
    414  OP2       65.3300   72.2310    6.7990 O.co2  19  G19        -0.5172
    415  P         67.6590   65.5150    5.3980 P.3    20  A20         0.2141
    416  C5'       68.4410   63.2520    6.5230 C.3    20  A20         0.1812
    417  O5'       67.7420   64.5030    6.6320 O.3    20  A20        -0.3114
    418  C4'       67.5280   62.0940    6.8900 C.3    20  A20         0.1773
    419  O4'       66.2340   62.6090    7.3020 O.3    20  A20        -0.3307
    420  C3'       67.2160   61.1580    5.7300 C.3    20  A20         0.1860
    421  O3'       68.1700   60.0830    5.6340 O.3    20  A20        -0.3112
    422  C2'       65.8530   60.5820    6.0880 C.3    20  A20         0.2309
    423  O2'       65.8750   59.3400    6.7560 O.3    20  A20        -0.2156
    424  C1'       65.2070   61.7230    6.8850 C.3    20  A20         0.2408
    425  N1        60.3580   61.8330    5.1600 N.ar   20  A20        -0.2040
    426  C2        61.0600   60.8920    5.7950 C.ar   20  A20         0.2016
    427  N3        62.3230   60.9200    6.2090 N.ar   20  A20        -0.2048
    428  C4        62.8940   62.0940    5.9080 C.ar   20  A20         0.1692
    429  C5        62.3010   63.1550    5.2580 C.ar   20  A20         0.1518
    430  C6        60.9700   62.9990    4.8670 C.ar   20  A20         0.1919
    431  N6        60.2890   63.9350    4.2130 N.pl3  20  A20        -0.1054
    432  N7        63.1930   64.2040    5.1100 N.ar   20  A20        -0.2193
    433  C8        64.2900   63.7610    5.6690 C.ar   20  A20         0.1816
    434  N9        64.1800   62.4940    6.1790 N.ar   20  A20        -0.2693
    435  OP1       68.9460   65.4520    4.6640 O.3    20  A20        -0.4373
    436  OP2       66.3930   65.2840    4.6620 O.co2  20  A20        -0.5172
    437  P         68.7200   59.3190    6.9600 P.3    21  G21         0.2141
    438  C5'       67.3780   58.6040    9.0820 C.3    21  G21         0.1812
    439  O5'       67.6700   59.6060    8.1120 O.3    21  G21        -0.3114
    440  C4'       66.0900   58.9410    9.7850 C.3    21  G21         0.1773
    441  O4'       65.1100   59.3180    8.7820 O.3    21  G21        -0.3307
    442  C3'       65.4070   57.8640   10.6100 C.3    21  G21         0.1860
    443  O3'       65.8650   57.8340   11.9440 O.3    21  G21        -0.3112
    444  C2'       63.9840   58.3730   10.6020 C.3    21  G21         0.2309
    445  O2'       63.9100   59.5020   11.4450 O.3    21  G21        -0.2156
    446  C1'       63.8440   58.8170    9.1490 C.3    21  G21         0.2408
    447  N1        60.2500   55.7380    7.3410 N.ar   21  G21        -0.1709
    448  C2        60.1250   56.8940    8.0670 C.ar   21  G21         0.2606
    449  N2        58.8820   57.2740    8.3800 N.pl3  21  G21        -0.0859
    450  N3        61.1440   57.6320    8.4590 N.ar   21  G21        -0.1918
    451  C4        62.3210   57.1200    8.0560 C.ar   21  G21         0.1723
    452  C5        62.5570   55.9800    7.3260 C.ar   21  G21         0.1748
    453  C6        61.4550   55.1900    6.9140 C.ar   21  G21         0.3023
    454  O6        61.4610   54.1380    6.2570 O.2    21  G21        -0.2633
    455  N7        63.9150   55.8030    7.1150 N.ar   21  G21        -0.2173
    456  C8        64.4690   56.8190    7.7170 C.ar   21  G21         0.1817
    457  N9        63.5600   57.6440    8.3260 N.ar   21  G21        -0.2693
    458  OP1       70.0110   59.9360    7.3480 O.3    21  G21        -0.4373
    459  OP2       68.6590   57.8540    6.7400 O.co2  21  G21        -0.5172
    460  P         65.4910   56.5850   12.8820 P.3    22  G22         0.2141
    461  C5'       63.0960   57.4780   13.3340 C.3    22  G22         0.1812
    462  O5'       63.9100   56.4750   12.7630 O.3    22  G22        -0.3114
    463  C4'       61.6590   57.0440   13.3730 C.3    22  G22         0.1773
    464  O4'       61.1620   56.9280   12.0100 O.3    22  G22        -0.3307
    465  C3'       61.4300   55.6560   13.9380 C.3    22  G22         0.1860
    466  O3'       61.3460   55.6290   15.3410 O.3    22  G22        -0.3112
    467  C2'       60.0770   55.3040   13.3540 C.3    22  G22         0.2309
    468  O2'       59.0310   55.9180   14.0870 O.3    22  G22        -0.2156
    469  C1'       60.1970   55.8920   11.9480 C.3    22  G22         0.2408
    470  N1        58.7000   51.9280    9.2380 N.ar   22  G22        -0.1709
    471  C2        57.9710   52.8100   10.0000 C.ar   22  G22         0.2606
    472  N2        56.6520   52.5900   10.0770 N.pl3  22  G22        -0.0859
    473  N3        58.4930   53.8350   10.6410 N.ar   22  G22        -0.1918
    474  C4        59.8210   53.9160   10.4620 C.ar   22  G22         0.1723
    475  C5        60.6460   53.0960    9.7290 C.ar   22  G22         0.1748
    476  C6        60.0740   51.9920    9.0420 C.ar   22  G22         0.3023
    477  O6        60.6320   51.1460    8.3400 O.2    22  G22        -0.2633
    478  N7        61.9610   53.5320    9.8010 N.ar   22  G22        -0.2173
    479  C8        61.9060   54.5880   10.5670 C.ar   22  G22         0.1817
    480  N9        60.6360   54.8580   11.0170 N.ar   22  G22        -0.2693
    481  OP1       65.8320   56.9690   14.2750 O.3    22  G22        -0.4373
    482  OP2       66.0790   55.3530   12.2990 O.co2  22  G22        -0.5172
    483  P         61.3600   54.2160   16.0860 P.3    23  G23         0.2141
    484  C5'       58.7830   53.9470   16.4840 C.3    23  G23         0.1812
    485  O5'       59.9430   53.5550   15.7630 O.3    23  G23        -0.3114
    486  C4'       57.5680   53.1420   16.0590 C.3    23  G23         0.1773
    487  O4'       57.4270   53.1670   14.6080 O.3    23  G23        -0.3307
    488  C3'       57.6330   51.6590   16.3750 C.3    23  G23         0.1860
    489  O3'       57.3020   51.3820   17.7270 O.3    23  G23        -0.3112
    490  C2'       56.6290   51.0710   15.3940 C.3    23  G23         0.2309
    491  O2'       55.2920   51.1960   15.8270 O.3    23  G23        -0.2156
    492  C1'       56.8680   51.9400   14.1600 C.3    23  G23         0.2408
    493  N1        57.3320   48.2670   10.7330 N.ar   23  G23        -0.1709
    494  C2        56.2220   48.7160   11.3970 C.ar   23  G23         0.2606
    495  N2        55.0820   48.0840   11.1330 N.pl3  23  G23        -0.0859
    496  N3        56.2280   49.7150   12.2570 N.ar   23  G23        -0.1918
    497  C4        57.4560   50.2500   12.3970 C.ar   23  G23         0.1723
    498  C5        58.6320   49.8850   11.7750 C.ar   23  G23         0.1748
    499  C6        58.6100   48.8000   10.8590 C.ar   23  G23         0.3023
    500  O6        59.5420   48.3160   10.2120 O.2    23  G23        -0.2633
    501  N7        59.6790   50.7010   12.1840 N.ar   23  G23        -0.2173
    502  C8        59.1280   51.5250   13.0390 C.ar   23  G23         0.1817
    503  N9        57.7850   51.2860   13.2290 N.ar   23  G23        -0.2693
    504  OP1       61.4610   54.4550   17.5450 O.3    23  G23        -0.4373
    505  OP2       62.4070   53.4270   15.3980 O.co2  23  G23        -0.5172
    506  P         58.2390   50.3960   18.5780 P.3    24  A24         0.2141
    507  C5'       60.7980   50.9730   18.3530 C.3    24  A24         0.1812
    508  O5'       59.5180   51.2900   18.8990 O.3    24  A24        -0.3114
    509  C4'       61.7760   50.6560   19.4660 C.3    24  A24         0.1773
    510  O4'       61.0520   50.4660   20.7100 O.3    24  A24        -0.3307
    511  C3'       62.5230   49.3500   19.2720 C.3    24  A24         0.1860
    512  O3'       63.6990   49.6230   18.5450 O.3    24  A24        -0.3112
    513  C2'       62.8960   48.9570   20.6920 C.3    24  A24         0.2309
    514  O2'       64.0850   49.5710   21.1290 O.3    24  A24        -0.2156
    515  C1'       61.6880   49.4610   21.4800 C.3    24  A24         0.2408
    516  N1        60.9130   44.8070   23.5150 N.ar   24  A24        -0.2040
    517  C2        62.0270   45.5330   23.3190 C.ar   24  A24         0.2016
    518  N3        62.1640   46.7380   22.7610 N.ar   24  A24        -0.2048
    519  C4        60.9680   47.2130   22.3720 C.ar   24  A24         0.1692
    520  C5        59.7420   46.5850   22.5000 C.ar   24  A24         0.1518
    521  C6        59.7310   45.3180   23.1080 C.ar   24  A24         0.1919
    522  N6        58.6210   44.6020   23.3060 N.pl3  24  A24        -0.1054
    523  N7        58.7300   47.3770   21.9780 N.ar   24  A24        -0.2193
    524  C8        59.3560   48.4520   21.5600 C.ar   24  A24         0.1816
    525  N9        60.7080   48.4240   21.7810 N.ar   24  A24        -0.2693
    526  OP1       58.6520   49.3130   17.6530 O.2    24  A24        -0.5172
    527  OP2       57.5540   50.0560   19.8520 O.co2  24  A24        -0.4373
    528  P         63.8300   49.1060   17.0390 P.3    25  C25         0.2141
    529  C5'       65.8220   47.8870   18.1900 C.3    25  C25         0.1812
    530  O5'       64.8740   47.9160   17.1410 O.3    25  C25        -0.3114
    531  C4'       65.9140   46.5040   18.7590 C.3    25  C25         0.1773
    532  O4'       64.8330   46.3260   19.7070 O.3    25  C25        -0.3307
    533  C3'       65.5940   45.4480   17.7190 C.3    25  C25         0.1860
    534  O3'       66.7250   45.1670   16.9230 O.3    25  C25        -0.3112
    535  C2'       65.1620   44.2620   18.5660 C.3    25  C25         0.2309
    536  O2'       66.2240   43.4860   19.0920 O.3    25  C25        -0.2156
    537  C1'       64.4370   44.9710   19.7010 C.3    25  C25         0.2420
    538  N1        62.9760   44.8610   19.6700 N.ar   25  C25        -0.2535
    539  C2        62.4300   43.6710   20.1240 C.ar   25  C25         0.3532
    540  O2        63.2070   42.7580   20.4540 O.2    25  C25        -0.2443
    541  N3        61.0900   43.5300   20.1870 N.ar   25  C25        -0.1739
    542  C4        60.2990   44.5190   19.7930 C.ar   25  C25         0.1759
    543  N4        58.9770   44.3180   19.8880 N.pl3  25  C25        -0.1070
    544  C5        60.8260   45.7520   19.2870 C.ar   25  C25         0.0566
    545  C6        62.1650   45.8780   19.2430 C.ar   25  C25         0.0850
    546  OP1       64.4090   50.2210   16.2490 O.2    25  C25        -0.5172
    547  OP2       62.5280   48.5040   16.6410 O.co2  25  C25        -0.4373
    548  P         66.5240   44.7880   15.3790 P.3    26  U26         0.2141
    549  C5'       66.5270   42.2580   16.0840 C.3    26  U26         0.1812
    550  O5'       65.8600   43.3330   15.4330 O.3    26  U26        -0.3114
    551  C4'       65.8580   40.9410   15.7710 C.3    26  U26         0.1773
    552  O4'       64.8440   40.6700   16.7700 O.3    26  U26        -0.3307
    553  C3'       65.1410   40.8410   14.4340 C.3    26  U26         0.1860
    554  O3'       66.0720   40.4050   13.4450 O.3    26  U26        -0.3112
    555  C2'       64.1150   39.7460   14.7050 C.3    26  U26         0.2309
    556  O2'       64.6340   38.4430   14.5610 O.3    26  U26        -0.2156
    557  C1'       63.7500   40.0100   16.1660 C.3    26  U26         0.2420
    558  N1        62.5580   40.8460   16.3500 N.ar   26  U26        -0.2534
    559  C2        61.3660   40.2070   16.6310 C.ar   26  U26         0.3546
    560  O2        61.2700   38.9930   16.7170 O.2    26  U26        -0.2443
    561  N3        60.2900   41.0380   16.8110 N.ar   26  U26        -0.1530
    562  C4        60.2860   42.4120   16.7370 C.ar   26  U26         0.2846
    563  O4        59.2340   43.0240   16.9220 O.2    26  U26        -0.2650
    564  C5        61.5590   42.9970   16.4360 C.ar   26  U26         0.0814
    565  C6        62.6260   42.2120   16.2570 C.ar   26  U26         0.0870
    566  OP1       67.8920   44.7090   14.7930 O.2    26  U26        -0.5172
    567  OP2       65.5330   45.7460   14.8100 O.co2  26  U26        -0.4373
    568  P         65.7750   40.6520   11.8770 P.3    27  G27         0.2141
    569  C5'       64.5210   38.3830   11.3800 C.3    27  G27         0.1812
    570  O5'       64.4520   39.7980   11.5920 O.3    27  G27        -0.3114
    571  C4'       63.1590   37.8250   11.0090 C.3    27  G27         0.1773
    572  O4'       62.3280   37.7540   12.1950 O.3    27  G27        -0.3307
    573  C3'       62.3270   38.6100   10.0050 C.3    27  G27         0.1860
    574  O3'       62.6910   38.3230    8.6590 O.3    27  G27        -0.3112
    575  C2'       60.9100   38.1560   10.3410 C.3    27  G27         0.2309
    576  O2'       60.5460   36.8950    9.8200 O.3    27  G27        -0.2156
    577  C1'       60.9900   38.0810   11.8600 C.3    27  G27         0.2408
    578  N1        57.3280   41.0320   13.6600 N.ar   27  G27        -0.1709
    579  C2        57.2750   39.7380   13.2090 C.ar   27  G27         0.2606
    580  N2        56.0880   39.1440   13.2110 N.pl3  27  G27        -0.0859
    581  N3        58.3150   39.0690   12.7810 N.ar   27  G27        -0.1918
    582  C4        59.4380   39.8050   12.8280 C.ar   27  G27         0.1723
    583  C5        59.6050   41.1070   13.2540 C.ar   27  G27         0.1748
    584  C6        58.4770   41.8140   13.7180 C.ar   27  G27         0.3023
    585  O6        58.4190   42.9780   14.1370 O.2    27  G27        -0.2633
    586  N7        60.9320   41.5010   13.1340 N.ar   27  G27        -0.2173
    587  C8        61.5350   40.4490   12.6450 C.ar   27  G27         0.1817
    588  N9        60.6790   39.3890   12.4280 N.ar   27  G27        -0.2693
    589  OP1       66.9000   40.0160   11.1350 O.2    27  G27        -0.5172
    590  OP2       65.4780   42.0940   11.6440 O.co2  27  G27        -0.4373
    591  P         62.1290   39.2520    7.4700 P.3    28  G28         0.2141
    592  C5'       59.6220   39.7370    7.0130 C.3    28  G28         0.1812
    593  O5'       60.6150   38.7960    7.3490 O.3    28  G28        -0.3114
    594  C4'       58.3110   39.3440    7.6270 C.3    28  G28         0.1773
    595  O4'       58.3610   39.5000    9.0700 O.3    28  G28        -0.3307
    596  C3'       57.1410   40.1840    7.1840 C.3    28  G28         0.1860
    597  O3'       56.6830   39.6770    5.9440 O.3    28  G28        -0.3112
    598  C2'       56.1720   39.9860    8.3380 C.3    28  G28         0.2309
    599  O2'       55.6060   38.6990    8.2730 O.3    28  G28        -0.2156
    600  C1'       57.1230   40.0130    9.5370 C.3    28  G28         0.2408
    601  N1        55.2560   44.2330   11.7510 N.ar   28  G28        -0.1709
    602  C2        54.5860   43.1060   11.3530 C.ar   28  G28         0.2606
    603  N2        53.2610   43.1040   11.5750 N.pl3  28  G28        -0.0859
    604  N3        55.1680   42.0580   10.7780 N.ar   28  G28        -0.1918
    605  C4        56.4950   42.2430   10.6260 C.ar   28  G28         0.1723
    606  C5        57.2540   43.3390   10.9840 C.ar   28  G28         0.1748
    607  C6        56.6200   44.4450   11.6050 C.ar   28  G28         0.3023
    608  O6        57.1290   45.5060   12.0010 O.2    28  G28        -0.2633
    609  N7        58.5860   43.1450   10.6550 N.ar   28  G28        -0.2173
    610  C8        58.6180   41.9590   10.1170 C.ar   28  G28         0.1817
    611  N9        57.3880   41.3500   10.0690 N.ar   28  G28        -0.2693
    612  OP1       62.8250   38.8900    6.2100 O.2    28  G28        -0.5172
    613  OP2       62.1150   40.6740    7.9240 O.co2  28  G28        -0.4373
    614  P         56.6880   40.6310    4.6540 P.3    29  C29         0.2141
    615  C5'       54.2990   41.1660    5.5320 C.3    29  C29         0.1812
    616  O5'       55.5200   41.6580    4.9980 O.3    29  C29        -0.3114
    617  C4'       53.5250   42.2630    6.2100 C.3    29  C29         0.1773
    618  O4'       54.0500   42.4750    7.5450 O.3    29  C29        -0.3307
    619  C3'       53.6170   43.6270    5.5620 C.3    29  C29         0.1860
    620  O3'       52.6950   43.7500    4.4980 O.3    29  C29        -0.3112
    621  C2'       53.2590   44.5390    6.7210 C.3    29  C29         0.2309
    622  O2'       51.8800   44.4980    7.0020 O.3    29  C29        -0.2156
    623  C1'       53.9820   43.8490    7.8680 C.3    29  C29         0.2420
    624  N1        55.3460   44.3590    7.9980 N.ar   29  C29        -0.2535
    625  C2        55.5520   45.5620    8.6840 C.ar   29  C29         0.3532
    626  O2        54.5840   46.1580    9.1630 O.2    29  C29        -0.2443
    627  N3        56.7930   46.0470    8.8040 N.ar   29  C29        -0.1739
    628  C4        57.8150   45.3890    8.2750 C.ar   29  C29         0.1759
    629  N4        59.0230   45.9190    8.4220 N.pl3  29  C29        -0.1070
    630  C5        57.6420   44.1620    7.5740 C.ar   29  C29         0.0566
    631  C6        56.3990   43.6860    7.4590 C.ar   29  C29         0.0850
    632  OP1       56.2820   39.7860    3.5040 O.2    29  C29        -0.5172
    633  OP2       57.9750   41.3710    4.6010 O.co2  29  C29        -0.4373
    634  P         52.7620   45.0430    3.5620 P.3    30  C30         0.2141
    635  C5'       52.5650   47.5210    4.3400 C.3    30  C30         0.1812
    636  O5'       52.1270   46.1820    4.4670 O.3    30  C30        -0.3114
    637  C4'       52.3310   48.2700    5.6220 C.3    30  C30         0.1773
    638  O4'       53.1790   47.7380    6.6700 O.3    30  C30        -0.3307
    639  C3'       52.6760   49.7390    5.5580 C.3    30  C30         0.1860
    640  O3'       51.5460   50.4360    5.0960 O.3    30  C30        -0.3112
    641  C2'       52.9450   50.0700    7.0140 C.3    30  C30         0.2309
    642  O2'       51.7470   50.2910    7.7200 O.3    30  C30        -0.2156
    643  C1'       53.6500   48.7960    7.4840 C.3    30  C30         0.2420
    644  N1        55.1080   48.8800    7.2990 N.ar   30  C30        -0.2535
    645  C2        55.8200   49.8740    7.9740 C.ar   30  C30         0.3532
    646  O2        55.2000   50.6530    8.7210 O.2    30  C30        -0.2443
    647  N3        57.1640   49.9630    7.7930 N.ar   30  C30        -0.1739
    648  C4        57.7860   49.1080    6.9830 C.ar   30  C30         0.1759
    649  N4        59.0980   49.2350    6.8330 N.pl3  30  C30        -0.1070
    650  C5        57.0850   48.0850    6.2900 C.ar   30  C30         0.0566
    651  C6        55.7600   48.0070    6.4750 C.ar   30  C30         0.0850
    652  OP1       51.8910   44.8450    2.3850 O.2    30  C30        -0.5172
    653  OP2       54.2010   45.3560    3.3730 O.co2  30  C30        -0.4373
    654  P         51.7480   51.7470    4.2160 P.3    31  C31         0.2141
    655  C5'       51.4850   53.2690    6.3430 C.3    31  C31         0.1812
    656  O5'       52.2900   52.8330    5.2530 O.3    31  C31        -0.3114
    657  C4'       52.2250   54.2930    7.1710 C.3    31  C31         0.1773
    658  O4'       53.3350   53.6440    7.8460 O.3    31  C31        -0.3307
    659  C3'       52.8910   55.3970    6.3650 C.3    31  C31         0.1860
    660  O3'       51.9820   56.4470    6.0490 O.3    31  C31        -0.3112
    661  C2'       54.0010   55.8640    7.2960 C.3    31  C31         0.2309
    662  O2'       53.5870   56.7730    8.2810 O.3    31  C31        -0.2156
    663  C1'       54.4160   54.5500    7.9500 C.3    31  C31         0.2420
    664  N1        55.6040   53.9690    7.3190 N.ar   31  C31        -0.2535
    665  C2        56.8270   54.5780    7.5750 C.ar   31  C31         0.3532
    666  O2        56.8440   55.5720    8.3210 O.2    31  C31        -0.2443
    667  N3        57.9500   54.0800    7.0150 N.ar   31  C31        -0.1739
    668  C4        57.8790   53.0130    6.2260 C.ar   31  C31         0.1759
    669  N4        59.0160   52.5580    5.7020 N.pl3  31  C31        -0.1070
    670  C5        56.6390   52.3650    5.9400 C.ar   31  C31         0.0566
    671  C6        55.5330   52.8730    6.5040 C.ar   31  C31         0.0850
    672  OP1       50.4010   52.1390    3.7140 O.3    31  C31        -0.4373
    673  OP2       52.8480   51.4730    3.2590 O.co2  31  C31        -0.5172
    674  P         52.1610   57.2550    4.6730 P.3    32  G32         0.2141
    675  C5'       53.6750   59.1020    5.6940 C.3    32  G32         0.1812
    676  O5'       53.5630   57.9800    4.8520 O.3    32  G32        -0.3114
    677  C4'       55.0660   59.6440    5.6420 C.3    32  G32         0.1773
    678  O4'       55.9450   58.6560    6.2360 O.3    32  G32        -0.3307
    679  C3'       55.6260   59.7500    4.2360 C.3    32  G32         0.1860
    680  O3'       55.2010   60.8740    3.4960 O.3    32  G32        -0.3112
    681  C2'       57.1230   59.7390    4.4850 C.3    32  G32         0.2309
    682  O2'       57.6570   60.9650    4.9400 O.3    32  G32        -0.2156
    683  C1'       57.2130   58.7040    5.5960 C.3    32  G32         0.2408
    684  N1        60.9000   55.8340    3.7220 N.ar   32  G32        -0.1709
    685  C2        60.9620   57.0820    4.2850 C.ar   32  G32         0.2606
    686  N2        62.1710   57.6520    4.3590 N.pl3  32  G32        -0.0859
    687  N3        59.9130   57.7250    4.7500 N.ar   32  G32        -0.1918
    688  C4        58.7760   57.0070    4.6160 C.ar   32  G32         0.1723
    689  C5        58.6070   55.7570    4.0740 C.ar   32  G32         0.1748
    690  C6        59.7390   55.0810    3.5690 C.ar   32  G32         0.3023
    691  O6        59.7940   53.9710    3.0390 O.2    32  G32        -0.2633
    692  N7        57.2720   55.3750    4.1250 N.ar   32  G32        -0.2173
    693  C8        56.6660   56.3870    4.6880 C.ar   32  G32         0.1817
    694  N9        57.5230   57.4110    5.0020 N.ar   32  G32        -0.2693
    695  OP1       51.1150   58.3030    4.5710 O.3    32  G32        -0.4373
    696  OP2       52.2980   56.2430    3.5940 O.co2  32  G32        -0.5172
    697  P         55.1150   60.7610    1.9010 P.3    33  A33         0.2141
    698  C5'       56.7300   62.7800    1.3510 C.3    33  A33         0.1812
    699  O5'       55.4000   62.2450    1.3880 O.3    33  A33        -0.3114
    700  C4'       56.8180   63.8820    0.3140 C.3    33  A33         0.1773
    701  O4'       57.9610   64.7220    0.6540 O.3    33  A33        -0.3307
    702  C3'       57.1070   63.3750   -1.0950 C.3    33  A33         0.1860
    703  O3'       56.3860   63.9280   -2.2050 O.3    33  A33        -0.3112
    704  C2'       58.6320   63.3680   -1.1880 C.3    33  A33         0.2309
    705  O2'       59.1360   63.6470   -2.4850 O.3    33  A33        -0.2156
    706  C1'       59.0160   64.5260   -0.2720 C.3    33  A33         0.2408
    707  N1        61.7000   60.9370    2.2300 N.ar   33  A33        -0.2040
    708  C2        60.4690   60.9510    1.7210 C.ar   33  A33         0.2016
    709  N3        59.8180   61.9360    1.1090 N.ar   33  A33        -0.2048
    710  C4        60.5810   63.0360    1.0410 C.ar   33  A33         0.1692
    711  C5        61.8710   63.1810    1.5220 C.ar   33  A33         0.1518
    712  C6        62.4480   62.0520    2.1420 C.ar   33  A33         0.1919
    713  N6        63.6830   62.0200    2.6410 N.pl3  33  A33        -0.1054
    714  N7        62.3460   64.4640    1.2760 N.ar   33  A33        -0.2193
    715  C8        61.3510   65.0510    0.6510 C.ar   33  A33         0.1816
    716  N9        60.2570   64.2350    0.4550 N.ar   33  A33        -0.2693
    717  OP1       53.7210   60.3890    1.5380 O.3    33  A33        -0.4373
    718  OP2       56.2410   59.8940    1.4730 O.co2  33  A33        -0.5172
    719  P         55.6340   65.3370   -2.0780 P.3    34  U34         0.2141
    720  C5'       53.5370   66.1410   -0.7110 C.3    34  U34         0.1812
    721  O5'       54.4300   65.0810   -1.0630 O.3    34  U34        -0.3114
    722  C4'       52.3670   65.6030    0.0690 C.3    34  U34         0.1773
    723  O4'       51.3340   65.1940   -0.8590 O.3    34  U34        -0.3307
    724  C3'       52.6720   64.3480    0.8730 C.3    34  U34         0.1860
    725  O3'       53.2600   64.6690    2.1490 O.3    34  U34        -0.3112
    726  C2'       51.3070   63.6780    0.9870 C.3    34  U34         0.2309
    727  O2'       50.5170   64.1140    2.0740 O.3    34  U34        -0.2156
    728  C1'       50.6530   64.0610   -0.3460 C.3    34  U34         0.2420
    729  N1        50.6200   63.0060   -1.3750 N.ar   34  U34        -0.2534
    730  C2        49.5730   62.1010   -1.3260 C.ar   34  U34         0.3546
    731  O2        48.6890   62.1630   -0.4950 O.2    34  U34        -0.2443
    732  N3        49.5990   61.1240   -2.2880 N.ar   34  U34        -0.1530
    733  C4        50.5390   60.9580   -3.2800 C.ar   34  U34         0.2846
    734  O4        50.4610   59.9820   -4.0310 O.2    34  U34        -0.2650
    735  C5        51.5800   61.9430   -3.2820 C.ar   34  U34         0.0814
    736  C6        51.5870   62.9090   -2.3520 C.ar   34  U34         0.0870
    737  OP1       55.0370   65.5830   -3.4070 O.2    34  U34        -0.5172
    738  OP2       56.5820   66.3240   -1.5050 O.co2  34  U34        -0.4373
    739  P         52.5710   65.7610    3.1290 P.3    35  G35         0.2141
    740  C5'       54.1510   65.5400    5.1940 C.3    35  G35         0.1812
    741  O5'       53.7590   66.2730    4.0460 O.3    35  G35        -0.3114
    742  C4'       55.4620   64.8630    4.9270 C.3    35  G35         0.1773
    743  O4'       55.9080   65.2670    3.6070 O.3    35  G35        -0.3307
    744  C3'       56.5970   65.2680    5.8570 C.3    35  G35         0.1860
    745  O3'       56.6370   64.3010    6.8980 O.3    35  G35        -0.3112
    746  C2'       57.8230   64.9950    4.9900 C.3    35  G35         0.2309
    747  O2'       58.1320   63.6150    4.9570 O.3    35  G35        -0.2156
    748  C1'       57.3190   65.3400    3.5920 C.3    35  G35         0.2408
    749  N1        61.2430   68.2800    2.2430 N.ar   35  G35        -0.1709
    750  C2        61.2380   67.1670    3.0340 C.ar   35  G35         0.2606
    751  N2        62.4380   66.7610    3.4730 N.pl3  35  G35        -0.0859
    752  N3        60.1390   66.5010    3.3690 N.ar   35  G35        -0.1918
    753  C4        59.0340   67.0530    2.8310 C.ar   35  G35         0.1723
    754  C5        58.9380   68.1690    2.0300 C.ar   35  G35         0.1748
    755  C6        60.1160   68.8690    1.6880 C.ar   35  G35         0.3023
    756  O6        60.2310   69.8830    0.9970 O.2    35  G35        -0.2633
    757  N7        57.6190   68.4140    1.6800 N.ar   35  G35        -0.2173
    758  C8        56.9490   67.4570    2.2570 C.ar   35  G35         0.1817
    759  N9        57.7480   66.5770    2.9440 N.ar   35  G35        -0.2693
    760  OP1       51.6000   65.0850    4.0290 O.3    35  G35        -0.4373
    761  OP2       52.1440   66.9350    2.3320 O.co2  35  G35        -0.5172
    762  P         56.4310   64.7340    8.4300 P.3    36  A36         0.2141
    763  C5'       56.5840   62.2040    9.0920 C.3    36  A36         0.1812
    764  O5'       57.0890   63.5270    9.2310 O.3    36  A36        -0.3114
    765  C4'       57.6710   61.2040    9.3770 C.3    36  A36         0.1773
    766  O4'       58.7070   61.3550    8.3820 O.3    36  A36        -0.3307
    767  C3'       58.3890   61.3840   10.7040 C.3    36  A36         0.1860
    768  O3'       57.7090   60.6400   11.6960 O.3    36  A36        -0.3112
    769  C2'       59.7420   60.7400   10.4330 C.3    36  A36         0.2309
    770  O2'       59.7300   59.3340   10.5830 O.3    36  A36        -0.2156
    771  C1'       59.9760   61.1270    8.9750 C.3    36  A36         0.2408
    772  N1        64.3340   63.5490   10.1430 N.ar   36  A36        -0.2040
    773  C2        63.8890   62.3200   10.4300 C.ar   36  A36         0.2016
    774  N3        62.7400   61.7440   10.0870 N.ar   36  A36        -0.2048
    775  C4        61.9950   62.5850    9.3550 C.ar   36  A36         0.1692
    776  C5        62.3200   63.8700    8.9780 C.ar   36  A36         0.1518
    777  C6        63.5480   64.3630    9.4030 C.ar   36  A36         0.1919
    778  N6        63.9780   65.5900    9.1210 N.pl3  36  A36        -0.1054
    779  N7        61.3080   64.4320    8.2180 N.ar   36  A36        -0.2193
    780  C8        60.4040   63.4900    8.1600 C.ar   36  A36         0.1816
    781  N9        60.7550   62.3480    8.8320 N.ar   36  A36        -0.2693
    782  OP1       54.9730   64.7060    8.7190 O.3    36  A36        -0.4373
    783  OP2       57.2170   65.9650    8.7090 O.co2  36  A36        -0.5172
    784  P         57.4550   61.2830   13.1370 P.3    37  A37         0.2141
    785  C5'       59.6960   60.2790   14.0130 C.3    37  A37         0.1812
    786  O5'       58.9120   61.4370   13.7600 O.3    37  A37        -0.3114
    787  C4'       61.0590   60.6490   14.5490 C.3    37  A37         0.1773
    788  O4'       61.8520   61.2340   13.4830 O.3    37  A37        -0.3307
    789  C3'       61.0750   61.7140   15.6370 C.3    37  A37         0.1860
    790  O3'       60.8540   61.1110   16.9070 O.3    37  A37        -0.3112
    791  C2'       62.4980   62.2630   15.5280 C.3    37  A37         0.2309
    792  O2'       63.4740   61.4710   16.1820 O.3    37  A37        -0.2156
    793  C1'       62.7360   62.2030   14.0230 C.3    37  A37         0.2408
    794  N1        64.8370   66.7270   12.9670 N.ar   37  A37        -0.2040
    795  C2        65.2860   65.6500   13.6270 C.ar   37  A37         0.2016
    796  N3        64.6780   64.4920   13.8570 N.ar   37  A37        -0.2048
    797  C4        63.4500   64.4930   13.3140 C.ar   37  A37         0.1692
    798  C5        62.8530   65.5180   12.6100 C.ar   37  A37         0.1518
    799  C6        63.5980   66.6900   12.4380 C.ar   37  A37         0.1919
    800  N6        63.1490   67.7630   11.7870 N.pl3  37  A37        -0.1054
    801  N7        61.5810   65.1530   12.1990 N.ar   37  A37        -0.2193
    802  C8        61.4410   63.9350   12.6620 C.ar   37  A37         0.1816
    803  N9        62.5310   63.4790   13.3510 N.ar   37  A37        -0.2693
    804  OP1       56.7160   60.2620   13.9170 O.3    37  A37        -0.4373
    805  OP2       56.8610   62.6180   12.9170 O.co2  37  A37        -0.5172
    806  P         60.5670   62.0300   18.1940 P.3    38  A38         0.2141
    807  C5'       62.7190   63.4620   18.6530 C.3    38  A38         0.1812
    808  O5'       61.4740   63.3190   17.9800 O.3    38  A38        -0.3114
    809  C4'       63.1640   64.8940   18.5760 C.3    38  A38         0.1773
    810  O4'       63.3040   65.2590   17.1790 O.3    38  A38        -0.3307
    811  C3'       62.1350   65.8760   19.0990 C.3    38  A38         0.1860
    812  O3'       62.2380   66.0160   20.5070 O.3    38  A38        -0.3112
    813  C2'       62.4990   67.1550   18.3590 C.3    38  A38         0.2309
    814  O2'       63.5600   67.8700   18.9520 O.3    38  A38        -0.2156
    815  C1'       62.9030   66.6060   16.9900 C.3    38  A38         0.2408
    816  N1        60.2510   69.3480   13.5610 N.ar   38  A38        -0.2040
    817  C2        61.3850   69.5900   14.2210 C.ar   38  A38         0.2016
    818  N3        62.0430   68.8190   15.0790 N.ar   38  A38        -0.2048
    819  C4        61.4080   67.6510   15.2450 C.ar   38  A38         0.1692
    820  C5        60.2360   67.2530   14.6350 C.ar   38  A38         0.1518
    821  C6        59.6350   68.1690   13.7500 C.ar   38  A38         0.1919
    822  N6        58.4910   67.9360   13.0990 N.pl3  38  A38        -0.1054
    823  N7        59.8780   65.9770   15.0480 N.ar   38  A38        -0.2193
    824  C8        60.8250   65.6420   15.8900 C.ar   38  A38         0.1816
    825  N9        61.7690   66.6180   16.0730 N.ar   38  A38        -0.2693
    826  OP1       61.0850   61.2930   19.3800 O.3    38  A38        -0.4373
    827  OP2       59.1430   62.4620   18.1440 O.co2  38  A38        -0.5172
    828  P         60.9340   66.4160   21.3560 P.3    39  C39         0.2141
    829  C5'       61.8500   68.8400   21.6730 C.3    39  C39         0.1812
    830  O5'       60.8370   67.9950   21.1400 O.3    39  C39        -0.3114
    831  C4'       61.6320   70.2790   21.2700 C.3    39  C39         0.1773
    832  O4'       61.8750   70.4160   19.8460 O.3    39  C39        -0.3307
    833  C3'       60.2390   70.8540   21.4690 C.3    39  C39         0.1860
    834  O3'       60.0330   71.3350   22.7880 O.3    39  C39        -0.3112
    835  C2'       60.2380   71.9990   20.4710 C.3    39  C39         0.2309
    836  O2'       60.9760   73.0990   20.9540 O.3    39  C39        -0.2156
    837  C1'       60.9810   71.3700   19.2970 C.3    39  C39         0.2420
    838  N1        60.0340   70.6780   18.4050 N.ar   39  C39        -0.2535
    839  C2        59.4920   71.3880   17.3290 C.ar   39  C39         0.3532
    840  O2        59.8710   72.5560   17.1370 O.2    39  C39        -0.2443
    841  N3        58.5750   70.7890   16.5310 N.ar   39  C39        -0.1739
    842  C4        58.2060   69.5280   16.7750 C.ar   39  C39         0.1759
    843  N4        57.2900   68.9780   15.9780 N.pl3  39  C39        -0.1070
    844  C5        58.7580   68.7740   17.8530 C.ar   39  C39         0.0566
    845  C6        59.6630   69.3790   18.6330 C.ar   39  C39         0.0850
    846  OP1       61.2640   66.1430   22.7770 O.3    39  C39        -0.4373
    847  OP2       59.7470   65.7580   20.7470 O.co2  39  C39        -0.5172
    848  P         58.5370   71.4870   23.3510 P.3    40  C40         0.2141
    849  C5'       58.5540   73.9180   22.3680 C.3    40  C40         0.1812
    850  O5'       57.9010   72.6550   22.4680 O.3    40  C40        -0.3114
    851  C4'       57.7190   74.9100   21.5810 C.3    40  C40         0.1773
    852  O4'       57.8660   74.6570   20.1510 O.3    40  C40        -0.3307
    853  C3'       56.2150   74.8650   21.7980 C.3    40  C40         0.1860
    854  O3'       55.8130   75.5360   22.9830 O.3    40  C40        -0.3112
    855  C2'       55.6970   75.5250   20.5240 C.3    40  C40         0.2309
    856  O2'       55.8920   76.9230   20.5150 O.3    40  C40        -0.2156
    857  C1'       56.6410   74.9340   19.4840 C.3    40  C40         0.2420
    858  N1        56.0830   73.6850   18.9470 N.ar   40  C40        -0.2535
    859  C2        55.2260   73.7580   17.8510 C.ar   40  C40         0.3532
    860  O2        55.0010   74.8670   17.3440 O.2    40  C40        -0.2443
    861  N3        54.6650   72.6240   17.3710 N.ar   40  C40        -0.1739
    862  C4        54.9410   71.4500   17.9440 C.ar   40  C40         0.1759
    863  N4        54.3610   70.3510   17.4460 N.pl3  40  C40        -0.1070
    864  C5        55.8250   71.3460   19.0540 C.ar   40  C40         0.0566
    865  C6        56.3710   72.4780   19.5170 C.ar   40  C40         0.0850
    866  OP1       58.6490   71.9730   24.7400 O.3    40  C40        -0.4373
    867  OP2       57.8100   70.2230   23.0730 O.co2  40  C40        -0.5172
    868  P         54.5000   75.0370   23.7670 P.3    41  C41         0.2141
    869  C5'       53.0680   76.6240   22.2680 C.3    41  C41         0.1812
    870  O5'       53.3160   75.3110   22.7420 O.3    41  C41        -0.3114
    871  C4'       51.9110   76.6160   21.3140 C.3    41  C41         0.1773
    872  O4'       52.3060   75.9220   20.1020 O.3    41  C41        -0.3307
    873  C3'       50.7240   75.8190   21.8130 C.3    41  C41         0.1860
    874  O3'       49.8870   76.6230   22.6160 O.3    41  C41        -0.3112
    875  C2'       50.0170   75.4480   20.5210 C.3    41  C41         0.2309
    876  O2'       49.1880   76.4720   20.0280 O.3    41  C41        -0.2156
    877  C1'       51.1970   75.2070   19.5870 C.3    41  C41         0.2420
    878  N1        51.5170   73.7780   19.5480 N.ar   41  C41        -0.2535
    879  C2        50.7950   72.9870   18.6750 C.ar   41  C41         0.3532
    880  O2        49.9430   73.5340   17.9590 O.2    41  C41        -0.2443
    881  N3        51.0330   71.6560   18.6270 N.ar   41  C41        -0.1739
    882  C4        51.9610   71.1180   19.4200 C.ar   41  C41         0.1759
    883  N4        52.1570   69.7980   19.3430 N.pl3  41  C41        -0.1070
    884  C5        52.7270   71.9100   20.3260 C.ar   41  C41         0.0566
    885  C6        52.4770   73.2270   20.3530 C.ar   41  C41         0.0850
    886  OP1       54.2980   75.9150   24.9380 O.3    41  C41        -0.4373
    887  OP2       54.6170   73.5690   23.9680 O.co2  41  C41        -0.5172
    888  P         48.6870   75.9390   23.4280 P.3    42  G42         0.2141
    889  C5'       46.9780   75.3760   21.5250 C.3    42  G42         0.1812
    890  O5'       48.0180   74.9350   22.3810 O.3    42  G42        -0.3114
    891  C4'       46.4490   74.2420   20.6770 C.3    42  G42         0.1773
    892  O4'       47.5480   73.5430   20.0310 O.3    42  G42        -0.3307
    893  C3'       45.7290   73.1430   21.4410 C.3    42  G42         0.1860
    894  O3'       44.3820   73.5030   21.7240 O.3    42  G42        -0.3112
    895  C2'       45.8290   71.9630   20.4790 C.3    42  G42         0.2309
    896  O2'       44.8810   72.0110   19.4360 O.3    42  G42        -0.2156
    897  C1'       47.2250   72.1630   19.8970 C.3    42  G42         0.2408
    898  N1        48.9250   67.4980   20.9140 N.ar   42  G42        -0.1709
    899  C2        47.8860   67.8900   20.1040 C.ar   42  G42         0.2606
    900  N2        47.2130   66.9070   19.4940 N.pl3  42  G42        -0.0859
    901  N3        47.5360   69.1520   19.9090 N.ar   42  G42        -0.1918
    902  C4        48.3260   70.0020   20.5950 C.ar   42  G42         0.1723
    903  C5        49.3890   69.7110   21.4250 C.ar   42  G42         0.1748
    904  C6        49.7500   68.3590   21.6300 C.ar   42  G42         0.3023
    905  O6        50.6610   67.9050   22.3340 O.2    42  G42        -0.2633
    906  N7        49.9460   70.8730   21.9380 N.ar   42  G42        -0.2173
    907  C8        49.2230   71.8310   21.4220 C.ar   42  G42         0.1817
    908  N9        48.2210   71.3700   20.6050 N.ar   42  G42        -0.2693
    909  OP1       47.7180   77.0120   23.7620 O.2    42  G42        -0.5172
    910  OP2       49.2920   75.1340   24.5150 O.co2  42  G42        -0.4373
    911  P         43.6320   72.8480   22.9860 P.3    43  G43         0.2141
    912  C5'       42.5650   70.9100   21.5750 C.3    43  G43         0.1812
    913  O5'       43.4830   71.3110   22.5900 O.3    43  G43        -0.3114
    914  C4'       42.6660   69.4230   21.3340 C.3    43  G43         0.1773
    915  O4'       44.0460   69.0900   21.0290 O.3    43  G43        -0.3307
    916  C3'       42.3250   68.5480   22.5290 C.3    43  G43         0.1860
    917  O3'       40.9170   68.3230   22.5890 O.3    43  G43        -0.3112
    918  C2'       43.0980   67.2680   22.2180 C.3    43  G43         0.2309
    919  O2'       42.4310   66.4130   21.3170 O.3    43  G43        -0.2156
    920  C1'       44.3650   67.8190   21.5600 C.3    43  G43         0.2408
    921  N1        47.9880   65.4520   24.1760 N.ar   43  G43        -0.1709
    922  C2        46.9740   64.9250   23.4220 C.ar   43  G43         0.2606
    923  N2        46.9190   63.5960   23.3440 N.pl3  43  G43        -0.0859
    924  N3        46.0750   65.6530   22.7890 N.ar   43  G43        -0.1918
    925  C4        46.2700   66.9690   22.9820 C.ar   43  G43         0.1723
    926  C5        47.2470   67.5980   23.7240 C.ar   43  G43         0.1748
    927  C6        48.2100   66.8120   24.3860 C.ar   43  G43         0.3023
    928  O6        49.1710   67.1840   25.0820 O.2    43  G43        -0.2633
    929  N7        47.0940   68.9730   23.6750 N.ar   43  G43        -0.2173
    930  C8        46.0480   69.1530   22.9120 C.ar   43  G43         0.1817
    931  N9        45.5080   67.9760   22.4520 N.ar   43  G43        -0.2693
    932  OP1       42.2680   73.4330   23.0510 O.2    43  G43        -0.5172
    933  OP2       44.5370   72.9650   24.1570 O.co2  43  G43        -0.4373
    934  P         40.2820   67.5490   23.8510 P.3    44  C44         0.2141
    935  C5'       40.3490   65.0730   23.0160 C.3    44  C44         0.1812
    936  O5'       40.9480   66.1080   23.7730 O.3    44  C44        -0.3114
    937  C4'       41.1150   63.7930   23.2030 C.3    44  C44         0.1773
    938  O4'       42.5320   64.0970   23.1650 O.3    44  C44        -0.3307
    939  C3'       40.9240   63.1230   24.5540 C.3    44  C44         0.1860
    940  O3'       39.7740   62.2920   24.5410 O.3    44  C44        -0.3112
    941  C2'       42.2020   62.3030   24.6850 C.3    44  C44         0.2309
    942  O2'       42.1590   61.1180   23.9110 O.3    44  C44        -0.2156
    943  C1'       43.2240   63.2490   24.0630 C.3    44  C44         0.2420
    944  N1        43.9650   64.0930   25.0050 N.ar   44  C44        -0.2535
    945  C2        44.8180   63.4890   25.9360 C.ar   44  C44         0.3532
    946  O2        44.8810   62.2500   25.9890 O.2    44  C44        -0.2443
    947  N3        45.5580   64.2700   26.7560 N.ar   44  C44        -0.1739
    948  C4        45.4640   65.5990   26.6740 C.ar   44  C44         0.1759
    949  N4        46.2360   66.3270   27.4820 N.pl3  44  C44        -0.1070
    950  C5        44.5800   66.2380   25.7560 C.ar   44  C44         0.0566
    951  C6        43.8510   65.4530   24.9530 C.ar   44  C44         0.0850
    952  OP1       38.8220   67.3870   23.6320 O.2    44  C44        -0.5172
    953  OP2       40.7700   68.1880   25.1090 O.co2  44  C44        -0.4373
    954  P         38.9540   62.0700   25.8970 P.3    45  A45         0.2141
    955  C5'       40.4440   60.1140   26.7910 C.3    45  A45         0.1812
    956  O5'       40.0350   61.4740   26.8980 O.3    45  A45        -0.3114
    957  C4'       41.5470   59.8260   27.7780 C.3    45  A45         0.1773
    958  O4'       42.6600   60.7140   27.5350 O.3    45  A45        -0.3307
    959  C3'       41.1960   60.0110   29.2420 C.3    45  A45         0.1860
    960  O3'       40.7310   58.7500   29.7040 O.3    45  A45        -0.3112
    961  C2'       42.5610   60.2890   29.8610 C.3    45  A45         0.2309
    962  O2'       43.3120   59.1160   30.0710 O.3    45  A45        -0.2156
    963  C1'       43.2490   61.0860   28.7590 C.3    45  A45         0.2408
    964  N1        45.4850   65.4260   30.3540 N.ar   45  A45        -0.2040
    965  C2        45.7980   64.1310   30.5480 C.ar   45  A45         0.2016
    966  N3        45.1490   63.0410   30.1530 N.ar   45  A45        -0.2048
    967  C4        44.0410   63.3790   29.4700 C.ar   45  A45         0.1692
    968  C5        43.5870   64.6590   29.1990 C.ar   45  A45         0.1518
    969  C6        44.3580   65.7230   29.6730 C.ar   45  A45         0.1919
    970  N6        44.0380   67.0000   29.4880 N.pl3  45  A45        -0.1054
    971  N7        42.4030   64.6180   28.4790 N.ar   45  A45        -0.2193
    972  C8        42.1750   63.3370   28.3200 C.ar   45  A45         0.1816
    973  N9        43.1440   62.5330   28.8650 N.ar   45  A45        -0.2693
    974  OP1       37.9370   61.0160   25.7000 O.2    45  A45        -0.5172
    975  OP2       38.5370   63.4100   26.3640 O.co2  45  A45        -0.4373
    976  P         39.5980   58.6730   30.8330 P.3    46  G46         0.2141
    977  C5'       41.7100   57.8250   32.1320 C.3    46  G46         0.1812
    978  O5'       40.4040   58.3840   32.1670 O.3    46  G46        -0.3114
    979  C4'       42.5310   58.4470   33.2220 C.3    46  G46         0.1773
    980  O4'       43.0030   59.7280   32.7820 O.3    46  G46        -0.3307
    981  C3'       41.7410   58.6960   34.4920 C.3    46  G46         0.1860
    982  O3'       41.9110   57.4300   35.1680 O.3    46  G46        -0.3112
    983  C2'       42.4600   59.8970   35.1010 C.3    46  G46         0.2309
    984  O2'       43.5090   59.5070   35.9480 O.3    46  G46        -0.2156
    985  C1'       42.9890   60.6340   33.8540 C.3    46  G46         0.2408
    986  N1        43.4970   65.6270   33.0200 N.ar   46  G46        -0.1709
    987  C2        44.3260   64.7750   33.7030 C.ar   46  G46         0.2606
    988  N2        45.4540   65.3210   34.1830 N.pl3  46  G46        -0.0859
    989  N3        44.0710   63.4830   33.8960 N.ar   46  G46        -0.1918
    990  C4        42.8990   63.1120   33.3340 C.ar   46  G46         0.1723
    991  C5        42.0030   63.8860   32.6250 C.ar   46  G46         0.1748
    992  C6        42.2900   65.2670   32.4310 C.ar   46  G46         0.3023
    993  O6        41.6200   66.1190   31.8340 O.2    46  G46        -0.2633
    994  N7        40.9200   63.1270   32.2110 N.ar   46  G46        -0.2173
    995  C8        41.1670   61.9290   32.6690 C.ar   46  G46         0.1817
    996  N9        42.3630   61.8440   33.3360 N.ar   46  G46        -0.2693
    997  OP1       38.7490   57.4840   30.5420 O.2    46  G46        -0.5172
    998  OP2       38.9790   60.0210   30.9580 O.co2  46  G46        -0.4373
    999  P         42.3390   57.3420   36.7160 P.3    47  C47         0.2141
   1000  C5'       44.4160   55.9880   37.5630 C.3    47  C47         0.1812
   1001  O5'       43.9070   57.0510   36.7440 O.3    47  C47        -0.3114
   1002  C4'       45.8980   56.1600   37.8440 C.3    47  C47         0.1773
   1003  O4'       46.5760   56.5850   36.6390 O.3    47  C47        -0.3307
   1004  C3'       46.2670   57.2160   38.8750 C.3    47  C47         0.1860
   1005  O3'       46.2580   56.6490   40.1770 O.3    47  C47        -0.3112
   1006  C2'       47.6950   57.5670   38.4840 C.3    47  C47         0.2309
   1007  O2'       48.6280   56.6220   38.9430 O.3    47  C47        -0.2156
   1008  C1'       47.6270   57.4790   36.9660 C.3    47  C47         0.2420
   1009  N1        47.3720   58.7560   36.2940 N.ar   47  C47        -0.2535
   1010  C2        48.3670   59.7330   36.2840 C.ar   47  C47         0.3532
   1011  O2        49.4410   59.5040   36.8600 O.2    47  C47        -0.2443
   1012  N3        48.1370   60.9050   35.6450 N.ar   47  C47        -0.1739
   1013  C4        46.9700   61.1090   35.0370 C.ar   47  C47         0.1759
   1014  N4        46.7760   62.2630   34.4210 N.pl3  47  C47        -0.1070
   1015  C5        45.9440   60.1330   35.0360 C.ar   47  C47         0.0566
   1016  C6        46.1810   58.9830   35.6750 C.ar   47  C47         0.0850
   1017  OP1       41.7110   56.0870   37.1930 O.2    47  C47        -0.5172
   1018  OP2       42.0500   58.6200   37.4130 O.co2  47  C47        -0.4373
   1019  P         45.7300   57.5140   41.4230 P.3    48  C48         0.2141
   1020  C5'       48.1180   58.2750   42.1910 C.3    48  C48         0.1812
   1021  O5'       46.8450   58.6230   41.6660 O.3    48  C48        -0.3114
   1022  C4'       49.0140   59.4870   42.2150 C.3    48  C48         0.1773
   1023  O4'       49.2750   59.9010   40.8490 O.3    48  C48        -0.3307
   1024  C3'       48.4230   60.7330   42.8600 C.3    48  C48         0.1860
   1025  O3'       48.5640   60.7120   44.2760 O.3    48  C48        -0.3112
   1026  C2'       49.2440   61.8400   42.2080 C.3    48  C48         0.2309
   1027  O2'       50.5490   61.9620   42.7430 O.3    48  C48        -0.2156
   1028  C1'       49.3550   61.3150   40.7830 C.3    48  C48         0.2420
   1029  N1        48.2550   61.8100   39.9530 N.ar   48  C48        -0.2535
   1030  C2        48.2620   63.1500   39.5900 C.ar   48  C48         0.3532
   1031  O2        49.2000   63.8590   39.9770 O.2    48  C48        -0.2443
   1032  N3        47.2530   63.6400   38.8330 N.ar   48  C48        -0.1739
   1033  C4        46.2660   62.8330   38.4450 C.ar   48  C48         0.1759
   1034  N4        45.2860   63.3540   37.7040 N.pl3  48  C48        -0.1070
   1035  C5        46.2390   61.4550   38.7990 C.ar   48  C48         0.0566
   1036  C6        47.2440   60.9890   39.5470 C.ar   48  C48         0.0850
   1037  OP1       45.7420   56.5860   42.5770 O.3    48  C48        -0.4373
   1038  OP2       44.4720   58.2190   41.0350 O.co2  48  C48        -0.5172
   1039  P         47.5040   61.5000   45.1960 P.3    49  A49         0.2141
   1040  C5'       48.9970   63.6150   45.5040 C.3    49  A49         0.1812
   1041  O5'       47.8320   63.0350   44.9470 O.3    49  A49        -0.3114
   1042  C4'       48.9680   65.1050   45.3160 C.3    49  A49         0.1773
   1043  O4'       49.0090   65.4050   43.8940 O.3    49  A49        -0.3307
   1044  C3'       47.7000   65.7840   45.8010 C.3    49  A49         0.1860
   1045  O3'       47.7830   66.0370   47.2050 O.3    49  A49        -0.3112
   1046  C2'       47.7290   67.0700   44.9850 C.3    49  A49         0.2309
   1047  O2'       48.6510   68.0010   45.5060 O.3    49  A49        -0.2156
   1048  C1'       48.2260   66.5590   43.6270 C.3    49  A49         0.2408
   1049  N1        44.6680   68.2840   40.3210 N.ar   49  A49        -0.2040
   1050  C2        45.6430   68.8970   41.0030 C.ar   49  A49         0.2016
   1051  N3        46.5500   68.3820   41.8340 N.ar   49  A49        -0.2048
   1052  C4        46.3960   67.0540   41.9410 C.ar   49  A49         0.1692
   1053  C5        45.4430   66.2760   41.3050 C.ar   49  A49         0.1518
   1054  C6        44.5310   66.9480   40.4530 C.ar   49  A49         0.1919
   1055  N6        43.5410   66.3420   39.7780 N.pl3  49  A49        -0.1054
   1056  N7        45.5870   64.9390   41.6580 N.ar   49  A49        -0.2193
   1057  C8        46.6070   64.9370   42.4840 C.ar   49  A49         0.1816
   1058  N9        47.1350   66.1880   42.7170 N.ar   49  A49        -0.2693
   1059  OP1       47.8690   61.1720   46.5890 O.3    49  A49        -0.4373
   1060  OP2       46.1240   61.2270   44.7130 O.co2  49  A49        -0.5172
   1061  P         46.4970   65.7920   48.1560 P.3    50  G50         0.2141
   1062  C5'       45.0930   67.6010   46.9110 C.3    50  G50         0.1812
   1063  O5'       45.7350   67.1890   48.1000 O.3    50  G50        -0.3114
   1064  C4'       44.8540   69.0870   46.9170 C.3    50  G50         0.1773
   1065  O4'       45.3130   69.6010   45.6320 O.3    50  G50        -0.3307
   1066  C3'       43.3770   69.4760   47.0150 C.3    50  G50         0.1860
   1067  O3'       43.0240   69.8970   48.3320 O.3    50  G50        -0.3112
   1068  C2'       43.2570   70.6130   46.0080 C.3    50  G50         0.2309
   1069  O2'       43.6730   71.8480   46.5470 O.3    50  G50        -0.2156
   1070  C1'       44.2180   70.1390   44.9180 C.3    50  G50         0.2408
   1071  N1        40.8590   68.9660   41.3020 N.ar   50  G50        -0.1709
   1072  C2        41.2790   70.2010   41.7320 C.ar   50  G50         0.2606
   1073  N2        40.6850   71.2530   41.1650 N.pl3  50  G50        -0.0859
   1074  N3        42.2070   70.3870   42.6530 N.ar   50  G50        -0.1918
   1075  C4        42.6870   69.2180   43.1240 C.ar   50  G50         0.1723
   1076  C5        42.3380   67.9330   42.7570 C.ar   50  G50         0.1748
   1077  C6        41.3400   67.7490   41.7720 C.ar   50  G50         0.3023
   1078  O6        40.8800   66.6890   41.3300 O.2    50  G50        -0.2633
   1079  N7        43.0740   67.0000   43.4700 N.ar   50  G50        -0.2173
   1080  C8        43.8330   67.7180   44.2520 C.ar   50  G50         0.1817
   1081  N9        43.6220   69.0700   44.1210 N.ar   50  G50        -0.2693
   1082  OP1       46.9870   65.5950   49.5450 O.3    50  G50        -0.4373
   1083  OP2       45.6210   64.7560   47.5440 O.co2  50  G50        -0.5172
   1084  P         42.2320   68.8870   49.3130 P.3    51  A51         0.2141
   1085  C5'       39.6690   68.3480   49.5390 C.3    51  A51         0.1812
   1086  O5'       40.6920   69.2470   49.1120 O.3    51  A51        -0.3114
   1087  C4'       38.4820   68.4280   48.6100 C.3    51  A51         0.1773
   1088  O4'       37.8830   69.7450   48.7460 O.3    51  A51        -0.3307
   1089  C3'       38.8450   68.2980   47.1360 C.3    51  A51         0.1860
   1090  O3'       37.7790   67.7380   46.3720 O.3    51  A51        -0.3112
   1091  C2'       39.1690   69.7380   46.7530 C.3    51  A51         0.2309
   1092  O2'       39.0630   70.0590   45.3770 O.3    51  A51        -0.2156
   1093  C1'       38.1700   70.5250   47.6020 C.3    51  A51         0.2408
   1094  N1        37.7020   75.6470   47.5830 N.ar   51  A51        -0.2040
   1095  C2        36.8630   74.6650   47.2180 C.ar   51  A51         0.2016
   1096  N3        37.0240   73.3460   47.2940 N.ar   51  A51        -0.2048
   1097  C4        38.2200   73.0470   47.8290 C.ar   51  A51         0.1692
   1098  C5        39.1850   73.9440   48.2620 C.ar   51  A51         0.1518
   1099  C6        38.8970   75.3140   48.1130 C.ar   51  A51         0.1919
   1100  N6        39.7350   76.2930   48.4540 N.pl3  51  A51        -0.1054
   1101  N7        40.2890   73.2690   48.7690 N.ar   51  A51        -0.2193
   1102  C8        39.9790   72.0020   48.6210 C.ar   51  A51         0.1816
   1103  N9        38.7570   71.7960   48.0230 N.ar   51  A51        -0.2693
   1104  OP1       42.6060   69.2290   50.7120 O.3    51  A51        -0.4373
   1105  OP2       42.4320   67.4970   48.8190 O.co2  51  A51        -0.5172
   1106  P         37.8410   67.7740   44.7600 P.3    52  A52         0.2141
   1107  C5'       37.3990   69.7950   43.1370 C.3    52  A52         0.1812
   1108  O5'       37.1910   69.1850   44.4020 O.3    52  A52        -0.3114
   1109  C4'       36.9690   71.2410   43.1850 C.3    52  A52         0.1773
   1110  O4'       37.4920   71.8540   44.3870 O.3    52  A52        -0.3307
   1111  C3'       37.5330   72.0920   42.0630 C.3    52  A52         0.1860
   1112  O3'       36.6630   72.0220   40.9450 O.3    52  A52        -0.3112
   1113  C2'       37.5000   73.4880   42.6620 C.3    52  A52         0.2309
   1114  O2'       36.2180   74.0660   42.5700 O.3    52  A52        -0.2156
   1115  C1'       37.8320   73.2010   44.1240 C.3    52  A52         0.2408
   1116  N1        41.5270   76.6530   45.0790 N.ar   52  A52        -0.2040
   1117  C2        40.2660   76.7820   44.6440 C.ar   52  A52         0.2016
   1118  N3        39.3600   75.8370   44.3840 N.ar   52  A52        -0.2048
   1119  C4        39.8680   74.6160   44.6220 C.ar   52  A52         0.1692
   1120  C5        41.1440   74.3230   45.0690 C.ar   52  A52         0.1518
   1121  C6        42.0060   75.4120   45.3060 C.ar   52  A52         0.1919
   1122  N6        43.2590   75.2840   45.7390 N.pl3  52  A52        -0.1054
   1123  N7        41.3120   72.9520   45.2000 N.ar   52  A52        -0.2193
   1124  C8        40.1540   72.4570   44.8370 C.ar   52  A52         0.1816
   1125  N9        39.2280   73.4060   44.4960 N.ar   52  A52        -0.2693
   1126  OP1       36.9330   66.7170   44.2470 O.2    52  A52        -0.5172
   1127  OP2       39.2750   67.7740   44.3560 O.co2  52  A52        -0.4373
   1128  P         37.2650   71.7440   39.4860 P.3    53  A53         0.2141
   1129  C5'       37.4090   74.1470   38.4620 C.3    53  A53         0.1812
   1130  O5'       38.0580   73.0850   39.1450 O.3    53  A53        -0.3114
   1131  C4'       38.0330   75.4690   38.8240 C.3    53  A53         0.1773
   1132  O4'       38.4420   75.4410   40.2170 O.3    53  A53        -0.3307
   1133  C3'       39.3200   75.7770   38.0760 C.3    53  A53         0.1860
   1134  O3'       39.0430   76.3690   36.8170 O.3    53  A53        -0.3112
   1135  C2'       40.0110   76.7640   39.0040 C.3    53  A53         0.2309
   1136  O2'       39.5560   78.0910   38.8330 O.3    53  A53        -0.2156
   1137  C1'       39.6260   76.2100   40.3780 C.3    53  A53         0.2408
   1138  N1        44.2030   76.0580   42.7240 N.ar   53  A53        -0.2040
   1139  C2        43.4300   77.0770   42.3230 C.ar   53  A53         0.2016
   1140  N3        42.2410   77.0480   41.7210 N.ar   53  A53        -0.2048
   1141  C4        41.8340   75.7790   41.5310 C.ar   53  A53         0.1692
   1142  C5        42.5140   74.6280   41.8890 C.ar   53  A53         0.1518
   1143  C6        43.7660   74.7930   42.5140 C.ar   53  A53         0.1919
   1144  N6        44.5380   73.7720   42.9060 N.pl3  53  A53        -0.1054
   1145  N7        41.7840   73.5000   41.5400 N.ar   53  A53        -0.2193
   1146  C8        40.6990   73.9860   40.9870 C.ar   53  A53         0.1816
   1147  N9        40.6660   75.3550   40.9420 N.ar   53  A53        -0.2693
   1148  OP1       36.1160   71.6300   38.5570 O.2    53  A53        -0.5172
   1149  OP2       38.2230   70.6090   39.6140 O.co2  53  A53        -0.4373
   1150  P         39.1450   75.4760   35.4860 P.3    54  U54         0.2141
   1151  C5'       41.7080   74.9910   35.2640 C.3    54  U54         0.1812
   1152  O5'       40.4320   74.5740   35.7320 O.3    54  U54        -0.3114
   1153  C4'       42.7140   74.9520   36.3870 C.3    54  U54         0.1773
   1154  O4'       42.1070   74.3380   37.5560 O.3    54  U54        -0.3307
   1155  C3'       43.9410   74.0980   36.1150 C.3    54  U54         0.1860
   1156  O3'       44.9150   74.8260   35.3760 O.3    54  U54        -0.3112
   1157  C2'       44.4100   73.7630   37.5240 C.3    54  U54         0.2309
   1158  O2'       45.1140   74.8350   38.1190 O.3    54  U54        -0.2156
   1159  C1'       43.0750   73.5620   38.2470 C.3    54  U54         0.2420
   1160  N1        42.6220   72.1600   38.2720 N.ar   54  U54        -0.2534
   1161  C2        43.3020   71.2800   39.0950 C.ar   54  U54         0.3546
   1162  O2        44.2490   71.6180   39.7830 O.2    54  U54        -0.2443
   1163  N3        42.8310   69.9890   39.0830 N.ar   54  U54        -0.1530
   1164  C4        41.7720   69.4930   38.3460 C.ar   54  U54         0.2846
   1165  O4        41.4730   68.2990   38.4420 O.2    54  U54        -0.2650
   1166  C5        41.1200   70.4610   37.5170 C.ar   54  U54         0.0814
   1167  C6        41.5580   71.7310   37.5080 C.ar   54  U54         0.0870
   1168  OP1       39.4260   76.3910   34.3520 O.2    54  U54        -0.5172
   1169  OP2       37.9590   74.5830   35.4360 O.co2  54  U54        -0.4373
   1170  P         45.8510   74.0530   34.3190 P.3    55  G55         0.2141
   1171  C5'       48.0270   74.1230   35.7690 C.3    55  G55         0.1812
   1172  O5'       46.9540   73.3650   35.2350 O.3    55  G55        -0.3114
   1173  C4'       48.6270   73.4040   36.9460 C.3    55  G55         0.1773
   1174  O4'       47.5570   72.7490   37.6870 O.3    55  G55        -0.3307
   1175  C3'       49.5170   72.2410   36.5540 C.3    55  G55         0.1860
   1176  O3'       50.8190   72.6660   36.1710 O.3    55  G55        -0.3112
   1177  C2'       49.4880   71.3700   37.8050 C.3    55  G55         0.2309
   1178  O2'       50.3480   71.8090   38.8360 O.3    55  G55        -0.2156
   1179  C1'       48.0370   71.5380   38.2520 C.3    55  G55         0.2408
   1180  N1        47.3860   66.5100   38.3350 N.ar   55  G55        -0.1709
   1181  C2        48.3430   67.2840   38.9470 C.ar   55  G55         0.2606
   1182  N2        49.2600   66.6320   39.6540 N.pl3  55  G55        -0.0859
   1183  N3        48.3940   68.6010   38.8680 N.ar   55  G55        -0.1918
   1184  C4        47.3920   69.1010   38.1120 C.ar   55  G55         0.1723
   1185  C5        46.3830   68.4230   37.4590 C.ar   55  G55         0.1748
   1186  C6        46.3410   66.9990   37.5520 C.ar   55  G55         0.3023
   1187  O6        45.5280   66.2100   37.0410 O.2    55  G55        -0.2633
   1188  N7        45.5490   69.3100   36.7870 N.ar   55  G55        -0.2173
   1189  C8        46.0610   70.4890   37.0350 C.ar   55  G55         0.1817
   1190  N9        47.1890   70.4320   37.8200 N.ar   55  G55        -0.2693
   1191  OP1       46.5320   75.0580   33.4700 O.2    55  G55        -0.5172
   1192  OP2       45.0470   72.9810   33.6830 O.co2  55  G55        -0.4373
   1193  P         51.6650   71.7650   35.1430 P.3    56  G56         0.2141
   1194  C5'       53.0160   70.6490   37.0950 C.3    56  G56         0.1812
   1195  O5'       52.1000   70.5060   36.0100 O.3    56  G56        -0.3114
   1196  C4'       53.5880   69.3060   37.4580 C.3    56  G56         0.1773
   1197  O4'       52.5720   68.5460   38.1540 O.3    56  G56        -0.3307
   1198  C3'       53.9270   68.4380   36.2600 C.3    56  G56         0.1860
   1199  O3'       55.2170   68.7530   35.7510 O.3    56  G56        -0.3112
   1200  C2'       53.8530   67.0380   36.8490 C.3    56  G56         0.2309
   1201  O2'       55.0040   66.6750   37.5750 O.3    56  G56        -0.2156
   1202  C1'       52.6710   67.1780   37.8030 C.3    56  G56         0.2408
   1203  N1        49.5930   63.3650   36.4510 N.ar   56  G56        -0.1709
   1204  C2        50.7820   63.3100   37.1320 C.ar   56  G56         0.2606
   1205  N2        51.1970   62.0790   37.4840 N.pl3  56  G56        -0.0859
   1206  N3        51.5040   64.3770   37.4470 N.ar   56  G56        -0.1918
   1207  C4        50.9230   65.5200   37.0170 C.ar   56  G56         0.1723
   1208  C5        49.7370   65.6760   36.3350 C.ar   56  G56         0.1748
   1209  C6        48.9820   64.5310   36.0050 C.ar   56  G56         0.3023
   1210  O6        47.9110   64.4730   35.4040 O.2    56  G56        -0.2633
   1211  N7        49.4870   67.0170   36.0770 N.ar   56  G56        -0.2173
   1212  C8        50.5080   67.6410   36.5960 C.ar   56  G56         0.1817
   1213  N9        51.4190   66.7950   37.1730 N.ar   56  G56        -0.2693
   1214  OP1       52.8920   72.4830   34.7240 O.3    56  G56        -0.4373
   1215  OP2       50.7020   71.2930   34.1250 O.co2  56  G56        -0.5172
   1216  P         55.6980   68.0870   34.3800 P.3    57  U57         0.2141
   1217  C5'       55.1580   65.7310   33.3680 C.3    57  U57         0.1812
   1218  O5'       55.0300   66.6470   34.4430 O.3    57  U57        -0.3114
   1219  C4'       55.0840   64.3200   33.8890 C.3    57  U57         0.1773
   1220  O4'       53.8720   64.1880   34.6760 O.3    57  U57        -0.3307
   1221  C3'       54.9510   63.2370   32.8310 C.3    57  U57         0.1860
   1222  O3'       56.2060   62.8690   32.2680 O.3    57  U57        -0.3112
   1223  C2'       54.3140   62.1120   33.6240 C.3    57  U57         0.2309
   1224  O2'       55.2600   61.4520   34.4320 O.3    57  U57        -0.2156
   1225  C1'       53.3330   62.8900   34.5050 C.3    57  U57         0.2420
   1226  N1        52.0090   63.0070   33.8760 N.ar   57  U57        -0.2534
   1227  C2        51.2670   61.8480   33.7550 C.ar   57  U57         0.3546
   1228  O2        51.6570   60.7830   34.1780 O.2    57  U57        -0.2443
   1229  N3        50.0600   61.9830   33.1220 N.ar   57  U57        -0.1530
   1230  C4        49.5270   63.1420   32.6120 C.ar   57  U57         0.2846
   1231  O4        48.4360   63.1000   32.0500 O.2    57  U57        -0.2650
   1232  C5        50.3460   64.3130   32.7900 C.ar   57  U57         0.0814
   1233  C6        51.5290   64.2060   33.4040 C.ar   57  U57         0.0870
   1234  OP1       57.1760   67.9240   34.4250 O.3    57  U57        -0.4373
   1235  OP2       55.0750   68.8410   33.2710 O.co2  57  U57        -0.5172
   1236  P         56.3780   62.8540   30.6670 P.3    58  G58         0.2141
   1237  C5'       55.2980   60.4960   30.6480 C.3    58  G58         0.1812
   1238  O5'       55.2510   61.8340   30.2020 O.3    58  G58        -0.3114
   1239  C4'       54.0140   59.7900   30.3350 C.3    58  G58         0.1773
   1240  O4'       52.9320   60.5150   30.9710 O.3    58  G58        -0.3307
   1241  C3'       53.6110   59.8150   28.8710 C.3    58  G58         0.1860
   1242  O3'       54.2530   58.8170   28.0970 O.3    58  G58        -0.3112
   1243  C2'       52.1210   59.5670   28.9650 C.3    58  G58         0.2309
   1244  O2'       51.8670   58.2190   29.2840 O.3    58  G58        -0.2156
   1245  C1'       51.7640   60.4080   30.1810 C.3    58  G58         0.2408
   1246  N1        47.9800   63.0830   28.1470 N.ar   58  G58        -0.1709
   1247  C2        48.0950   61.7240   28.3030 C.ar   58  G58         0.2606
   1248  N2        47.0450   60.9840   27.8610 N.pl3  58  G58        -0.0859
   1249  N3        49.1520   61.1370   28.8470 N.ar   58  G58        -0.1918
   1250  C4        50.0960   62.0350   29.2240 C.ar   58  G58         0.1723
   1251  C5        50.0740   63.4060   29.1070 C.ar   58  G58         0.1748
   1252  C6        48.9350   64.0220   28.5260 C.ar   58  G58         0.3023
   1253  O6        48.7190   65.2280   28.3330 O.2    58  G58        -0.2633
   1254  N7        51.2450   63.9630   29.6040 N.ar   58  G58        -0.2173
   1255  C8        51.9440   62.9380   30.0140 C.ar   58  G58         0.1817
   1256  N9        51.2990   61.7400   29.8220 N.ar   58  G58        -0.2693
   1257  OP1       57.7040   62.2730   30.3540 O.3    58  G58        -0.4373
   1258  OP2       56.0300   64.1940   30.1400 O.co2  58  G58        -0.5172
   1259  P         54.7410   59.1640   26.5990 P.3    59  C59         0.2141
   1260  C5'       52.7150   57.7060   25.8430 C.3    59  C59         0.1812
   1261  O5'       53.4710   58.8910   25.6850 O.3    59  C59        -0.3114
   1262  C4'       51.2990   57.9180   25.3650 C.3    59  C59         0.1773
   1263  O4'       50.6360   58.8790   26.2330 O.3    59  C59        -0.3307
   1264  C3'       51.1490   58.5080   23.9740 C.3    59  C59         0.1860
   1265  O3'       51.2210   57.4980   22.9860 O.3    59  C59        -0.3112
   1266  C2'       49.7570   59.1180   24.0470 C.3    59  C59         0.2309
   1267  O2'       48.7860   58.0920   23.9380 O.3    59  C59        -0.2156
   1268  C1'       49.7580   59.6860   25.4690 C.3    59  C59         0.2420
   1269  N1        50.2320   61.0760   25.5550 N.ar   59  C59        -0.2535
   1270  C2        49.3480   62.0980   25.2330 C.ar   59  C59         0.3532
   1271  O2        48.2070   61.7990   24.8700 O.2    59  C59        -0.2443
   1272  N3        49.7560   63.3860   25.3220 N.ar   59  C59        -0.1739
   1273  C4        51.0000   63.6670   25.7130 C.ar   59  C59         0.1759
   1274  N4        51.3480   64.9610   25.7950 N.pl3  59  C59        -0.1070
   1275  C5        51.9350   62.6380   26.0380 C.ar   59  C59         0.0566
   1276  C6        51.5120   61.3680   25.9470 C.ar   59  C59         0.0850
   1277  OP1       55.8170   58.1930   26.2690 O.2    59  C59        -0.5172
   1278  OP2       55.0100   60.6270   26.5130 O.co2  59  C59        -0.4373
   1279  P         51.7340   57.8740   21.5140 P.3    60  C60         0.2141
   1280  C5'       49.3040   58.2900   20.6570 C.3    60  C60         0.1812
   1281  O5'       50.5880   58.8180   20.9470 O.3    60  C60        -0.3114
   1282  C4'       48.5140   59.2660   19.8250 C.3    60  C60         0.1773
   1283  O4'       48.0520   60.3400   20.6780 O.3    60  C60        -0.3307
   1284  C3'       49.2570   59.9520   18.6870 C.3    60  C60         0.1860
   1285  O3'       49.1360   59.1470   17.5190 O.3    60  C60        -0.3112
   1286  C2'       48.4480   61.2290   18.5150 C.3    60  C60         0.2309
   1287  O2'       47.2700   60.9980   17.7780 O.3    60  C60        -0.2156
   1288  C1'       48.0730   61.5530   19.9600 C.3    60  C60         0.2420
   1289  N1        49.0080   62.4530   20.6290 N.ar   60  C60        -0.2535
   1290  C2        48.8750   63.8180   20.4170 C.ar   60  C60         0.3532
   1291  O2        47.9880   64.2160   19.6410 O.2    60  C60        -0.2443
   1292  N3        49.7030   64.6710   21.0550 N.ar   60  C60        -0.1739
   1293  C4        50.6420   64.1980   21.8740 C.ar   60  C60         0.1759
   1294  N4        51.4370   65.0830   22.4940 N.pl3  60  C60        -0.1070
   1295  C5        50.8090   62.7980   22.0980 C.ar   60  C60         0.0566
   1296  C6        49.9780   61.9700   21.4580 C.ar   60  C60         0.0850
   1297  OP1       51.7300   56.6110   20.7350 O.2    60  C60        -0.5172
   1298  OP2       52.9920   58.6670   21.6290 O.co2  60  C60        -0.4373
   1299  P         49.9640   59.5140   16.1900 P.3    61  A61         0.2141
   1300  C5'       49.1380   57.0770   15.8080 C.3    61  A61         0.1812
   1301  O5'       49.9620   58.1470   15.3870 O.3    61  A61        -0.3114
   1302  C4'       48.3120   56.5820   14.6560 C.3    61  A61         0.1773
   1303  O4'       49.0970   56.6950   13.4470 O.3    61  A61        -0.3307
   1304  C3'       47.9480   55.1120   14.7350 C.3    61  A61         0.1860
   1305  O3'       46.7710   54.9500   15.5140 O.3    61  A61        -0.3112
   1306  C2'       47.7300   54.7520   13.2700 C.3    61  A61         0.2309
   1307  O2'       46.4360   55.0760   12.7890 O.3    61  A61        -0.2156
   1308  C1'       48.7980   55.6140   12.5910 C.3    61  A61         0.2408
   1309  N1        51.0420   51.8990    9.8950 N.ar   61  A61        -0.2040
   1310  C2        49.7760   52.2880    9.9900 C.ar   61  A61         0.2016
   1311  N3        49.2520   53.2540   10.7270 N.ar   61  A61        -0.2048
   1312  C4        50.2070   53.8710   11.4450 C.ar   61  A61         0.1692
   1313  C5        51.5510   53.5780   11.4560 C.ar   61  A61         0.1518
   1314  C6        51.9740   52.5380   10.6310 C.ar   61  A61         0.1919
   1315  N6        53.2430   52.1470   10.5330 N.pl3  61  A61        -0.1054
   1316  N7        52.2320   54.4200   12.3230 N.ar   61  A61        -0.2193
   1317  C8        51.2940   55.1970   12.8070 C.ar   61  A61         0.1816
   1318  N9        50.0480   54.9260   12.3080 N.ar   61  A61        -0.2693
   1319  OP1       51.3760   59.8210   16.5510 O.3    61  A61        -0.4373
   1320  OP2       49.1670   60.4960   15.4010 O.co2  61  A61        -0.5172
   1321  P         46.6510   53.6950   16.4970 P.3    62  A62         0.2141
   1322  C5'       45.5000   52.0820   14.7750 C.3    62  A62         0.1812
   1323  O5'       46.6750   52.4610   15.4910 O.3    62  A62        -0.3114
   1324  C4'       45.8240   50.9900   13.7890 C.3    62  A62         0.1773
   1325  O4'       46.9670   51.4000   12.9990 O.3    62  A62        -0.3307
   1326  C3'       46.2450   49.6720   14.4150 C.3    62  A62         0.1860
   1327  O3'       45.0700   48.9060   14.6980 O.3    62  A62        -0.3112
   1328  C2'       47.0890   49.0470   13.3060 C.3    62  A62         0.2309
   1329  O2'       46.3200   48.3900   12.3310 O.3    62  A62        -0.2156
   1330  C1'       47.7590   50.2730   12.6840 C.3    62  A62         0.2408
   1331  N1        52.7650   49.3090   11.9300 N.ar   62  A62        -0.2040
   1332  C2        51.6590   48.8260   11.3470 C.ar   62  A62         0.2016
   1333  N3        50.3820   49.1050   11.5950 N.ar   62  A62        -0.2048
   1334  C4        50.2820   50.0060   12.5840 C.ar   62  A62         0.1692
   1335  C5        51.3300   50.5920   13.2830 C.ar   62  A62         0.1518
   1336  C6        52.6310   50.2120   12.9210 C.ar   62  A62         0.1919
   1337  N6        53.7320   50.6930   13.5000 N.pl3  62  A62        -0.1054
   1338  N7        50.8490   51.4740   14.2400 N.ar   62  A62        -0.2193
   1339  C8        49.5420   51.4110   14.1000 C.ar   62  A62         0.1816
   1340  N9        49.1310   50.5460   13.1090 N.ar   62  A62        -0.2693
   1341  OP1       45.3430   53.7120   17.1920 O.2    62  A62        -0.5172
   1342  OP2       47.8970   53.6560   17.2920 O.co2  62  A62        -0.4373
   1343  P         45.1880   47.4450   15.3780 P.3    63  U63         0.2141
   1344  C5'       44.3460   48.4510   17.6400 C.3    63  U63         0.1812
   1345  O5'       45.3530   47.7540   16.9300 O.3    63  U63        -0.3114
   1346  C4'       44.4270   48.1430   19.1120 C.3    63  U63         0.1773
   1347  O4'       44.0940   46.7420   19.3190 O.3    63  U63        -0.3307
   1348  C3'       45.8180   48.3060   19.7170 C.3    63  U63         0.1860
   1349  O3'       45.7110   48.4770   21.1150 O.3    63  U63        -0.3112
   1350  C2'       46.4510   46.9450   19.4860 C.3    63  U63         0.2309
   1351  O2'       47.4330   46.6580   20.4540 O.3    63  U63        -0.2156
   1352  C1'       45.2520   46.0300   19.7050 C.3    63  U63         0.2420
   1353  N1        45.3050   44.7670   18.9670 N.ar   63  U63        -0.2534
   1354  C2        45.2650   43.6120   19.7050 C.ar   63  U63         0.3546
   1355  O2        45.1920   43.6120   20.9190 O.2    63  U63        -0.2443
   1356  N3        45.3130   42.4540   18.9750 N.ar   63  U63        -0.1530
   1357  C4        45.4030   42.3440   17.6070 C.ar   63  U63         0.2846
   1358  O4        45.4260   41.2260   17.0930 O.2    63  U63        -0.2650
   1359  C5        45.4470   43.5940   16.9100 C.ar   63  U63         0.0814
   1360  C6        45.3940   44.7350   17.5990 C.ar   63  U63         0.0870
   1361  OP1       46.4260   46.7360   14.9540 O.2    63  U63        -0.5172
   1362  OP2       43.8670   46.7890   15.1780 O.co2  63  U63        -0.4373
   1363  P         46.5700   49.6040   21.8430 P.3    64  U64         0.2141
   1364  C5'       49.1450   49.8340   22.1920 C.3    64  U64         0.1812
   1365  O5'       48.0240   48.9780   22.0040 O.3    64  U64        -0.3114
   1366  C4'       50.4410   49.0990   21.9350 C.3    64  U64         0.1773
   1367  O4'       50.9970   48.6720   23.2090 O.3    64  U64        -0.3307
   1368  C3'       50.2530   47.7930   21.1690 C.3    64  U64         0.1860
   1369  O3'       50.3130   47.9460   19.7320 O.3    64  U64        -0.3112
   1370  C2'       51.4540   46.9580   21.5990 C.3    64  U64         0.2309
   1371  O2'       52.5830   47.0870   20.7560 O.3    64  U64        -0.2156
   1372  C1'       51.7200   47.4740   23.0150 C.3    64  U64         0.2420
   1373  N1        51.4990   46.5460   24.1330 N.ar   64  U64        -0.2534
   1374  C2        52.5020   45.6280   24.3670 C.ar   64  U64         0.3546
   1375  O2        53.5130   45.5790   23.6930 O.2    64  U64        -0.2443
   1376  N3        52.2810   44.7700   25.4120 N.ar   64  U64        -0.1530
   1377  C4        51.1820   44.7290   26.2330 C.ar   64  U64         0.2846
   1378  O4        51.1120   43.8510   27.1020 O.2    64  U64        -0.2650
   1379  C5        50.1810   45.7150   25.9370 C.ar   64  U64         0.0814
   1380  C6        50.3690   46.5710   24.9180 C.ar   64  U64         0.0870
   1381  OP1       45.8960   49.7380   23.1470 O.3    64  U64        -0.4373
   1382  OP2       46.7240   50.7920   20.9740 O.co2  64  U64        -0.5172
   1383  P         50.9310   49.2820   19.0360 P.3    65  C65         0.2141
   1384  C5'       49.2250   48.9240   17.0710 C.3    65  C65         0.1812
   1385  O5'       50.5820   49.0440   17.4980 O.3    65  C65        -0.3114
   1386  C4'       49.0570   47.7750   16.1030 C.3    65  C65         0.1773
   1387  O4'       49.7580   48.0910   14.8690 O.3    65  C65        -0.3307
   1388  C3'       49.6840   46.4610   16.5270 C.3    65  C65         0.1860
   1389  O3'       48.8750   45.7090   17.4080 O.3    65  C65        -0.3112
   1390  C2'       49.8750   45.7480   15.1960 C.3    65  C65         0.2309
   1391  O2'       48.6930   45.1690   14.6930 O.3    65  C65        -0.2156
   1392  C1'       50.2890   46.9070   14.2990 C.3    65  C65         0.2420
   1393  N1        51.7470   47.0170   14.2460 N.ar   65  C65        -0.2535
   1394  C2        52.4450   46.1530   13.3980 C.ar   65  C65         0.3532
   1395  O2        51.7990   45.3560   12.6970 O.2    65  C65        -0.2443
   1396  N3        53.8010   46.2060   13.3650 N.ar   65  C65        -0.1739
   1397  C4        54.4550   47.0830   14.1350 C.ar   65  C65         0.1759
   1398  N4        55.7930   47.0930   14.0790 N.pl3  65  C65        -0.1070
   1399  C5        53.7640   47.9890   14.9990 C.ar   65  C65         0.0566
   1400  C6        52.4210   47.9230   15.0200 C.ar   65  C65         0.0850
   1401  OP1       52.4050   49.3220   19.0970 O.2    65  C65        -0.5172
   1402  OP2       50.1560   50.4540   19.4880 O.co2  65  C65        -0.4373
   1403  P         49.5390   44.4940   18.2210 P.3    66  C66         0.2141
   1404  C5'       48.8130   42.6570   16.5060 C.3    66  C66         0.1812
   1405  O5'       49.8600   43.4190   17.1020 O.3    66  C66        -0.3114
   1406  C4'       49.4010   41.5630   15.6570 C.3    66  C66         0.1773
   1407  O4'       50.2800   42.1710   14.6810 O.3    66  C66        -0.3307
   1408  C3'       50.3140   40.6230   16.4190 C.3    66  C66         0.1860
   1409  O3'       49.5680   39.5940   17.0420 O.3    66  C66        -0.3112
   1410  C2'       51.2200   40.0890   15.3240 C.3    66  C66         0.2309
   1411  O2'       50.6130   39.0770   14.5610 O.3    66  C66        -0.2156
   1412  C1'       51.3940   41.3290   14.4570 C.3    66  C66         0.2420
   1413  N1        52.6120   42.0750   14.7770 N.ar   66  C66        -0.2535
   1414  C2        53.8080   41.5490   14.3680 C.ar   66  C66         0.3532
   1415  O2        53.7870   40.4780   13.7590 O.2    66  C66        -0.2443
   1416  N3        54.9550   42.2090   14.6360 N.ar   66  C66        -0.1739
   1417  C4        54.9180   43.3630   15.3010 C.ar   66  C66         0.1759
   1418  N4        56.0790   43.9790   15.5590 N.pl3  66  C66        -0.1070
   1419  C5        53.6940   43.9350   15.7360 C.ar   66  C66         0.0566
   1420  C6        52.5700   43.2600   15.4560 C.ar   66  C66         0.0850
   1421  OP1       48.5440   43.8950   19.1420 O.3    66  C66        -0.4373
   1422  OP2       50.8360   44.9870   18.7450 O.co2  66  C66        -0.5172
   1423  P         50.1590   38.8820   18.3500 P.3    67  U67         0.2141
   1424  C5'       51.7400   37.2510   17.0640 C.3    67  U67         0.1812
   1425  O5'       51.6020   38.3900   17.8920 O.3    67  U67        -0.3114
   1426  C4'       53.1650   37.1020   16.6200 C.3    67  U67         0.1773
   1427  O4'       53.6880   38.4030   16.2560 O.3    67  U67        -0.3307
   1428  C3'       54.0830   36.6530   17.7370 C.3    67  U67         0.1860
   1429  O3'       53.9980   35.2390   17.8130 O.3    67  U67        -0.3112
   1430  C2'       55.4470   37.1530   17.2630 C.3    67  U67         0.2309
   1431  O2'       56.1090   36.2910   16.3570 O.3    67  U67        -0.2156
   1432  C1'       55.0690   38.4530   16.5510 C.3    67  U67         0.2420
   1433  N1        55.3560   39.7120   17.2520 N.ar   67  U67        -0.2534
   1434  C2        56.6220   40.2600   17.0950 C.ar   67  U67         0.3546
   1435  O2        57.5130   39.7180   16.4680 O.2    67  U67        -0.2443
   1436  N3        56.8090   41.4630   17.7110 N.ar   67  U67        -0.1530
   1437  C4        55.8970   42.1520   18.4620 C.ar   67  U67         0.2846
   1438  O4        56.2080   43.2510   18.9100 O.2    67  U67        -0.2650
   1439  C5        54.6260   41.5080   18.6110 C.ar   67  U67         0.0814
   1440  C6        54.4050   40.3380   18.0150 C.ar   67  U67         0.0870
   1441  OP1       49.2930   37.7040   18.6380 O.2    67  U67        -0.5172
   1442  OP2       50.3640   39.9300   19.3830 O.co2  67  U67        -0.4373
   1443  P         54.5500   34.4670   19.1150 P.3    68  G68         0.2141
   1444  C5'       56.8100   33.2210   19.5000 C.3    68  G68         0.1812
   1445  O5'       55.8960   33.7990   18.5880 O.3    68  G68        -0.3114
   1446  C4'       58.1750   33.8550   19.3670 C.3    68  G68         0.1773
   1447  O4'       58.0450   35.2050   18.8340 O.3    68  G68        -0.3307
   1448  C3'       58.8160   34.1150   20.7240 C.3    68  G68         0.1860
   1449  O3'       59.4280   32.9800   21.3250 O.3    68  G68        -0.3112
   1450  C2'       59.8260   35.2080   20.4210 C.3    68  G68         0.2309
   1451  O2'       61.0230   34.7160   19.8570 O.3    68  G68        -0.2156
   1452  C1'       59.0740   36.0210   19.3780 C.3    68  G68         0.2408
   1453  N1        60.0450   40.8550   20.3920 N.ar   68  G68        -0.1709
   1454  C2        60.8740   39.8570   19.9340 C.ar   68  G68         0.2606
   1455  N2        62.1450   40.2000   19.6720 N.pl3  68  G68        -0.0859
   1456  N3        60.4920   38.6110   19.7390 N.ar   68  G68        -0.1918
   1457  C4        59.1960   38.4260   20.0460 C.ar   68  G68         0.1723
   1458  C5        58.2790   39.3390   20.5140 C.ar   68  G68         0.1748
   1459  C6        58.6970   40.6960   20.7020 C.ar   68  G68         0.3023
   1460  O6        58.0220   41.6820   21.0650 O.2    68  G68        -0.2633
   1461  N7        57.0450   38.7340   20.7090 N.ar   68  G68        -0.2173
   1462  C8        57.2330   37.4920   20.3430 C.ar   68  G68         0.1817
   1463  N9        58.5120   37.2520   19.9110 N.ar   68  G68        -0.2693
   1464  OP1       53.5640   33.3950   19.4410 O.2    68  G68        -0.5172
   1465  OP2       54.9500   35.4500   20.1690 O.co2  68  G68        -0.4373
   1466  P         59.8440   31.6930   20.4460 P.3    69  C69         0.2141
   1467  C5'       60.9730   31.4220   22.7830 C.3    69  C69         0.1812
   1468  O5'       60.5640   30.8130   21.5570 O.3    69  C69        -0.3114
   1469  C4'       60.1320   30.9200   23.9370 C.3    69  C69         0.1773
   1470  O4'       59.1700   31.9430   24.3250 O.3    69  C69        -0.3307
   1471  C3'       59.2580   29.7240   23.5880 C.3    69  C69         0.1860
   1472  O3'       60.0090   28.5290   23.7650 O.3    69  C69        -0.3112
   1473  C2'       58.1430   29.8100   24.6270 C.3    69  C69         0.2309
   1474  O2'       58.4830   29.2080   25.8560 O.3    69  C69        -0.2156
   1475  C1'       57.9910   31.3170   24.8060 C.3    69  C69         0.2420
   1476  N1        56.8020   31.9100   24.1790 N.ar   69  C69        -0.2535
   1477  C2        55.5930   31.8360   24.8690 C.ar   69  C69         0.3532
   1478  O2        55.5660   31.2580   25.9680 O.2    69  C69        -0.2443
   1479  N3        54.4850   32.3880   24.3290 N.ar   69  C69        -0.1739
   1480  C4        54.5570   32.9940   23.1430 C.ar   69  C69         0.1759
   1481  N4        53.4380   33.5320   22.6480 N.pl3  69  C69        -0.1070
   1482  C5        55.7760   33.0780   22.4150 C.ar   69  C69         0.0566
   1483  C6        56.8650   32.5250   22.9630 C.ar   69  C69         0.0850
   1484  OP1       60.8480   32.0800   19.4200 O.2    69  C69        -0.5172
   1485  OP2       58.6140   30.9580   20.0360 O.co2  69  C69        -0.4373
   1486  P         59.3040   27.1030   23.5310 P.3    70  A70         0.2141
   1487  C5'       57.1470   26.0610   24.6290 C.3    70  A70         0.1812
   1488  O5'       57.9260   27.2130   24.3320 O.3    70  A70        -0.3114
   1489  C4'       56.2420   26.3390   25.8050 C.3    70  A70         0.1773
   1490  O4'       55.9950   27.7680   25.8810 O.3    70  A70        -0.3307
   1491  C3'       54.8550   25.7220   25.7200 C.3    70  A70         0.1860
   1492  O3'       54.8450   24.3760   26.1910 O.3    70  A70        -0.3112
   1493  C2'       54.0450   26.6390   26.6290 C.3    70  A70         0.2309
   1494  O2'       54.1780   26.3370   28.0000 O.3    70  A70        -0.2156
   1495  C1'       54.6640   28.0020   26.3180 C.3    70  A70         0.2408
   1496  N1        50.1520   29.9750   24.7210 N.ar   70  A70        -0.2040
   1497  C2        50.5150   29.3550   25.8550 C.ar   70  A70         0.2016
   1498  N3        51.7070   28.8630   26.2120 N.ar   70  A70        -0.2048
   1499  C4        52.6170   29.0620   25.2420 C.ar   70  A70         0.1692
   1500  C5        52.4020   29.6840   24.0230 C.ar   70  A70         0.1518
   1501  C6        51.0920   30.1640   23.7660 C.ar   70  A70         0.1919
   1502  N6        50.7400   30.7920   22.6400 N.pl3  70  A70        -0.1054
   1503  N7        53.5730   29.7080   23.2730 N.ar   70  A70        -0.2193
   1504  C8        54.4540   29.1100   24.0410 C.ar   70  A70         0.1816
   1505  N9        53.9470   28.6960   25.2480 N.ar   70  A70        -0.2693
   1506  OP1       60.1580   26.0670   24.1730 O.3    70  A70        -0.4373
   1507  OP2       59.0050   27.0120   22.0790 O.co2  70  A70        -0.5172
   1508  P         54.7640   23.1620   25.1410 P.3    71  G71         0.2141
   1509  C5'       52.3720   22.2470   24.6150 C.3    71  G71         0.1812
   1510  O5'       53.3170   23.3020   24.4970 O.3    71  G71        -0.3114
   1511  C4'       51.6380   22.3740   25.9230 C.3    71  G71         0.1773
   1512  O4'       52.0250   23.6230   26.5600 O.3    71  G71        -0.3307
   1513  C3'       50.1210   22.4070   25.8660 C.3    71  G71         0.1860
   1514  O3'       49.5700   21.1010   25.8710 O.3    71  G71        -0.3112
   1515  C2'       49.7870   23.1510   27.1510 C.3    71  G71         0.2309
   1516  O2'       49.8350   22.3350   28.2910 O.3    71  G71        -0.2156
   1517  C1'       50.8910   24.2110   27.1770 C.3    71  G71         0.2408
   1518  N1        46.8740   26.9270   25.9110 N.ar   71  G71        -0.1709
   1519  C2        47.0650   26.0570   26.9720 C.ar   71  G71         0.2606
   1520  N2        46.0150   25.8340   27.7870 N.pl3  71  G71        -0.0859
   1521  N3        48.2010   25.4510   27.2210 N.ar   71  G71        -0.1918
   1522  C4        49.1490   25.7810   26.3280 C.ar   71  G71         0.1723
   1523  C5        49.0690   26.6330   25.2450 C.ar   71  G71         0.1748
   1524  C6        47.8460   27.2780   24.9760 C.ar   71  G71         0.3023
   1525  O6        47.5740   28.0620   24.0560 O.2    71  G71        -0.2633
   1526  N7        50.2830   26.6970   24.5800 N.ar   71  G71        -0.2173
   1527  C8        51.0580   25.8870   25.2530 C.ar   71  G71         0.1817
   1528  N9        50.4120   25.2720   26.3020 N.ar   71  G71        -0.2693
   1529  OP1       54.7970   21.8740   25.8810 O.3    71  G71        -0.4373
   1530  OP2       55.7780   23.4300   24.0920 O.co2  71  G71        -0.5172
   1531  P         47.9910   20.9070   25.6420 P.3    72  C72         0.2141
   1532  C5'       46.0990   22.3630   26.7070 C.3    72  C72         0.1812
   1533  O5'       47.3470   22.3060   26.0390 O.3    72  C72        -0.3114
   1534  C4'       44.9820   22.6140   25.7220 C.3    72  C72         0.1773
   1535  O4'       44.9810   24.0210   25.3630 O.3    72  C72        -0.3307
   1536  C3'       45.0480   21.8940   24.3850 C.3    72  C72         0.1860
   1537  O3'       44.5310   20.5740   24.4000 O.3    72  C72        -0.3112
   1538  C2'       44.1890   22.7920   23.5090 C.3    72  C72         0.2309
   1539  O2'       42.8160   22.6320   23.8060 O.3    72  C72        -0.2156
   1540  C1'       44.6180   24.1670   24.0040 C.3    72  C72         0.2420
   1541  N1        45.7570   24.7300   23.2580 N.ar   72  C72        -0.2535
   1542  C2        45.5690   25.9410   22.6100 C.ar   72  C72         0.3532
   1543  O2        44.4670   26.4900   22.7060 O.2    72  C72        -0.2443
   1544  N3        46.5820   26.4840   21.8930 N.ar   72  C72        -0.1739
   1545  C4        47.7520   25.8520   21.8170 C.ar   72  C72         0.1759
   1546  N4        48.7190   26.4150   21.0920 N.pl3  72  C72        -0.1070
   1547  C5        47.9800   24.6120   22.4780 C.ar   72  C72         0.0566
   1548  C6        46.9630   24.0900   23.1860 C.ar   72  C72         0.0850
   1549  OP1       47.5020   19.8850   26.6080 O.3    72  C72        -0.4373
   1550  OP2       47.7730   20.7140   24.1870 O.co2  72  C72        -0.5172
   1551  P         44.5690   19.7080   23.0390 P.3    73  G73         0.2141
   1552  C5'       42.3110   20.5250   22.0610 C.3    73  G73         0.1812
   1553  O5'       43.7170   20.5710   22.0190 O.3    73  G73        -0.3114
   1554  C4'       41.7550   21.2520   20.8840 C.3    73  G73         0.1773
   1555  O4'       42.4130   22.5320   20.7880 O.3    73  G73        -0.3307
   1556  C3'       42.0720   20.6110   19.5490 C.3    73  G73         0.1860
   1557  O3'       41.1170   19.6010   19.2650 O.3    73  G73        -0.3112
   1558  C2'       41.9210   21.7830   18.5870 C.3    73  G73         0.2309
   1559  O2'       40.5780   21.9910   18.1970 O.3    73  G73        -0.2156
   1560  C1'       42.4070   22.9550   19.4410 C.3    73  G73         0.2408
   1561  N1        45.1530   25.7800   16.2820 N.ar   73  G73        -0.1709
   1562  C2        43.8050   25.5790   16.3200 C.ar   73  G73         0.2606
   1563  N2        43.0840   26.2080   15.3880 N.pl3  73  G73        -0.0859
   1564  N3        43.2010   24.8180   17.2040 N.ar   73  G73        -0.1918
   1565  C4        44.0710   24.2570   18.0640 C.ar   73  G73         0.1723
   1566  C5        45.4360   24.3930   18.1140 C.ar   73  G73         0.1748
   1567  C6        46.0680   25.2180   17.1580 C.ar   73  G73         0.3023
   1568  O6        47.2660   25.4700   17.0360 O.2    73  G73        -0.2633
   1569  N7        45.9700   23.6420   19.1540 N.ar   73  G73        -0.2173
   1570  C8        44.9320   23.0740   19.7060 C.ar   73  G73         0.1817
   1571  N9        43.7490   23.4060   19.0920 N.ar   73  G73        -0.2693
   1572  OP1       43.8530   18.4190   23.2050 O.3    73  G73        -0.4373
   1573  OP2       45.9770   19.7010   22.5650 O.co2  73  G73        -0.5172
   1574  P         41.4320   18.5100   18.1290 P.3    74  G74         0.2141
   1575  C5'       41.1150   19.3110   15.6430 C.3    74  G74         0.1812
   1576  O5'       41.8430   19.3920   16.8640 O.3    74  G74        -0.3114
   1577  C4'       41.8990   19.9430   14.5120 C.3    74  G74         0.1773
   1578  O4'       42.4630   21.2140   14.9320 O.3    74  G74        -0.3307
   1579  C3'       43.1210   19.1900   14.0190 C.3    74  G74         0.1860
   1580  O3'       42.7560   18.0800   13.1960 O.3    74  G74        -0.3112
   1581  C2'       43.8290   20.2900   13.2360 C.3    74  G74         0.2309
   1582  O2'       43.2250   20.5610   11.9890 O.3    74  G74        -0.2156
   1583  C1'       43.6240   21.4910   14.1630 C.3    74  G74         0.2408
   1584  N1        48.3140   23.3720   14.7240 N.ar   74  G74        -0.1709
   1585  C2        47.4490   23.4960   13.6640 C.ar   74  G74         0.2606
   1586  N2        47.9080   24.1920   12.6000 N.pl3  74  G74        -0.0859
   1587  N3        46.2250   22.9800   13.6450 N.ar   74  G74        -0.1918
   1588  C4        45.9330   22.3210   14.7900 C.ar   74  G74         0.1723
   1589  C5        46.7220   22.1450   15.9050 C.ar   74  G74         0.1748
   1590  C6        48.0350   22.7050   15.9120 C.ar   74  G74         0.3023
   1591  O6        48.8910   22.6640   16.8090 O.2    74  G74        -0.2633
   1592  N7        46.0500   21.4110   16.8730 N.ar   74  G74        -0.2173
   1593  C8        44.8870   21.1560   16.3380 C.ar   74  G74         0.1817
   1594  N9        44.7570   21.6600   15.0680 N.ar   74  G74        -0.2693
   1595  OP1       40.1760   17.7600   17.8290 O.2    74  G74        -0.5172
   1596  OP2       42.6490   17.7720   18.5580 O.co2  74  G74        -0.4373
   1597  P         43.7430   16.8110   13.1920 P.3    75  A75         0.2141
   1598  C5'       46.0760   17.2820   12.5390 C.3    75  A75         0.1812
   1599  O5'       44.8150   17.0570   12.1150 O.3    75  A75        -0.3114
   1600  C4'       47.0050   17.1490   11.3740 C.3    75  A75         0.1773
   1601  O4'       46.1610   16.9430   10.2550 O.3    75  A75        -0.3307
   1602  C3'       47.6760   18.4350   11.0270 C.3    75  A75         0.1860
   1603  O3'       48.8760   18.6460   11.6710 O.3    75  A75        -0.3112
   1604  C2'       47.7200   18.5010    9.5260 C.3    75  A75         0.2309
   1605  O2'       48.9410   18.0420    9.0570 O.3    75  A75        -0.2156
   1606  C1'       46.6360   17.5630    9.1120 C.3    75  A75         0.2408
   1607  N1        44.0030   20.5000    5.7910 N.ar   75  A75        -0.2040
   1608  C2        45.2900   20.2170    5.8390 C.ar   75  A75         0.2016
   1609  N3        45.9340   19.4730    6.7150 N.ar   75  A75        -0.2048
   1610  C4        45.1220   18.9550    7.6260 C.ar   75  A75         0.1692
   1611  C5        43.7750   19.1490    7.6970 C.ar   75  A75         0.1518
   1612  C6        43.2110   19.9690    6.7180 C.ar   75  A75         0.1919
   1613  N6        41.9320   20.2400    6.6770 N.pl3  75  A75        -0.1054
   1614  N7        43.2250   18.4690    8.7540 N.ar   75  A75        -0.2193
   1615  C8        44.2470   17.8950    9.2820 C.ar   75  A75         0.1816
   1616  N9        45.4120   18.1430    8.6680 N.ar   75  A75        -0.2693
   1617  OP1       43.0550   15.6060   12.8410 O.2    75  A75        -0.5172
   1618  OP2       44.5210   16.8590   14.3830 O.co2  75  A75        -0.4373
   1619  P         48.6750   19.8400   12.6240 P.3    76  A76         0.2141
   1620  C5'       50.1420   21.2420   10.9480 C.3    76  A76         0.1812
   1621  O5'       48.8810   21.0270   11.5760 O.3    76  A76        -0.3114
   1622  C4'       49.9540   21.9120    9.6030 C.3    76  A76         0.1773
   1623  O4'       48.8350   21.3110    8.9020 O.3    76  A76        -0.3307
   1624  C3'       49.6270   23.3920    9.6440 C.3    76  A76         0.1860
   1625  O3'       50.8380   24.1270    9.6730 O.3    76  A76        -0.3112
   1626  C2'       48.9070   23.6080    8.3190 C.3    76  A76         0.2309
   1627  O2'       49.8080   23.7630    7.2450 O.3    76  A76        -0.2156
   1628  C1'       48.1350   22.2970    8.1710 C.3    76  A76         0.2408
   1629  N1        43.2250   23.5310    7.2000 N.ar   76  A76        -0.2040
   1630  C2        44.3460   23.6950    6.4900 C.ar   76  A76         0.2016
   1631  N3        45.6000   23.3690    6.8010 N.ar   76  A76        -0.2048
   1632  C4        45.6530   22.7990    8.0170 C.ar   76  A76         0.1692
   1633  C5        44.5880   22.5610    8.8640 C.ar   76  A76         0.1518
   1634  C6        43.3130   22.9580    8.4160 C.ar   76  A76         0.1919
   1635  N6        42.1930   22.8020    9.1240 N.pl3  76  A76        -0.1054
   1636  N7        45.0210   21.9510   10.0330 N.ar   76  A76        -0.2193
   1637  C8        46.3150   21.8390    9.8700 C.ar   76  A76         0.1816
   1638  N9        46.7640   22.3200    8.6700 N.ar   76  A76        -0.2693
   1639  OP1       49.6740   19.9870   13.7160 O.3    76  A76        -0.4373
   1640  OP2       47.2300   19.7790   12.9640 O.co2  76  A76        -0.5172
   1641  P         50.8640   25.5610   10.3780 P.3    77  A77         0.2141
   1642  C5'       50.1670   26.9810    8.2790 C.3    77  A77         0.1812
   1643  O5'       49.8140   26.4130    9.5320 O.3    77  A77        -0.3114
   1644  C4'       48.9350   27.5030    7.5780 C.3    77  A77         0.1773
   1645  O4'       47.9110   26.4730    7.5790 O.3    77  A77        -0.3307
   1646  C3'       48.2710   28.6830    8.2670 C.3    77  A77         0.1860
   1647  O3'       48.8730   29.8950    7.8220 O.3    77  A77        -0.3112
   1648  C2'       46.8330   28.5850    7.7700 C.3    77  A77         0.2309
   1649  O2'       46.6210   29.1580    6.5010 O.3    77  A77        -0.2156
   1650  C1'       46.6330   27.0750    7.6790 C.3    77  A77         0.2408
   1651  N1        42.0140   25.8100    9.5360 N.ar   77  A77        -0.2040
   1652  C2        42.4010   26.4140    8.4040 C.ar   77  A77         0.2016
   1653  N3        43.6280   26.7280    7.9890 N.ar   77  A77        -0.2048
   1654  C4        44.5460   26.3470    8.8930 C.ar   77  A77         0.1692
   1655  C5        44.3080   25.7250   10.1040 C.ar   77  A77         0.1518
   1656  C6        42.9620   25.4470   10.4300 C.ar   77  A77         0.1919
   1657  N6        42.5770   24.8510   11.5680 N.pl3  77  A77        -0.1054
   1658  N7        45.5000   25.4910   10.7750 N.ar   77  A77        -0.2193
   1659  C8        46.4170   25.9620    9.9650 C.ar   77  A77         0.1816
   1660  N9        45.9110   26.4880    8.8060 N.ar   77  A77        -0.2693
   1661  OP1       52.2130   26.1450   10.1770 O.2    77  A77        -0.5172
   1662  OP2       50.3210   25.3930   11.7570 O.co2  77  A77        -0.4373
   1663  P         49.3880   30.9790    8.8990 P.3    78  C78         0.2141
   1664  C5'       47.2730   31.9850   10.0570 C.3    78  C78         0.1812
   1665  O5'       48.2630   30.9680   10.0260 O.3    78  C78        -0.3114
   1666  C4'       45.9220   31.4000   10.3790 C.3    78  C78         0.1773
   1667  O4'       45.9830   29.9560   10.2960 O.3    78  C78        -0.3307
   1668  C3'       45.4170   31.6740   11.7810 C.3    78  C78         0.1860
   1669  O3'       44.7830   32.9480   11.8190 O.3    78  C78        -0.3112
   1670  C2'       44.4350   30.5270   11.9950 C.3    78  C78         0.2309
   1671  O2'       43.1550   30.7290   11.4270 O.3    78  C78        -0.2156
   1672  C1'       45.1520   29.3820   11.2850 C.3    78  C78         0.2420
   1673  N1        46.0190   28.6530   12.1960 N.ar   78  C78        -0.2535
   1674  C2        45.4460   27.9070   13.2280 C.ar   78  C78         0.3532
   1675  O2        44.2060   27.8530   13.3140 O.2    78  C78        -0.2443
   1676  N3        46.2580   27.2650   14.1000 N.ar   78  C78        -0.1739
   1677  C4        47.5850   27.3390   13.9540 C.ar   78  C78         0.1759
   1678  N4        48.3440   26.6980   14.8250 N.pl3  78  C78        -0.1070
   1679  C5        48.1900   28.0770   12.9000 C.ar   78  C78         0.0566
   1680  C6        47.3780   28.7130   12.0510 C.ar   78  C78         0.0850
   1681  OP1       49.3700   32.3170    8.2500 O.2    78  C78        -0.5172
   1682  OP2       50.6600   30.4690    9.4780 O.co2  78  C78        -0.4373
   1683  P         44.8430   33.8230   13.1620 P.3    79  G79         0.2141
   1684  C5'       42.5790   32.6660   13.7090 C.3    79  G79         0.1812
   1685  O5'       43.8820   33.0140   14.1410 O.3    79  G79        -0.3114
   1686  C4'       41.8560   31.8930   14.7750 C.3    79  G79         0.1773
   1687  O4'       42.3840   30.5410   14.8180 O.3    79  G79        -0.3307
   1688  C3'       42.0610   32.3960   16.1910 C.3    79  G79         0.1860
   1689  O3'       41.1910   33.4780   16.4720 O.3    79  G79        -0.3112
   1690  C2'       41.7380   31.1560   17.0150 C.3    79  G79         0.2309
   1691  O2'       40.3450   30.9410   17.1050 O.3    79  G79        -0.2156
   1692  C1'       42.3600   30.0560   16.1560 C.3    79  G79         0.2408
   1693  N1        45.3150   27.4470   19.3510 N.ar   79  G79        -0.1709
   1694  C2        43.9440   27.4550   19.2530 C.ar   79  G79         0.2606
   1695  N2        43.2830   26.6700   20.1300 N.pl3  79  G79        -0.0859
   1696  N3        43.2750   28.1760   18.3670 N.ar   79  G79        -0.1918
   1697  C4        44.1060   28.8960   17.5770 C.ar   79  G79         0.1723
   1698  C5        45.4840   28.9540   17.6030 C.ar   79  G79         0.1748
   1699  C6        46.1820   28.1840   18.5520 C.ar   79  G79         0.3023
   1700  O6        47.4020   28.1090   18.7310 O.2    79  G79        -0.2633
   1701  N7        45.9580   29.8210   16.6310 N.ar   79  G79        -0.2173
   1702  C8        44.8820   30.2650   16.0420 C.ar   79  G79         0.1817
   1703  N9        43.7240   29.7490   16.5690 N.ar   79  G79        -0.2693
   1704  OP1       44.2140   35.1400   12.8720 O.2    79  G79        -0.5172
   1705  OP2       46.2580   33.7670   13.6290 O.co2  79  G79        -0.4373
   1706  P         41.5770   34.5320   17.6190 P.3    80  U80         0.2141
   1707  C5'       40.5740   32.9670   19.4860 C.3    80  U80         0.1812
   1708  O5'       41.7100   33.6360   18.9340 O.3    80  U80        -0.3114
   1709  C4'       40.9560   32.2140   20.7460 C.3    80  U80         0.1773
   1710  O4'       41.8340   31.0960   20.4110 O.3    80  U80        -0.3307
   1711  C3'       41.7800   33.0270   21.7300 C.3    80  U80         0.1860
   1712  O3'       40.9250   33.8340   22.5350 O.3    80  U80        -0.3112
   1713  C2'       42.4940   31.9410   22.5350 C.3    80  U80         0.2309
   1714  O2'       41.6990   31.4190   23.5790 O.3    80  U80        -0.2156
   1715  C1'       42.7570   30.8770   21.4650 C.3    80  U80         0.2420
   1716  N1        44.1190   30.9180   20.9210 N.ar   80  U80        -0.2534
   1717  C2        45.0830   30.1670   21.5650 C.ar   80  U80         0.3546
   1718  O2        44.8460   29.4800   22.5300 O.2    80  U80        -0.2443
   1719  N3        46.3410   30.2560   21.0380 N.ar   80  U80        -0.1530
   1720  C4        46.7250   31.0070   19.9590 C.ar   80  U80         0.2846
   1721  O4        47.9010   30.9950   19.6090 O.2    80  U80        -0.2650
   1722  C5        45.6690   31.7530   19.3400 C.ar   80  U80         0.0814
   1723  C6        44.4310   31.6800   19.8290 C.ar   80  U80         0.0870
   1724  OP1       40.3870   35.4080   17.7530 O.3    80  U80        -0.4373
   1725  OP2       42.9050   35.1340   17.3460 O.co2  80  U80        -0.5172
   1726  P         41.5610   34.9330   23.5170 P.3    81  U81         0.2141
   1727  C5'       41.5980   33.5150   25.7050 C.3    81  U81         0.1812
   1728  O5'       42.3210   34.0790   24.6230 O.3    81  U81        -0.3114
   1729  C4'       42.5260   32.7900   26.6410 C.3    81  U81         0.1773
   1730  O4'       43.2270   31.7610   25.8960 O.3    81  U81        -0.3307
   1731  C3'       43.6430   33.6430   27.2290 C.3    81  U81         0.1860
   1732  O3'       43.1980   34.3440   28.3910 O.3    81  U81        -0.3112
   1733  C2'       44.6850   32.5900   27.5820 C.3    81  U81         0.2309
   1734  O2'       44.4280   31.9360   28.8110 O.3    81  U81        -0.2156
   1735  C1'       44.5290   31.6090   26.4210 C.3    81  U81         0.2420
   1736  N1        45.5020   31.8670   25.3600 N.ar   81  U81        -0.2534
   1737  C2        46.5630   31.0040   25.2790 C.ar   81  U81         0.3546
   1738  O2        46.6730   30.0400   26.0090 O.2    81  U81        -0.2443
   1739  N3        47.4860   31.3060   24.3110 N.ar   81  U81        -0.1530
   1740  C4        47.4380   32.3610   23.4320 C.ar   81  U81         0.2846
   1741  O4        48.3490   32.5060   22.6260 O.2    81  U81        -0.2650
   1742  C5        46.2910   33.2020   23.5640 C.ar   81  U81         0.0814
   1743  C6        45.3810   32.9310   24.5010 C.ar   81  U81         0.0870
   1744  OP1       40.4290   35.6360   24.1700 O.3    81  U81        -0.4373
   1745  OP2       42.5590   35.7060   22.7510 O.co2  81  U81        -0.5172
   1746  P         44.0840   35.5490   28.9910 P.3    82  G82         0.2141
   1747  C5'       45.3970   34.0730   30.7100 C.3    82  G82         0.1812
   1748  O5'       45.4170   34.8440   29.5160 O.3    82  G82        -0.3114
   1749  C4'       46.7880   33.6170   31.0900 C.3    82  G82         0.1773
   1750  O4'       47.2390   32.5950   30.1580 O.3    82  G82        -0.3307
   1751  C3'       47.8760   34.6770   31.0410 C.3    82  G82         0.1860
   1752  O3'       47.9260   35.3930   32.2670 O.3    82  G82        -0.3112
   1753  C2'       49.1300   33.8290   30.8830 C.3    82  G82         0.2309
   1754  O2'       49.5650   33.3270   32.1280 O.3    82  G82        -0.2156
   1755  C1'       48.6420   32.7040   29.9660 C.3    82  G82         0.2408
   1756  N1        52.0920   32.6410   26.2160 N.ar   82  G82        -0.1709
   1757  C2        52.1810   32.1330   27.4840 C.ar   82  G82         0.2606
   1758  N2        53.3590   31.5790   27.8010 N.pl3  82  G82        -0.0859
   1759  N3        51.1930   32.1680   28.3730 N.ar   82  G82        -0.1918
   1760  C4        50.0890   32.7670   27.8790 C.ar   82  G82         0.1723
   1761  C5        49.8950   33.3040   26.6260 C.ar   82  G82         0.1748
   1762  C6        50.9690   33.2600   25.6820 C.ar   82  G82         0.3023
   1763  O6        51.0010   33.6910   24.5190 O.2    82  G82        -0.2633
   1764  N7        48.6130   33.8250   26.5080 N.ar   82  G82        -0.2173
   1765  C8        48.0650   33.6100   27.6720 C.ar   82  G82         0.1817
   1766  N9        48.9110   32.9980   28.5600 N.ar   82  G82        -0.2693
   1767  OP1       43.3280   36.0850   30.1490 O.3    82  G82        -0.4373
   1768  OP2       44.4550   36.4560   27.8810 O.co2  82  G82        -0.5172
   1769  P         49.0550   36.5180   32.4950 P.3    83  A83         0.2141
   1770  C5'       51.4980   35.7660   33.0570 C.3    83  A83         0.1812
   1771  O5'       50.4330   35.8100   32.1170 O.3    83  A83        -0.3114
   1772  C4'       52.6920   35.0390   32.4860 C.3    83  A83         0.1773
   1773  O4'       52.3190   34.3470   31.2710 O.3    83  A83        -0.3307
   1774  C3'       53.8170   35.9590   32.0540 C.3    83  A83         0.1860
   1775  O3'       54.6800   36.1750   33.1460 O.3    83  A83        -0.3112
   1776  C2'       54.5540   35.1360   31.0160 C.3    83  A83         0.2309
   1777  O2'       55.5400   34.2990   31.5650 O.3    83  A83        -0.2156
   1778  C1'       53.4090   34.3640   30.3640 C.3    83  A83         0.2408
   1779  N1        54.6960   35.5490   25.5870 N.ar   83  A83        -0.2040
   1780  C2        55.3020   34.8260   26.5280 C.ar   83  A83         0.2016
   1781  N3        54.8970   34.5440   27.7550 N.ar   83  A83        -0.2048
   1782  C4        53.7040   35.1050   27.9940 C.ar   83  A83         0.1692
   1783  C5        52.9590   35.8720   27.1290 C.ar   83  A83         0.1518
   1784  C6        53.4940   36.0950   25.8650 C.ar   83  A83         0.1919
   1785  N6        52.8810   36.8150   24.9260 N.pl3  83  A83        -0.1054
   1786  N7        51.7780   36.2790   27.7270 N.ar   83  A83        -0.2193
   1787  C8        51.8380   35.7560   28.9240 C.ar   83  A83         0.1816
   1788  N9        52.9830   35.0430   29.1520 N.ar   83  A83        -0.2693
   1789  OP1       49.0910   36.8150   33.9460 O.3    83  A83        -0.4373
   1790  OP2       48.8120   37.6200   31.5300 O.co2  83  A83        -0.5172
   1791  P         55.4720   37.5550   33.2480 P.3    84  A84         0.2141
   1792  C5'       57.5900   36.5190   32.1390 C.3    84  A84         0.1812
   1793  O5'       56.5390   37.4600   32.0750 O.3    84  A84        -0.3114
   1794  C4'       58.2630   36.4330   30.8100 C.3    84  A84         0.1773
   1795  O4'       57.2700   36.0560   29.8210 O.3    84  A84        -0.3307
   1796  C3'       58.7500   37.7750   30.3070 C.3    84  A84         0.1860
   1797  O3'       60.0250   38.0830   30.8210 O.3    84  A84        -0.3112
   1798  C2'       58.8030   37.5590   28.8040 C.3    84  A84         0.2309
   1799  O2'       59.9640   36.8720   28.3880 O.3    84  A84        -0.2156
   1800  C1'       57.5710   36.6850   28.5850 C.3    84  A84         0.2408
   1801  N1        55.5600   39.4640   24.7880 N.ar   84  A84        -0.2040
   1802  C2        56.7130   38.7950   24.9030 C.ar   84  A84         0.2016
   1803  N3        57.1710   38.0800   25.9270 N.ar   84  A84        -0.2048
   1804  C4        56.2860   38.0850   26.9410 C.ar   84  A84         0.1692
   1805  C5        55.0630   38.7210   26.9710 C.ar   84  A84         0.1518
   1806  C6        54.6940   39.4450   25.8280 C.ar   84  A84         0.1919
   1807  N6        53.5430   40.1100   25.7130 N.pl3  84  A84        -0.1054
   1808  N7        54.4280   38.5030   28.1850 N.ar   84  A84        -0.2193
   1809  C8        55.2710   37.7550   28.8500 C.ar   84  A84         0.1816
   1810  N9        56.4160   37.4680   28.1590 N.ar   84  A84        -0.2693
   1811  OP1       56.2080   37.5990   34.5390 O.3    84  A84        -0.4373
   1812  OP2       54.4830   38.6150   32.9220 O.co2  84  A84        -0.5172
   1813  P         60.3520   39.5950   31.2220 P.3    85  A85         0.2141
   1814  C5'       61.4740   40.0850   28.9130 C.3    85  A85         0.1812
   1815  O5'       60.4200   40.3520   29.8270 O.3    85  A85        -0.3114
   1816  C4'       61.2730   40.8760   27.6500 C.3    85  A85         0.1773
   1817  O4'       60.1110   40.3480   26.9530 O.3    85  A85        -0.3307
   1818  C3'       60.9380   42.3430   27.8500 C.3    85  A85         0.1860
   1819  O3'       62.0870   43.1460   28.1110 O.3    85  A85        -0.3112
   1820  C2'       60.2180   42.6780   26.5470 C.3    85  A85         0.2309
   1821  O2'       61.0940   42.8270   25.4450 O.3    85  A85        -0.2156
   1822  C1'       59.3930   41.4100   26.3410 C.3    85  A85         0.2408
   1823  N1        54.6770   43.4680   26.2110 N.ar   85  A85        -0.2040
   1824  C2        55.7450   43.6200   25.4140 C.ar   85  A85         0.2016
   1825  N3        56.9470   43.0600   25.5020 N.ar   85  A85        -0.2048
   1826  C4        57.0100   42.2470   26.5700 C.ar   85  A85         0.1692
   1827  C5        55.9990   41.9950   27.4820 C.ar   85  A85         0.1518
   1828  C6        54.7750   42.6440   27.2730 C.ar   85  A85         0.1919
   1829  N6        53.7110   42.4940   28.0620 N.pl3  85  A85        -0.1054
   1830  N7        56.4300   41.1130   28.4610 N.ar   85  A85        -0.2193
   1831  C8        57.6700   40.8500   28.1230 C.ar   85  A85         0.1816
   1832  N9        58.0840   41.4980   26.9860 N.ar   85  A85        -0.2693
   1833  OP1       61.7020   39.6480   31.8360 O.2    85  A85        -0.5172
   1834  OP2       59.1720   40.0840   31.9830 O.co2  85  A85        -0.4373
   1835  P         61.9480   44.4400   29.0660 P.3    86  G86         0.2141
   1836  C5'       61.3440   45.8730   26.9840 C.3    86  G86         0.1812
   1837  O5'       60.9740   45.4010   28.2620 O.3    86  G86        -0.3114
   1838  C4'       60.2260   46.6720   26.3930 C.3    86  G86         0.1773
   1839  O4'       59.0490   45.8350   26.3100 O.3    86  G86        -0.3307
   1840  C3'       59.7670   47.7950   27.2970 C.3    86  G86         0.1860
   1841  O3'       60.5940   48.9220   27.1250 O.3    86  G86        -0.3112
   1842  C2'       58.3570   48.0470   26.8000 C.3    86  G86         0.2309
   1843  O2'       58.3790   48.7680   25.5870 O.3    86  G86        -0.2156
   1844  C1'       57.8970   46.6280   26.4940 C.3    86  G86         0.2408
   1845  N1        53.2810   46.5230   28.4810 N.ar   86  G86        -0.1709
   1846  C2        53.7860   47.2950   27.4680 C.ar   86  G86         0.2606
   1847  N2        52.9380   48.1530   26.8990 N.pl3  86  G86        -0.0859
   1848  N3        55.0310   47.2320   27.0470 N.ar   86  G86        -0.1918
   1849  C4        55.7480   46.3280   27.7370 C.ar   86  G86         0.1723
   1850  C5        55.3470   45.5120   28.7720 C.ar   86  G86         0.1748
   1851  C6        54.0030   45.5840   29.2090 C.ar   86  G86         0.3023
   1852  O6        53.4470   44.9410   30.1070 O.2    86  G86        -0.2633
   1853  N7        56.4010   44.7240   29.2150 N.ar   86  G86        -0.2173
   1854  C8        57.4000   45.0670   28.4470 C.ar   86  G86         0.1817
   1855  N9        57.0620   46.0300   27.5240 N.ar   86  G86        -0.2693
   1856  OP1       63.2600   45.1420   29.1670 O.2    86  G86        -0.5172
   1857  OP2       61.2310   44.0110   30.3000 O.co2  86  G86        -0.4373
   1858  P         60.5530   50.0900   28.2090 P.3    87  A87         0.2141
   1859  C5'       58.8220   51.4160   26.7520 C.3    87  A87         0.1812
   1860  O5'       59.1320   50.7740   27.9820 O.3    87  A87        -0.3114
   1861  C4'       57.5260   52.1680   26.8750 C.3    87  A87         0.1773
   1862  O4'       56.4140   51.2370   26.7890 O.3    87  A87        -0.3307
   1863  C3'       57.3100   52.8810   28.1890 C.3    87  A87         0.1860
   1864  O3'       57.9460   54.1450   28.1750 O.3    87  A87        -0.3112
   1865  C2'       55.7920   52.9910   28.2360 C.3    87  A87         0.2309
   1866  O2'       55.3300   53.9740   27.3410 O.3    87  A87        -0.2156
   1867  C1'       55.3780   51.6320   27.6780 C.3    87  A87         0.2408
   1868  N1        52.2210   49.2360   31.0030 N.ar   87  A87        -0.2040
   1869  C2        52.0290   50.2610   30.1640 C.ar   87  A87         0.2016
   1870  N3        52.8940   50.8510   29.3340 N.ar   87  A87        -0.2048
   1871  C4        54.1010   50.2690   29.4170 C.ar   87  A87         0.1692
   1872  C5        54.4520   49.2070   30.2340 C.ar   87  A87         0.1518
   1873  C6        53.4470   48.6750   31.0650 C.ar   87  A87         0.1919
   1874  N6        53.6380   47.6550   31.9030 N.pl3  87  A87        -0.1054
   1875  N7        55.7850   48.8660   30.0500 N.ar   87  A87        -0.2193
   1876  C8        56.2070   49.7140   29.1420 C.ar   87  A87         0.1816
   1877  N9        55.2360   50.5900   28.7050 N.ar   87  A87        -0.2693
   1878  OP1       61.6180   51.0600   27.8570 O.2    87  A87        -0.5172
   1879  OP2       60.5430   49.4670   29.5500 O.co2  87  A87        -0.4373
   1880  P         58.2260   54.9020   29.5610 P.3    88  U88         0.2141
   1881  C5'       55.8360   55.9470   29.5600 C.3    88  U88         0.1812
   1882  O5'       56.7690   55.0810   30.1850 O.3    88  U88        -0.3114
   1883  C4'       54.5890   56.1060   30.4000 C.3    88  U88         0.1773
   1884  O4'       53.7860   54.9000   30.3200 O.3    88  U88        -0.3307
   1885  C3'       54.7990   56.2970   31.8910 C.3    88  U88         0.1860
   1886  O3'       55.0820   57.6410   32.2120 O.3    88  U88        -0.3112
   1887  C2'       53.4550   55.8640   32.4540 C.3    88  U88         0.2309
   1888  O2'       52.4560   56.8570   32.3080 O.3    88  U88        -0.2156
   1889  C1'       53.1410   54.6750   31.5570 C.3    88  U88         0.2420
   1890  N1        53.6900   53.4560   32.1510 N.ar   88  U88        -0.2534
   1891  C2        52.8850   52.7730   33.0330 C.ar   88  U88         0.3546
   1892  O2        51.7530   53.1240   33.2870 O.2    88  U88        -0.2443
   1893  N3        53.4540   51.6670   33.6050 N.ar   88  U88        -0.1530
   1894  C4        54.7230   51.1780   33.3810 C.ar   88  U88         0.2846
   1895  O4        55.0970   50.1580   33.9750 O.2    88  U88        -0.2650
   1896  C5        55.4930   51.9360   32.4380 C.ar   88  U88         0.0814
   1897  C6        54.9580   53.0230   31.8650 C.ar   88  U88         0.0870
   1898  OP1       58.7710   56.2410   29.2210 O.2    88  U88        -0.5172
   1899  OP2       59.0210   53.9890   30.4210 O.co2  88  U88        -0.4373
   1900  P         55.7970   57.9740   33.6010 P.3    89  G89         0.2141
   1901  C5'       53.4660   58.6300   34.5840 C.3    89  G89         0.1812
   1902  O5'       54.6240   57.8070   34.6580 O.3    89  G89        -0.3114
   1903  C4'       52.5010   58.2450   35.6700 C.3    89  G89         0.1773
   1904  O4'       51.9850   56.9200   35.3920 O.3    89  G89        -0.3307
   1905  C3'       53.1010   58.1470   37.0560 C.3    89  G89         0.1860
   1906  O3'       53.0510   59.4370   37.6420 O.3    89  G89        -0.3112
   1907  C2'       52.1500   57.1750   37.7410 C.3    89  G89         0.2309
   1908  O2'       50.9690   57.7840   38.2010 O.3    89  G89        -0.2156
   1909  C1'       51.8270   56.2070   36.6000 C.3    89  G89         0.2408
   1910  N1        52.8570   51.5480   38.3260 N.ar   89  G89        -0.1709
   1911  C2        51.8160   52.3830   38.6370 C.ar   89  G89         0.2606
   1912  N2        50.9410   51.9220   39.5320 N.pl3  89  G89        -0.0859
   1913  N3        51.6430   53.5800   38.1130 N.ar   89  G89        -0.1918
   1914  C4        52.6170   53.8890   37.2390 C.ar   89  G89         0.1723
   1915  C5        53.7020   53.1320   36.8580 C.ar   89  G89         0.1748
   1916  C6        53.8690   51.8390   37.4260 C.ar   89  G89         0.3023
   1917  O6        54.7600   51.0050   37.2120 O.2    89  G89        -0.2633
   1918  N7        54.4750   53.8170   35.9290 N.ar   89  G89        -0.2173
   1919  C8        53.8560   54.9560   35.7670 C.ar   89  G89         0.1817
   1920  N9        52.7270   55.0640   36.5360 N.ar   89  G89        -0.2693
   1921  OP1       56.1790   59.4020   33.5760 O.2    89  G89        -0.5172
   1922  OP2       56.8290   56.9330   33.8450 O.co2  89  G89        -0.4373
   1923  P         54.0380   59.8050   38.8510 P.3    90  A90         0.2141
   1924  C5'       52.3670   59.0380   40.6840 C.3    90  A90         0.1812
   1925  O5'       53.5870   58.8160   40.0040 O.3    90  A90        -0.3114
   1926  C4'       52.1850   57.9990   41.7470 C.3    90  A90         0.1773
   1927  O4'       51.9760   56.7170   41.0950 O.3    90  A90        -0.3307
   1928  C3'       53.4170   57.7470   42.5980 C.3    90  A90         0.1860
   1929  O3'       53.5440   58.6290   43.6920 O.3    90  A90        -0.3112
   1930  C2'       53.1490   56.3570   43.1170 C.3    90  A90         0.2309
   1931  O2'       52.1780   56.4690   44.1400 O.3    90  A90        -0.2156
   1932  C1'       52.5710   55.6920   41.8690 C.3    90  A90         0.2408
   1933  N1        55.1310   51.3550   40.9990 N.ar   90  A90        -0.2040
   1934  C2        54.0990   51.6530   41.7910 C.ar   90  A90         0.2016
   1935  N3        53.4690   52.8110   41.9530 N.ar   90  A90        -0.2048
   1936  C4        54.0110   53.7560   41.1710 C.ar   90  A90         0.1692
   1937  C5        55.0720   53.6040   40.2990 C.ar   90  A90         0.1518
   1938  C6        55.6520   52.3280   40.2270 C.ar   90  A90         0.1919
   1939  N6        56.6820   52.0280   39.4460 N.pl3  90  A90        -0.1054
   1940  N7        55.3570   54.8030   39.6570 N.ar   90  A90        -0.2193
   1941  C8        54.4740   55.6420   40.1540 C.ar   90  A90         0.1816
   1942  N9        53.6350   55.0730   41.0830 N.ar   90  A90        -0.2693
   1943  OP1       53.6760   61.1740   39.2930 O.3    90  A90        -0.4373
   1944  OP2       55.4400   59.4920   38.4640 O.co2  90  A90        -0.5172
   1945  P         54.9980   58.8900   44.3060 P.3    91  G91         0.2141
   1946  C5'       54.5190   57.0570   46.1320 C.3    91  G91         0.1812
   1947  O5'       55.3550   57.5360   45.0830 O.3    91  G91        -0.3114
   1948  C4'       55.0490   55.7580   46.7110 C.3    91  G91         0.1773
   1949  O4'       54.8150   54.6690   45.7750 O.3    91  G91        -0.3307
   1950  C3'       56.5440   55.6900   47.0030 C.3    91  G91         0.1860
   1951  O3'       56.8450   56.2370   48.2870 O.3    91  G91        -0.3112
   1952  C2'       56.8130   54.1870   46.9750 C.3    91  G91         0.2309
   1953  O2'       56.4980   53.5010   48.1710 O.3    91  G91        -0.2156
   1954  C1'       55.8760   53.7280   45.8600 C.3    91  G91         0.2408
   1955  N1        58.7730   50.9120   42.8460 N.ar   91  G91        -0.1709
   1956  C2        58.2270   50.6150   44.0620 C.ar   91  G91         0.2606
   1957  N2        58.4990   49.4020   44.5510 N.pl3  91  G91        -0.0859
   1958  N3        57.4700   51.4440   44.7510 N.ar   91  G91        -0.1918
   1959  C4        57.3020   52.6160   44.1190 C.ar   91  G91         0.1723
   1960  C5        57.8040   53.0160   42.9090 C.ar   91  G91         0.1748
   1961  C6        58.6090   52.1150   42.1730 C.ar   91  G91         0.3023
   1962  O6        59.1380   52.2770   41.0730 O.2    91  G91        -0.2633
   1963  N7        57.4050   54.3080   42.6180 N.ar   91  G91        -0.2173
   1964  C8        56.6750   54.6580   43.6390 C.ar   91  G91         0.1817
   1965  N9        56.5800   53.6760   44.5850 N.ar   91  G91        -0.2693
   1966  OP1       54.8320   60.0250   45.2410 O.3    91  G91        -0.4373
   1967  OP2       55.9460   59.0050   43.1720 O.co2  91  G91        -0.5172
   1968  P         58.3810   56.4040   48.7500 P.3    92  C92         0.2141
   1969  C5'       60.1230   54.5460   49.2230 C.3    92  C92         0.1812
   1970  O5'       58.7780   54.9640   49.2780 O.3    92  C92        -0.3114
   1971  C4'       60.1880   53.1120   48.8120 C.3    92  C92         0.1773
   1972  O4'       59.4760   52.9590   47.5640 O.3    92  C92        -0.3307
   1973  C3'       61.5870   52.6130   48.5120 C.3    92  C92         0.1860
   1974  O3'       62.2280   52.1970   49.7110 O.3    92  C92        -0.3112
   1975  C2'       61.3030   51.4460   47.5820 C.3    92  C92         0.2309
   1976  O2'       60.9410   50.2580   48.2510 O.3    92  C92        -0.2156
   1977  C1'       60.1240   51.9870   46.7720 C.3    92  C92         0.2420
   1978  N1        60.5720   52.6210   45.5280 N.ar   92  C92        -0.2535
   1979  C2        61.3300   51.8580   44.6410 C.ar   92  C92         0.3532
   1980  O2        61.5720   50.6750   44.9300 O.2    92  C92        -0.2443
   1981  N3        61.7800   52.4200   43.4990 N.ar   92  C92        -0.1739
   1982  C4        61.4920   53.6950   43.2270 C.ar   92  C92         0.1759
   1983  N4        61.9680   54.2080   42.0900 N.pl3  92  C92        -0.1070
   1984  C5        60.7060   54.4970   44.1090 C.ar   92  C92         0.0566
   1985  C6        60.2700   53.9230   45.2410 C.ar   92  C92         0.0850
   1986  OP1       58.4440   57.3630   49.8910 O.3    92  C92        -0.4373
   1987  OP2       59.2310   56.6300   47.5480 O.co2  92  C92        -0.5172
   1988  P         63.6250   52.8650   50.1450 P.3    93  C93         0.2141
   1989  C5'       64.8530   50.5900   49.8030 C.3    93  C93         0.1812
   1990  O5'       64.7150   51.9530   49.4270 O.3    93  C93        -0.3114
   1991  C4'       65.8500   49.8900   48.9180 C.3    93  C93         0.1773
   1992  O4'       65.2670   49.6750   47.6130 O.3    93  C93        -0.3307
   1993  C3'       67.1400   50.6400   48.6490 C.3    93  C93         0.1860
   1994  O3'       68.0820   50.3230   49.6580 O.3    93  C93        -0.3112
   1995  C2'       67.5930   50.0210   47.3350 C.3    93  C93         0.2309
   1996  O2'       68.2780   48.8010   47.5250 O.3    93  C93        -0.2156
   1997  C1'       66.2620   49.8020   46.6220 C.3    93  C93         0.2420
   1998  N1        65.8820   50.9120   45.7460 N.ar   93  C93        -0.2535
   1999  C2        66.3870   50.9450   44.4560 C.ar   93  C93         0.3532
   2000  O2        67.1480   50.0380   44.0950 O.2    93  C93        -0.2443
   2001  N3        66.0370   51.9530   43.6310 N.ar   93  C93        -0.1739
   2002  C4        65.2130   52.9060   44.0630 C.ar   93  C93         0.1759
   2003  N4        64.8890   53.8880   43.2200 N.pl3  93  C93        -0.1070
   2004  C5        64.6830   52.8990   45.3810 C.ar   93  C93         0.0566
   2005  C6        65.0410   51.8930   46.1840 C.ar   93  C93         0.0850
   2006  OP1       63.7280   52.6490   51.6000 O.3    93  C93        -0.4373
   2007  OP2       63.7110   54.2440   49.6010 O.co2  93  C93        -0.5172
   2008  P         69.4820   51.1010   49.7110 P.3    94  G94         0.2141
   2009  C5'       71.7730   50.7300   48.4520 C.3    94  G94         0.1813
   2010  O5'       70.3540   50.4950   48.5100 O.3    94  G94        -0.3114
   2011  C4'       72.3990   50.0530   47.2400 C.3    94  G94         0.1801
   2012  O4'       71.3490   49.6440   46.3320 O.3    94  G94        -0.3306
   2013  C3'       73.3890   50.9200   46.4400 C.3    94  G94         0.2161
   2014  O3'       74.7270   50.4290   46.5350 O.3    94  G94        -0.2175
   2015  C2'       72.9440   50.7760   44.9890 C.3    94  G94         0.2337
   2016  O2'       73.7110   49.7800   44.3460 O.3    94  G94        -0.2155
   2017  C1'       71.4740   50.3600   45.1220 C.3    94  G94         0.2409
   2018  N1        68.9840   53.9150   42.4430 N.ar   94  G94        -0.1709
   2019  C2        69.8930   52.9770   42.0110 C.ar   94  G94         0.2606
   2020  N2        70.1690   52.9890   40.6960 N.pl3  94  G94        -0.0859
   2021  N3        70.4860   52.0980   42.8040 N.ar   94  G94        -0.1918
   2022  C4        70.0890   52.2280   44.0850 C.ar   94  G94         0.1723
   2023  C5        69.1880   53.1270   44.6190 C.ar   94  G94         0.1748
   2024  C6        68.5670   54.0760   43.7600 C.ar   94  G94         0.3023
   2025  O6        67.7560   54.9780   44.0520 O.2    94  G94        -0.2633
   2026  N7        69.0480   52.9310   45.9850 N.ar   94  G94        -0.2173
   2027  C8        69.8580   51.9450   46.2550 C.ar   94  G94         0.1817
   2028  N9        70.5190   51.4660   45.1510 N.ar   94  G94        -0.2693
   2029  OP1       70.1230   50.6760   50.9750 O.3    94  G94        -0.4373
   2030  OP2       69.2190   52.5430   49.4770 O.co2  94  G94        -0.5172
@<TRIPOS>BOND
     1   734   733    2
     2   737   719    2
     3   735   733   ar
     4   735   736   ar
     5   733   732   ar
     6   705   704    1
     7   736   729   ar
     8   732   730   ar
     9   703   719    1
    10   703   702    1
    11   719   738    1
    12   719   721    1
    13   729   730   ar
    14   729   728    1
    15   730   731    2
    16   704   702    1
    17   704   706    1
    18   702   700    1
    19   721   720    1
    20   723   728    1
    21   723   722    1
    22   720   722    1
    23   728   726    1
    24   706   716    1
    25   706   701    1
    26   722   724    1
    27   700   701    1
    28   700   698    1
    29   716   715   ar
    30   716   710   ar
    31   715   714   ar
    32   724   726    1
    33   724   725    1
    34   726   727    1
    35   756   755    2
    36   710   709   ar
    37   710   711   ar
    38   709   708   ar
    39   714   711   ar
    40   698   699    1
    41   699   697    1
    42   718   697    2
    43   711   712   ar
    44   717   697    1
    45   757   754   ar
    46   757   758   ar
    47   755   754   ar
    48   755   749   ar
    49   708   707   ar
    50   697   680    1
    51   754   753   ar
    52   712   707   ar
    53   712   713    1
    54   725   739    1
    55   749   750   ar
    56   758   759   ar
    57   761   739    2
    58   652   634    2
    59   753   759   ar
    60   753   752   ar
    61   759   748    1
    62   750   752   ar
    63   750   751    1
    64   691   690    2
    65   739   760    1
    66   739   741    1
    67   673   654    2
    68   653   634    1
    69   680   679    1
    70   632   614    2
    71   634   636    1
    72   634   620    1
    73   690   684   ar
    74   690   689   ar
    75   748   743    1
    76   748   746    1
    77   696   674    2
    78   743   742    1
    79   672   654    1
    80   684   685   ar
    81   291   292   ar
    82   291   296   ar
    83   741   740    1
    84   689   692   ar
    85   689   688   ar
    86   692   693   ar
    87   431   430    1
    88   654   640    1
    89   654   656    1
    90   679   681    1
    91   679   677    1
    92   292   293   ar
    93   685   686    1
    94   685   687   ar
    95   635   636    1
    96   635   637    1
    97   297   296    1
    98   681   682    1
    99   681   683    1
   100   620   619    1
   101   695   674    1
   102   296   295   ar
   103   633   614    1
   104   688   687   ar
   105   688   694   ar
   106   614   616    1
   107   614   597    1
   108   436   415    2
   109   435   415    1
   110   674   676    1
   111   674   660    1
   112   693   694   ar
   113   676   675    1
   114   430   425   ar
   115   430   429   ar
   116   742   740    1
   117   742   744    1
   118   747   746    1
   119   293   294   ar
   120   746   744    1
   121   409   408    2
   122   616   615    1
   123   694   683    1
   124   640   639    1
   125   432   429   ar
   126   432   433   ar
   127   425   426   ar
   128   656   655    1
   129   429   428   ar
   130   410   407   ar
   131   410   411   ar
   132   295   294   ar
   133   295   298   ar
   134   415   398    1
   135   415   417    1
   136   294   300   ar
   137   615   617    1
   138   408   407   ar
   139   408   402   ar
   140   639   637    1
   141   639   641    1
   142   619   617    1
   143   619   621    1
   144   683   678    1
   145   637   638    1
   146   421   420    1
   147   421   437    1
   148   677   675    1
   149   677   678    1
   150   433   434   ar
   151   669   668    1
   152   407   406   ar
   153   411   412   ar
   154   420   422    1
   155   420   418    1
   156  1607  1608   ar
   157  1607  1612   ar
   158   426   427   ar
   159  1608  1609   ar
   160   744   745    1
   161   397   398    1
   162   397   399    1
   163   397   395    1
   164   428   434   ar
   165   428   427   ar
   166   670   668   ar
   167   670   671   ar
   168   597   596    1
   169   660   659    1
   170   298   299   ar
   171   422   423    1
   172   422   424    1
   173   402   403   ar
   174   434   424    1
   175   612   591    2
   176   617   618    1
   177   668   667   ar
   178   454   453    2
   179   650   651   ar
   180   650   648   ar
   181   300   299   ar
   182   300   290    1
   183   655   657    1
   184   659   657    1
   185   659   661    1
   186   406   412   ar
   187   406   405   ar
   188   412   401    1
   189   399   401    1
   190   399   400    1
   191   393   395    1
   192   393   394    1
   193   651   644   ar
   194  1630  1631   ar
   195  1630  1629   ar
   196  1649  1648    1
   197   671   664   ar
   198   416   417    1
   199   416   418    1
   200   638   643    1
   201  1613  1612    1
   202  1609  1610   ar
   203  1612  1611   ar
   204   621   622    1
   205   621   623    1
   206   459   437    2
   207   403   405   ar
   208   403   404    1
   209   414   392    2
   210  1631  1632   ar
   211   290   285    1
   212   290   288    1
   213   649   648    1
   214   424   419    1
   215   418   419    1
   216   745   762    1
   217   289   288    1
   218   453   452   ar
   219   453   447   ar
   220   395   396    1
   221   437   458    1
   222   437   439    1
   223   648   647   ar
   224   592   593    1
   225   592   594    1
   226   641   643    1
   227   641   642    1
   228   667   665   ar
   229   401   396    1
   230   455   452   ar
   231   455   456   ar
   232   657   658    1
   233   596   594    1
   234   596   598    1
   235  1629  1634   ar
   236  1627  1626    1
   237   661   663    1
   238   661   662    1
   239   644   643    1
   240   644   645   ar
   241   664   665   ar
   242   664   663    1
   243   347   326    2
   244   452   451   ar
   245   447   448   ar
   246   593   591    1
   247   631   630   ar
   248   631   624   ar
   249   591   613    1
   250   591   574    1
   251   618   623    1
   252   285   284    1
   253   630   628   ar
   254   665   666    2
   255   394   392    1
   256  1644  1645    1
   257  1644  1646    1
   258  1644  1642    1
   259  1645  1650    1
   260  1610  1611   ar
   261  1610  1616   ar
   262   594   595    1
   263   367   349    2
   264  1650  1648    1
   265  1650  1660    1
   266   288   286    1
   267  1611  1614   ar
   268   456   457   ar
   269  1648  1646    1
   270   647   645   ar
   271  1647  1646    1
   272  1647  1663    1
   273   392   413    1
   274   392   375    1
   275   658   663    1
   276   623   624    1
   277   645   646    2
   278  1653  1652   ar
   279  1653  1654   ar
   280   624   625   ar
   281  1632  1638   ar
   282  1632  1633   ar
   283   451   457   ar
   284   451   450   ar
   285   448   449    1
   286   448   450   ar
   287   391   369    2
   288   439   438    1
   289   780   779   ar
   290   780   781   ar
   291  1628  1626    1
   292  1628  1638    1
   293  1628  1623    1
   294   386   385    2
   295   779   776   ar
   296  1681  1663    2
   297   390   369    1
   298   599   598    1
   299   628   629    1
   300   628   627   ar
   301  1642  1643    1
   302  1626  1624    1
   303   457   446    1
   304   598   600    1
   305   477   476    2
   306   766   771    1
   307   766   765    1
   308  1652  1651   ar
   309  1634  1633   ar
   310  1634  1635    1
   311   762   783    2
   312   762   782    1
   313   762   764    1
   314   287   286    1
   315   287   303    1
   316   324   303    2
   317   387   384   ar
   318   387   388   ar
   319   326   328    1
   320   326   348    1
   321   326   309    1
   322   574   573    1
   323  1616  1606    1
   324  1616  1615   ar
   325  1638  1637   ar
   326   625   627   ar
   327   625   626    2
   328   286   284    1
   329  1614  1615   ar
   330   284   282    1
   331   441   446    1
   332   441   440    1
   333   368   349    1
   334  1660  1654   ar
   335  1660  1659   ar
   336   328   327    1
   337   781   771    1
   338   781   775   ar
   339   369   371    1
   340   369   355    1
   341   385   384   ar
   342   385   379   ar
   343  1633  1636   ar
   344   349   351    1
   345   349   332    1
   346  1654  1655   ar
   347  1663  1682    1
   348  1663  1665    1
   349  1623  1622    1
   350   771   769    1
   351   776   775   ar
   352   776   777   ar
   353   476   470   ar
   354   476   475   ar
   355  1605  1604    1
   356   384   383   ar
   357   595   600    1
   358   438   440    1
   359   763   764    1
   360   763   765    1
   361   305   304    1
   362   305   303    1
   363  1606  1604    1
   364  1606  1601    1
   365   388   389   ar
   366   778   777    1
   367   446   444    1
   368   327   329    1
   369   371   370    1
   370   304   306    1
   371   375   374    1
   372   470   471   ar
   373   303   325    1
   374   775   774   ar
   375   374   376    1
   376   374   372    1
   377   765   767    1
   378   777   772   ar
   379   379   380   ar
   380  1604  1602    1
   381  1643  1641    1
   382  1651  1656   ar
   383   600   611    1
   384  1622  1624    1
   385  1622  1620    1
   386   351   350    1
   387  1624  1625    1
   388  1625  1641    1
   389   475   478   ar
   390   475   474   ar
   391   283   282    1
   392   283   281    1
   393   440   442    1
   394   309   308    1
   395   478   479   ar
   396   576   575    1
   397   383   389   ar
   398   383   382   ar
   399   376   378    1
   400   376   377    1
   401  1637  1636   ar
   402   389   378    1
   403  1309  1310   ar
   404  1309  1314   ar
   405  1659  1658   ar
   406   332   331    1
   407  1310  1311   ar
   408   471   472    1
   409   471   473   ar
   410   573   575    1
   411   573   571    1
   412  1665  1664    1
   413  1664  1666    1
   414   611   610   ar
   415   611   605   ar
   416   774   773   ar
   417  1655  1656   ar
   418  1655  1658   ar
   419   610   609   ar
   420   772   773   ar
   421   370   372    1
   422  1661  1641    2
   423   500   499    2
   424   380   382   ar
   425   380   381    1
   426  1601  1600    1
   427   355   354    1
   428   306   308    1
   429   306   307    1
   430  1667  1666    1
   431  1667  1672    1
   432   575   577    1
   433  1641  1662    1
   434  1666  1668    1
   435   329   331    1
   436   329   330    1
   437   301   281    2
   438  1656  1657    1
   439   769   770    1
   440   769   767    1
   441   474   473   ar
   442   474   480   ar
   443   372   373    1
   444  1315  1314    1
   445   479   480   ar
   446   444   442    1
   447   444   445    1
   448   442   443    1
   449   605   604   ar
   450   605   606   ar
   451  1314  1313   ar
   452   378   373    1
   453   609   606   ar
   454   308   310    1
   455   767   768    1
   456  1311  1312   ar
   457   493   499   ar
   458   493   494   ar
   459   350   352    1
   460   604   602   ar
   461   331   333    1
   462   499   498   ar
   463  1620  1621    1
   464   281   302    1
   465   281   264    1
   466   606   607   ar
   467   354   352    1
   468   354   356    1
   469   571   569    1
   470   571   572    1
   471   480   469    1
   472  1602  1600    1
   473  1602  1603    1
   474   495   494    1
   475   589   568    2
   476  1672  1670    1
   477  1672  1673    1
   478  1332  1333   ar
   479  1332  1331   ar
   480   602   603    1
   481   602   601   ar
   482  1600  1598    1
   483   569   570    1
   484   494   496   ar
   485  1671  1670    1
   486  1312  1313   ar
   487  1312  1318   ar
   488  1313  1316   ar
   489   307   312    1
   490   365   366   ar
   491   365   363   ar
   492   330   335    1
   493  1621  1619    1
   494   570   568    1
   495  1333  1334   ar
   496   607   601   ar
   497   607   608    2
   498   590   568    1
   499   352   353    1
   500  1603  1619    1
   501   768   784    1
   502   498   501   ar
   503   498   497   ar
   504  1668  1669    1
   505  1668  1670    1
   506   800   799    1
   507   364   363    2
   508  1669  1683    1
   509   366   359   ar
   510   577   572    1
   511   577   588    1
   512   568   554    1
   513   264   263    1
   514  1331  1336   ar
   515   443   460    1
   516   469   464    1
   517   469   467    1
   518  1582  1581    1
   519   363   362   ar
   520   464   463    1
   521  1680  1673   ar
   522  1680  1679   ar
   523   311   310    1
   524   310   312    1
   525  1599  1598    1
   526  1599  1597    1
   527   266   265    1
   528   356   357    1
   529   356   358    1
   530   501   502   ar
   531  1673  1674   ar
   532   801   798   ar
   533   801   802   ar
   534   496   497   ar
   535   333   334    1
   536   333   335    1
   537   482   460    2
   538  1318  1308    1
   539  1318  1317   ar
   540  1316  1317   ar
   541  1329  1328    1
   542   497   503   ar
   543   588   587   ar
   544   588   582   ar
   545   799   798   ar
   546   799   794   ar
   547   345   344   ar
   548   345   346   ar
   549  1334  1340   ar
   550  1334  1335   ar
   551  1308  1306    1
   552  1308  1303    1
   553  1586  1585    1
   554   798   797   ar
   555   312   323    1
   556  1619  1640    2
   557  1619  1639    1
   558   587   586   ar
   559   359   358    1
   560   359   360   ar
   561   802   803   ar
   562   353   358    1
   563  1330  1325    1
   564  1330  1340    1
   565  1330  1328    1
   566   335   346    1
   567  1395  1394    2
   568   462   460    1
   569   462   461    1
   570   581   582   ar
   571   581   579   ar
   572  1307  1306    1
   573   362   360   ar
   574   582   583   ar
   575  1617  1597    2
   576  1704  1683    2
   577   460   481    1
   578  1679  1677   ar
   579   805   784    2
   580   344   341   ar
   581  1336  1335   ar
   582  1336  1337    1
   583   346   340   ar
   584   794   795   ar
   585   265   263    1
   586   265   267    1
   587  1325  1324    1
   588   502   503   ar
   589   322   323   ar
   590   322   321   ar
   591   822   821    1
   592  1340  1339   ar
   593   263   261    1
   594   586   583   ar
   595   784   786    1
   596   784   804    1
   597   360   361    2
   598  1683  1705    1
   599  1683  1685    1
   600  1597  1580    1
   601  1597  1618    1
   602  1580  1579    1
   603   579   580    1
   604   579   578   ar
   605   323   317   ar
   606  1674  1675    2
   607  1674  1676   ar
   608   503   492    1
   609  1581  1579    1
   610  1581  1583    1
   611   583   584   ar
   612  1306  1304    1
   613  1335  1338   ar
   614  1328  1326    1
   615   797   803   ar
   616   797   796   ar
   617   461   463    1
   618   803   793    1
   619   467   465    1
   620   467   468    1
   621  1396  1394   ar
   622  1396  1397   ar
   623   463   465    1
   624  1394  1393   ar
   625   554   553    1
   626  1303  1302    1
   627   788   793    1
   628   788   787    1
   629   816   821   ar
   630   816   817   ar
   631   795   796   ar
   632  1587  1585   ar
   633  1587  1588   ar
   634   578   584   ar
   635  1585  1584   ar
   636   341   340   ar
   637   341   342   ar
   638   321   318   ar
   639  1684  1685    1
   640  1684  1686    1
   641   340   339   ar
   642   584   585    2
   643   821   820   ar
   644  1415  1414    2
   645   786   785    1
   646  1324  1326    1
   647  1324  1322    1
   648   465   466    1
   649  1677  1676   ar
   650  1677  1678    1
   651   785   787    1
   652  1579  1577    1
   653   793   791    1
   654   317   318   ar
   655   317   316   ar
   656  1398  1397    1
   657  1339  1338   ar
   658  1397  1399   ar
   659   492   487    1
   660   492   490    1
   661  1583  1578    1
   662  1583  1594    1
   663   261   259    1
   664   261   262    1
   665   817   818   ar
   666  1393  1392    1
   667  1393  1400   ar
   668  1392  1387    1
   669  1392  1390    1
   670   318   319   ar
   671   339   337   ar
   672   342   343    2
   673   342   336   ar
   674  1414  1416   ar
   675  1414  1413   ar
   676  1326  1327    1
   677   267   262    1
   678   267   278    1
   679   553   555    1
   680   553   551    1
   681  1412  1407    1
   682  1412  1413    1
   683  1412  1410    1
   684   316   314   ar
   685  1577  1578    1
   686  1577  1575    1
   687   787   789    1
   688   556   555    1
   689  1411  1410    1
   690   487   486    1
   691   820   823   ar
   692   820   819   ar
   693  1416  1417   ar
   694  1302  1304    1
   695  1302  1300    1
   696  1407  1406    1
   697  1391  1390    1
   698  1327  1343    1
   699   555   557    1
   700  1584  1590   ar
   701  1304  1305    1
   702  1686  1687    1
   703  1686  1688    1
   704  1322  1323    1
   705  1413  1420   ar
   706  1588  1594   ar
   707  1588  1589   ar
   708   566   548    2
   709   567   548    1
   710  1687  1692    1
   711  1387  1386    1
   712  1361  1343    2
   713   259   260    1
   714   337   336   ar
   715   337   338    1
   716  1399  1400   ar
   717   823   824   ar
   718  1594  1593   ar
   719   818   819   ar
   720   260   258    1
   721   319   320    2
   722   319   313   ar
   723   278   277   ar
   724   278   272   ar
   725  1362  1343    1
   726  1390  1388    1
   727   314   313   ar
   728   314   315    1
   729   819   825   ar
   730  1417  1418    1
   731  1417  1419   ar
   732  1410  1408    1
   733   466   483    1
   734  1343  1345    1
   735   548   550    1
   736   548   534    1
   737  1301  1300    1
   738  1301  1299    1
   739  1563  1562    1
   740   490   491    1
   741   490   488    1
   742   505   483    2
   743  1320  1299    2
   744   277   276   ar
   745   550   549    1
   746  1420  1419   ar
   747   280   258    2
   748  1323  1321    1
   749  1305  1321    1
   750   791   789    1
   751   791   792    1
   752   279   258    1
   753   271   272   ar
   754   271   269   ar
   755   789   790    1
   756  1575  1576    1
   757  1406  1408    1
   758  1406  1404    1
   759   272   273   ar
   760   485   483    1
   761   485   484    1
   762   551   549    1
   763   551   552    1
   764   258   242    1
   765   824   825   ar
   766  1589  1590   ar
   767  1589  1592   ar
   768  1590  1591    2
   769   843   842    1
   770  1702  1703   ar
   771  1702  1701   ar
   772   486   488    1
   773   486   484    1
   774   825   815    1
   775   483   504    1
   776   276   273   ar
   777  1386  1388    1
   778  1386  1384    1
   779  1692  1703    1
   780  1692  1690    1
   781   557   558    1
   782   557   552    1
   783  1299  1319    1
   784  1299  1285    1
   785  1688  1689    1
   786  1688  1690    1
   787   269   270    1
   788   269   268   ar
   789   546   528    2
   790  1427  1432    1
   791  1427  1426    1
   792   565   558   ar
   793   565   564   ar
   794   273   274   ar
   795  1561  1562   ar
   796  1561  1567   ar
   797  1562  1564   ar
   798  1593  1592   ar
   799   558   559   ar
   800  1431  1430    1
   801   488   489    1
   802  1408  1409    1
   803   564   562   ar
   804  1435  1434    2
   805  1689  1706    1
   806  1321  1341    2
   807  1321  1342    1
   808  1404  1405    1
   809  1388  1389    1
   810   841   842   ar
   811   841   839   ar
   812  1432  1433    1
   813  1432  1430    1
   814  1703  1697   ar
   815  1426  1424    1
   816  1426  1428    1
   817  1701  1698   ar
   818   559   560    2
   819   559   561   ar
   820   547   528    1
   821   562   561   ar
   822   562   563    2
   823   842   844   ar
   824   268   274   ar
   825  1576  1574    1
   826   790   806    1
   827  1359  1360   ar
   828  1359  1357   ar
   829   534   533    1
   830   274   275    2
   831  1345  1344    1
   832   815   810    1
   833   815   813    1
   834  1690  1691    1
   835  1568  1567    2
   836   528   530    1
   837   528   512    1
   838  1409  1423    1
   839  1424  1425    1
   840  1384  1385    1
   841  1358  1357    2
   842  1434  1433   ar
   843  1434  1436   ar
   844  1405  1403    1
   845   840   839    2
   846   530   529    1
   847  1567  1566   ar
   848   810   809    1
   849  1564  1565   ar
   850  1433  1440   ar
   851  1430  1428    1
   852   256   236    2
   853   839   838   ar
   854   860   859    2
   855  1725  1706    2
   856   861   859   ar
   857   861   862   ar
   858   242   241    1
   859  1389  1403    1
   860   863   862    1
   861  1385  1383    1
   862  1285  1284    1
   863  1697  1698   ar
   864  1697  1696   ar
   865  1360  1353   ar
   866  1698  1699   ar
   867  1357  1356   ar
   868  1706  1724    1
   869  1706  1708    1
   870  1344  1346    1
   871   526   506    2
   872  1436  1437   ar
   873   533   535    1
   874   533   531    1
   875   489   506    1
   876  1428  1429    1
   877  1287  1286    1
   878   257   236    1
   879  1429  1443    1
   880  1595  1574    2
   881   859   858   ar
   882   844   845   ar
   883   234   213    2
   884  1425  1423    1
   885   862   864   ar
   886   880   879    2
   887   808   806    1
   888   808   807    1
   889  1440  1439   ar
   890   238   236    1
   891   238   237    1
   892  1565  1566   ar
   893  1565  1571   ar
   894   236   219    1
   895  1566  1569   ar
   896  1574  1596    1
   897  1574  1557    1
   898   827   806    2
   899   529   531    1
   900   806   826    1
   901  1559  1558    1
   902  1403  1422    2
   903  1403  1421    1
   904   241   239    1
   905   241   243    1
   906  1423  1441    2
   907  1423  1442    1
   908   507   508    1
   909   507   509    1
   910   813   814    1
   911   813   811    1
   912  1696  1694   ar
   913   838   845   ar
   914   838   837    1
   915  1437  1439   ar
   916  1437  1438    2
   917  1286  1284    1
   918  1286  1288    1
   919   512   511    1
   920   237   239    1
   921  1699  1700    2
   922  1699  1693   ar
   923   535   536    1
   924   535   537    1
   925   809   807    1
   926   809   811    1
   927   506   508    1
   928   506   527    1
   929  1558  1560    1
   930  1558  1556    1
   931  1445  1443    1
   932  1445  1444    1
   933   881   879   ar
   934   881   882   ar
   935   879   878   ar
   936  1284  1282    1
   937   531   532    1
   938   235   213    1
   939  1447  1446    1
   940  1447  1452    1
   941  1708  1707    1
   942   858   857    1
   943   858   865   ar
   944  1353  1352    1
   945  1353  1354   ar
   946  1356  1354   ar
   947  1383  1401    2
   948  1383  1402    1
   949  1383  1369    1
   950   213   197    1
   951   213   215    1
   952   864   865   ar
   953  1571  1560    1
   954  1571  1570   ar
   955   811   812    1
   956  1346  1347    1
   957  1346  1348    1
   958  1443  1464    2
   959  1443  1465    1
   960   239   240    1
   961  1569  1570   ar
   962   254   253   ar
   963   254   255   ar
   964   545   544   ar
   965   545   538   ar
   966  1694  1693   ar
   967  1694  1695    1
   968  1557  1556    1
   969   511   509    1
   970   511   513    1
   971   544   542   ar
   972   243   244    1
   973   243   245    1
   974   837   832    1
   975   837   835    1
   976  1347  1352    1
   977  1722  1723   ar
   978  1722  1720   ar
   979   883   882    1
   980  1446  1444    1
   981  1446  1448    1
   982   253   250   ar
   983  1452  1463    1
   984  1452  1450    1
   985  1484  1466    2
   986   882   884   ar
   987   896   895    1
   988  1560  1555    1
   989   509   510    1
   990   211   191    2
   991   857   852    1
   992   857   855    1
   993  1707  1709    1
   994  1350  1352    1
   995  1350  1348    1
   996  1350  1351    1
   997   900   899    1
   998   878   877    1
   999   878   885   ar
  1000  1556  1554    1
  1001   877   872    1
  1002   877   875    1
  1003  1721  1720    2
  1004   219   218    1
  1005  1291  1290    2
  1006   538   537    1
  1007   538   539   ar
  1008  1455  1454    1
  1009   537   532    1
  1010  1354  1355    2
  1011  1348  1349    1
  1012  1369  1368    1
  1013  1456  1454   ar
  1014  1456  1457   ar
  1015   542   543    1
  1016   542   541   ar
  1017  1282  1280    1
  1018  1282  1283    1
  1019  1723  1716   ar
  1020   832   831    1
  1021  1451  1450    1
  1022   197   196    1
  1023   897   892    1
  1024   897   895    1
  1025   897   908    1
  1026   901   899   ar
  1027   901   902   ar
  1028  1463  1457   ar
  1029  1463  1462   ar
  1030  1454  1453   ar
  1031  1720  1719   ar
  1032  1288  1289    1
  1033  1288  1283    1
  1034   876   875    1
  1035   892   891    1
  1036  1485  1466    1
  1037  1457  1458   ar
  1038   215   214    1
  1039   872   871    1
  1040   899   898   ar
  1041   539   541   ar
  1042   539   540    2
  1043   852   851    1
  1044   255   245    1
  1045   255   249   ar
  1046   884   885   ar
  1047   240   245    1
  1048   214   216    1
  1049  1462  1461   ar
  1050  1453  1459   ar
  1051  1710  1709    1
  1052  1710  1715    1
  1053  1290  1289   ar
  1054  1290  1292   ar
  1055  1450  1448    1
  1056  1466  1449    1
  1057  1466  1468    1
  1058   835   836    1
  1059   835   833    1
  1060   218   216    1
  1061   218   220    1
  1062   895   893    1
  1063   812   828    1
  1064  1458  1459   ar
  1065  1458  1461   ar
  1066   856   855    1
  1067   875   873    1
  1068   855   853    1
  1069   193   192    1
  1070   193   191    1
  1071   250   249   ar
  1072   250   251   ar
  1073   902   908   ar
  1074   902   903   ar
  1075   908   907   ar
  1076  1289  1296   ar
  1077  1280  1281    1
  1078   192   194    1
  1079   891   893    1
  1080   891   889    1
  1081   513   514    1
  1082   513   515    1
  1083  1459  1460    2
  1084   191   212    1
  1085   191   175    1
  1086   510   515    1
  1087  1448  1449    1
  1088  1297  1279    2
  1089  1709  1711    1
  1090   847   828    2
  1091  1371  1370    1
  1092  1555  1554    1
  1093  1554  1552    1
  1094   252   251    1
  1095   898   904   ar
  1096  1716  1715    1
  1097  1716  1717   ar
  1098  1281  1279    1
  1099  1382  1363    2
  1100   915   914    1
  1101   915   920    1
  1102  1719  1717   ar
  1103  1292  1293   ar
  1104   196   194    1
  1105   196   198    1
  1106  1546  1545    1
  1107   216   217    1
  1108  1349  1363    1
  1109   249   248   ar
  1110   830   828    1
  1111   830   829    1
  1112  1368  1370    1
  1113  1368  1366    1
  1114   831   833    1
  1115   831   829    1
  1116   251   246   ar
  1117   871   873    1
  1118   871   869    1
  1119   919   918    1
  1120   914   912    1
  1121   914   916    1
  1122   828   846    1
  1123   194   195    1
  1124   907   906   ar
  1125   903   904   ar
  1126   903   906   ar
  1127   893   894    1
  1128  1296  1295   ar
  1129  1715  1713    1
  1130   833   834    1
  1131   515   525    1
  1132  1279  1298    1
  1133  1279  1265    1
  1134   889   890    1
  1135  1468  1467    1
  1136   524   525   ar
  1137   524   523   ar
  1138   920   918    1
  1139   920   931    1
  1140  1717  1718    2
  1141   912   913    1
  1142   851   853    1
  1143   851   849    1
  1144  1370  1372    1
  1145   904   905    2
  1146   220   221    1
  1147   220   222    1
  1148   894   911    1
  1149  1711  1713    1
  1150  1711  1712    1
  1151   525   519   ar
  1152   853   854    1
  1153   873   874    1
  1154  1545  1544   ar
  1155  1545  1547   ar
  1156  1363  1365    1
  1157  1363  1381    1
  1158  1293  1295   ar
  1159  1293  1294    1
  1160  1544  1542   ar
  1161   175   174    1
  1162   180   181   ar
  1163   180   179   ar
  1164  1366  1364    1
  1165  1366  1367    1
  1166   523   520   ar
  1167   181   182   ar
  1168  1365  1364    1
  1169   232   231   ar
  1170   232   233   ar
  1171  1553  1552    1
  1172  1553  1551    1
  1173   173   172    1
  1174   173   178    1
  1175  1507  1486    2
  1176   231   228   ar
  1177   172   174    1
  1178   172   170    1
  1179   918   916    1
  1180   199   198    1
  1181   869   870    1
  1182   248   247   ar
  1183   198   200    1
  1184   849   850    1
  1185   519   520   ar
  1186   519   518   ar
  1187   890   888    1
  1188   217   222    1
  1189  1482  1483   ar
  1190  1482  1480   ar
  1191   931   930   ar
  1192   931   925   ar
  1193   850   848    1
  1194   246   247   ar
  1195  1547  1548   ar
  1196   520   521   ar
  1197   916   917    1
  1198  1713  1714    1
  1199  1712  1726    1
  1200  1573  1551    2
  1201   917   934    1
  1202   913   911    1
  1203  1542  1543    2
  1204  1542  1541   ar
  1205   874   888    1
  1206  1741  1740    2
  1207  1502  1501    1
  1208  1481  1480    1
  1209   233   222    1
  1210   233   227   ar
  1211   870   868    1
  1212  1745  1726    2
  1213   518   517   ar
  1214  1467  1469    1
  1215   834   848    1
  1216   924   925   ar
  1217   924   922   ar
  1218   195   200    1
  1219   179   184   ar
  1220   174   176    1
  1221   178   188    1
  1222   178   176    1
  1223   930   929   ar
  1224  1483  1476   ar
  1225   925   926   ar
  1226   854   868    1
  1227   911   932    2
  1228   911   933    1
  1229  1265  1264    1
  1230   170   171    1
  1231  1372  1367    1
  1232  1372  1373    1
  1233   935   937    1
  1234   935   936    1
  1235  1551  1572    1
  1236  1551  1537    1
  1237   867   848    2
  1238   521   522    1
  1239   521   516   ar
  1240   228   227   ar
  1241   228   229   ar
  1242  1480  1479   ar
  1243   938   937    1
  1244   938   943    1
  1245  1548  1541   ar
  1246   937   939    1
  1247   182   188   ar
  1248   182   183   ar
  1249  1541  1540    1
  1250  1503  1500   ar
  1251  1503  1504   ar
  1252   517   516   ar
  1253   923   922    1
  1254   848   866    1
  1255   200   210    1
  1256   922   921   ar
  1257   888   909    2
  1258   888   910    1
  1259  1740  1742   ar
  1260  1740  1739   ar
  1261   227   226   ar
  1262  1538  1539    1
  1263  1538  1540    1
  1264  1538  1536    1
  1265  1726  1744    1
  1266  1726  1728    1
  1267  1486  1472    1
  1268  1486  1506    1
  1269  1486  1488    1
  1270   230   229    2
  1271  1742  1743   ar
  1272  1471  1472    1
  1273  1471  1469    1
  1274  1471  1473    1
  1275   952   934    2
  1276   188   187   ar
  1277   929   926   ar
  1278  1375  1374    2
  1279   229   223   ar
  1280   926   927   ar
  1281   176   177    1
  1282  1501  1500   ar
  1283  1501  1496   ar
  1284   868   887    2
  1285   868   886    1
  1286   936   934    1
  1287   209   210   ar
  1288   209   208   ar
  1289   934   953    1
  1290   942   941    1
  1291  1469  1470    1
  1292  1267  1266    1
  1293  1264  1266    1
  1294  1264  1262    1
  1295   210   204   ar
  1296  1540  1535    1
  1297  1500  1499   ar
  1298  1504  1505   ar
  1299  1266  1268    1
  1300  1525  1524    2
  1301   943   941    1
  1302   943   944    1
  1303   184   183   ar
  1304   184   185    1
  1305  1530  1508    2
  1306  1373  1374   ar
  1307  1373  1380   ar
  1308   921   927   ar
  1309  1476  1475    1
  1310  1476  1477   ar
  1311  1550  1531    2
  1312   183   186   ar
  1313   226   224   ar
  1314  1739  1737   ar
  1315   171   169    1
  1316  1470  1475    1
  1317  1479  1477   ar
  1318  1488  1487    1
  1319  1374  1376   ar
  1320  1536  1537    1
  1321  1536  1534    1
  1322   927   928    2
  1323   208   205   ar
  1324  1510  1509    1
  1325  1510  1508    1
  1326  1743  1736   ar
  1327  1763  1762    2
  1328   940   939    1
  1329   940   954    1
  1330   939   941    1
  1331   223   224   ar
  1332  1526  1523   ar
  1333  1526  1527   ar
  1334  1509  1511    1
  1335  1728  1727    1
  1336  1473  1475    1
  1337  1473  1474    1
  1338  1487  1489    1
  1339   190   169    2
  1340  1496  1497   ar
  1341  1801  1802   ar
  1342  1801  1806   ar
  1343   224   225    1
  1344   204   205   ar
  1345   204   203   ar
  1346  1477  1478    2
  1347  1271  1270    2
  1348  1802  1803   ar
  1349  1380  1379   ar
  1350  1785  1784    1
  1351   951   944   ar
  1352   951   950   ar
  1353   187   186   ar
  1354  1524  1523   ar
  1355  1524  1518   ar
  1356   944   945   ar
  1357   205   206   ar
  1358  1508  1529    1
  1359  1508  1492    1
  1360  1270  1272   ar
  1361  1270  1269   ar
  1362  1499  1505   ar
  1363  1499  1498   ar
  1364  1523  1522   ar
  1365  1505  1495    1
  1366  1527  1528   ar
  1367  1737  1736   ar
  1368  1737  1738    2
  1369  1272  1273   ar
  1370   203   202   ar
  1371  1736  1735    1
  1372  1535  1534    1
  1373  1262  1260    1
  1374  1262  1263    1
  1375   169   155    1
  1376   169   189    1
  1377  1376  1377   ar
  1378  1824  1825   ar
  1379  1824  1823   ar
  1380  1821  1820    1
  1381  1268  1269    1
  1382  1268  1263    1
  1383  1825  1826   ar
  1384   157   156    1
  1385  1269  1276   ar
  1386  1779  1784   ar
  1387  1779  1780   ar
  1388  1843  1842    1
  1389  1531  1514    1
  1390  1531  1533    1
  1391  1531  1549    1
  1392  1762  1756   ar
  1393  1762  1761   ar
  1394  1261  1260    1
  1395  1261  1259    1
  1396   974   954    2
  1397  1727  1729    1
  1398  1273  1274    1
  1399  1273  1275   ar
  1400  1807  1806    1
  1401  1491  1489    1
  1402  1491  1492    1
  1403  1491  1493    1
  1404  1534  1532    1
  1405   950   948   ar
  1406  1489  1490    1
  1407  1806  1805   ar
  1408  1497  1498   ar
  1409  1784  1783   ar
  1410  1513  1514    1
  1411  1513  1511    1
  1412  1513  1515    1
  1413  1490  1495    1
  1414  1730  1735    1
  1415  1730  1729    1
  1416   954   975    1
  1417   954   956    1
  1418   155   154    1
  1419  1518  1519   ar
  1420  1511  1512    1
  1421  1803  1804   ar
  1422   945   946    2
  1423   945   947   ar
  1424  1379  1377   ar
  1425  1276  1275   ar
  1426   206   207    1
  1427   206   201   ar
  1428  1533  1532    1
  1429   202   201   ar
  1430  1823  1828   ar
  1431  1756  1757   ar
  1432  1377  1378    2
  1433  1277  1259    2
  1434  1528  1522   ar
  1435  1528  1517    1
  1436  1839  1838    1
  1437  1839  1844    1
  1438  1495  1493    1
  1439  1522  1521   ar
  1440  1822  1820    1
  1441  1822  1817    1
  1442  1822  1832    1
  1443  1838  1836    1
  1444  1838  1840    1
  1445  1735  1733    1
  1446  1844  1842    1
  1447  1844  1855    1
  1448  1764  1761   ar
  1449  1764  1765   ar
  1450  1278  1259    1
  1451  1780  1781   ar
  1452  1820  1818    1
  1453   156   154    1
  1454   156   158    1
  1455  1512  1517    1
  1456  1826  1832   ar
  1457  1826  1827   ar
  1458  1259  1242    1
  1459  1761  1760   ar
  1460  1493  1494    1
  1461  1729  1731    1
  1462   948   947   ar
  1463   948   949    1
  1464  1859  1861    1
  1465  1859  1860    1
  1466  1862  1861    1
  1467  1862  1867    1
  1468   955   956    1
  1469   955   957    1
  1470  1842  1840    1
  1471  1861  1863    1
  1472  1847  1846    1
  1473  1804  1805   ar
  1474  1804  1810   ar
  1475  1817  1816    1
  1476  1805  1808   ar
  1477  1519  1521   ar
  1478  1519  1520    1
  1479  1836  1837    1
  1480  1832  1831   ar
  1481   154   152    1
  1482  1848  1846   ar
  1483  1848  1849   ar
  1484  1841  1840    1
  1485  1841  1858    1
  1486  1783  1786   ar
  1487  1783  1782   ar
  1488  1515  1517    1
  1489  1515  1516    1
  1490  1731  1733    1
  1491  1731  1732    1
  1492  1828  1827   ar
  1493  1828  1829    1
  1494  1866  1865    1
  1495  1846  1845   ar
  1496  1827  1830   ar
  1497  1757  1758    1
  1498  1757  1759   ar
  1499  1855  1849   ar
  1500  1855  1854   ar
  1501   958   957    1
  1502   958   963    1
  1503  1733  1734    1
  1504  1816  1818    1
  1505  1816  1814    1
  1506   161   160    2
  1507  1765  1766   ar
  1508  1867  1865    1
  1509  1867  1877    1
  1510  1786  1787   ar
  1511  1849  1850   ar
  1512  1781  1782   ar
  1513   957   959    1
  1514   158   153    1
  1515   158   159    1
  1516  1818  1819    1
  1517  1878  1858    2
  1518  1248  1247    1
  1519   152   153    1
  1520   152   150    1
  1521  1760  1759   ar
  1522  1760  1766   ar
  1523  1768  1746    2
  1524  1860  1858    1
  1525  1782  1788   ar
  1526  1242  1241    1
  1527  1819  1835    1
  1528  1831  1830   ar
  1529  1246  1247   ar
  1530  1246  1252   ar
  1531  1810  1800    1
  1532  1810  1809   ar
  1533  1864  1863    1
  1534  1864  1880    1
  1535  1808  1809   ar
  1536  1863  1865    1
  1537  1858  1879    1
  1538  1837  1835    1
  1539  1247  1249   ar
  1540   972   971   ar
  1541   972   973   ar
  1542  1253  1252    2
  1543  1799  1798    1
  1544  1732  1746    1
  1545  1854  1853   ar
  1546   971   968   ar
  1547   160   159   ar
  1548   160   162   ar
  1549  1845  1851   ar
  1550  1252  1251   ar
  1551  1766  1755    1
  1552  1800  1798    1
  1553  1800  1795    1
  1554   159   166   ar
  1555  1877  1876   ar
  1556  1877  1871   ar
  1557   963   973    1
  1558   963   961    1
  1559  1850  1851   ar
  1560  1850  1853   ar
  1561  1798  1796    1
  1562  1249  1250   ar
  1563   973   967   ar
  1564  1241  1243    1
  1565  1241  1239    1
  1566   150   151    1
  1567  1814  1815    1
  1568  1787  1788   ar
  1569  1243  1244    1
  1570  1243  1245    1
  1571  1746  1748    1
  1572  1746  1767    1
  1573  1835  1856    2
  1574  1835  1857    1
  1575  1251  1250   ar
  1576  1251  1254   ar
  1577  1876  1875   ar
  1578  1788  1778    1
  1579   968   967   ar
  1580   968   969   ar
  1581   162   163   ar
  1582  1851  1852    2
  1583  1898  1880    2
  1584  1250  1256   ar
  1585   959   960    1
  1586   959   961    1
  1587  1870  1871   ar
  1588  1870  1869   ar
  1589  1871  1872   ar
  1590   967   966   ar
  1591   970   969    1
  1592  1748  1747    1
  1593  1881  1882    1
  1594  1881  1883    1
  1595  1880  1882    1
  1596  1880  1899    1
  1597   166   165   ar
  1598  1254  1255   ar
  1599   151   149    1
  1600   969   964   ar
  1601   960   976    1
  1602  1795  1794    1
  1603  1256  1255   ar
  1604  1256  1245    1
  1605  1815  1813    1
  1606   961   962    1
  1607  1755  1750    1
  1608  1755  1753    1
  1609  1875  1872   ar
  1610   163   165   ar
  1611   163   164    1
  1612  1258  1236    2
  1613   966   965   ar
  1614  1750  1749    1
  1615  1869  1868   ar
  1616  1245  1240    1
  1617  1238  1237    1
  1618  1238  1236    1
  1619  1872  1873   ar
  1620   167   149    2
  1621  1796  1794    1
  1622  1796  1797    1
  1623  1884  1883    1
  1624  1884  1889    1
  1625  1239  1237    1
  1626  1239  1240    1
  1627   964   965   ar
  1628  1257  1236    1
  1629  1778  1776    1
  1630  1778  1773    1
  1631  1883  1885    1
  1632   997   976    2
  1633  1236  1222    1
  1634  1747  1749    1
  1635   149   168    1
  1636   149   135    1
  1637  1794  1792    1
  1638  1797  1813    1
  1639   976   998    1
  1640   976   978    1
  1641  1753  1751    1
  1642  1753  1754    1
  1643  1868  1873   ar
  1644  1776  1777    1
  1645  1776  1774    1
  1646  1751  1749    1
  1647  1751  1752    1
  1648  1873  1874    1
  1649  1813  1833    2
  1650  1813  1834    1
  1651  1773  1772    1
  1652   137   136    1
  1653    23     1    1
  1654  1790  1769    2
  1655  1889  1890    1
  1656  1889  1887    1
  1657   141   140    2
  1658   993   992    2
  1659   136   134    1
  1660   136   138    1
  1661   135   134    1
  1662  1897  1890   ar
  1663  1897  1896   ar
  1664  1885  1886    1
  1665  1885  1887    1
  1666  1231  1230    2
  1667  1774  1772    1
  1668  1774  1775    1
  1669  1793  1792    1
  1670  1793  1791    1
  1671  1771  1769    1
  1672  1771  1770    1
  1673   977   978    1
  1674   977   979    1
  1675  1890  1891   ar
  1676   994   991   ar
  1677   994   995   ar
  1678  1886  1900    1
  1679  1752  1769    1
  1680  1222  1221    1
  1681  1888  1887    1
  1682   140   142   ar
  1683   140   139   ar
  1684   992   991   ar
  1685   992   986   ar
  1686  1896  1894   ar
  1687  1772  1770    1
  1688  1769  1789    1
  1689   134   132    1
  1690   142   143   ar
  1691  1230  1232   ar
  1692  1230  1229   ar
  1693   991   990   ar
  1694   995   996   ar
  1695    22     1    1
  1696   980   979    1
  1697   980   985    1
  1698  1232  1233   ar
  1699  1221  1223    1
  1700  1221  1219    1
  1701     1     3    1
  1702  1812  1791    2
  1703     2     3    1
  1704     2     4    1
  1705   138   139    1
  1706   138   133    1
  1707   986   987   ar
  1708  1891  1892    2
  1709  1891  1893   ar
  1710   139   146   ar
  1711  1229  1227   ar
  1712  1775  1791    1
  1713   979   981    1
  1714  1791  1811    1
  1715  1235  1216    2
  1716   990   996   ar
  1717   990   989   ar
  1718   996   985    1
  1719  1217  1219    1
  1720  1217  1218    1
  1721  1894  1893   ar
  1722  1894  1895    2
  1723  1233  1226   ar
  1724   143   144    2
  1725   143   145   ar
  1726  1191  1170    2
  1727  1921  1900    2
  1728  1900  1922    1
  1729  1900  1902    1
  1730  1223  1224    1
  1731  1223  1225    1
  1732  1192  1170    1
  1733   987   989   ar
  1734   987   988    1
  1735  1227  1226   ar
  1736  1227  1228    2
  1737   985   983    1
  1738  1226  1225    1
  1739   132   133    1
  1740   132   130    1
  1741  1219  1220    1
  1742    45    24    2
  1743   146   145   ar
  1744     4     6    1
  1745     4     5    1
  1746  1215  1193    2
  1747    46    24    1
  1748     7    24    1
  1749     7     6    1
  1750  1170  1172    1
  1751  1170  1156    1
  1752  1168  1150    2
  1753  1216  1234    1
  1754  1216  1218    1
  1755  1216  1199    1
  1756  1014  1013    1
  1757   981   983    1
  1758   981   982    1
  1759  1225  1220    1
  1760    24    26    1
  1761  1901  1902    1
  1762  1901  1903    1
  1763  1214  1193    1
  1764     6     8    1
  1765     5    10    1
  1766   131   130    1
  1767   131   129    1
  1768  1015  1013   ar
  1769  1015  1016   ar
  1770  1013  1012   ar
  1771   983   984    1
  1772  1193  1195    1
  1773  1193  1176    1
  1774   982   999    1
  1775  1172  1171    1
  1776  1151  1152    1
  1777  1151  1153    1
  1778   117   118   ar
  1779   117   122   ar
  1780   123   122    1
  1781  1156  1155    1
  1782  1904  1903    1
  1783  1904  1909    1
  1784  1210  1209    2
  1785  1169  1150    1
  1786  1150  1152    1
  1787  1150  1134    1
  1788  1012  1010   ar
  1789  1903  1905    1
  1790  1016  1009   ar
  1791   118   119   ar
  1792   122   121   ar
  1793  1199  1198    1
  1794  1919  1918   ar
  1795  1919  1920   ar
  1796  1171  1173    1
  1797  1918  1915   ar
  1798     9     8    1
  1799  1209  1208   ar
  1800  1209  1203   ar
  1801  1195  1194    1
  1802  1211  1208   ar
  1803  1211  1212   ar
  1804  1155  1153    1
  1805  1155  1157    1
  1806     8    10    1
  1807    26    25    1
  1808   148   129    2
  1809  1176  1175    1
  1810    10    21    1
  1811  1198  1200    1
  1812  1198  1196    1
  1813   129   147    1
  1814   129   113    1
  1815  1010  1009   ar
  1816  1010  1011    2
  1817  1009  1008    1
  1818  1208  1207   ar
  1819  1153  1154    1
  1820  1203  1204   ar
  1821   119   120   ar
  1822  1920  1909    1
  1823  1920  1914   ar
  1824  1175  1173    1
  1825  1175  1177    1
  1826   121   120   ar
  1827   121   124   ar
  1828    20    21   ar
  1829    20    19   ar
  1830  1212  1213   ar
  1831  1909  1907    1
  1832  1003  1008    1
  1833  1003  1002    1
  1834    25    27    1
  1835   999  1001    1
  1836   999  1017    2
  1837   999  1018    1
  1838  1001  1000    1
  1839  1188  1189   ar
  1840  1188  1185   ar
  1841  1134  1133    1
  1842  1200  1201    1
  1843  1200  1202    1
  1844  1915  1914   ar
  1845  1915  1916   ar
  1846   120   126   ar
  1847  1173  1174    1
  1848  1008  1006    1
  1849  1207  1213   ar
  1850  1207  1206   ar
  1851    21    15   ar
  1852  1189  1190   ar
  1853  1187  1186    2
  1854  1905  1906    1
  1855  1905  1907    1
  1856  1194  1196    1
  1857  1204  1206   ar
  1858  1204  1205    1
  1859   124   125   ar
  1860  1213  1202    1
  1861    66    47    2
  1862  1917  1916    2
  1863  1914  1913   ar
  1864  1916  1910   ar
  1865   114   115    1
  1866   114   112    1
  1867   114   116    1
  1868  1196  1197    1
  1869  1185  1186   ar
  1870  1185  1184   ar
  1871   113   112    1
  1872  1167  1166   ar
  1873  1167  1160   ar
  1874    19    16   ar
  1875  1166  1164   ar
  1876  1157  1158    1
  1877  1157  1159    1
  1878  1186  1180   ar
  1879  1154  1159    1
  1880  1000  1002    1
  1881   102   101    2
  1882    65    47    1
  1883  1906  1923    1
  1884  1174  1179    1
  1885  1034  1033    1
  1886   126   125   ar
  1887   126   116    1
  1888  1907  1908    1
  1889  1202  1197    1
  1890  1177  1179    1
  1891  1177  1178    1
  1892  1190  1184   ar
  1893  1190  1179    1
  1894  1002  1004    1
  1895   112   110    1
  1896    47    30    1
  1897    47    49    1
  1898  1133  1131    1
  1899  1133  1135    1
  1900  1184  1183   ar
  1901    27    29    1
  1902    27    28    1
  1903  1913  1911   ar
  1904  1159  1160    1
  1905  1160  1161   ar
  1906  1910  1911   ar
  1907  1180  1181   ar
  1908   116   111    1
  1909    30    29    1
  1910  1164  1165    2
  1911  1164  1163   ar
  1912    15    16   ar
  1913    15    14   ar
  1914  1033  1035   ar
  1915  1033  1032   ar
  1916    29    31    1
  1917  1129  1131    1
  1918  1129  1130    1
  1919  1944  1923    2
  1920  1006  1004    1
  1921  1006  1007    1
  1922    43    42   ar
  1923    43    44   ar
  1924   101   100   ar
  1925   101   103   ar
  1926  1148  1128    2
  1927    42    39   ar
  1928  1911  1912    1
  1929    16    17   ar
  1930   100    98   ar
  1931  1035  1036   ar
  1932  1131  1132    1
  1933  1032  1030   ar
  1934  1136  1135    1
  1935    28    33    1
  1936  1923  1943    1
  1937  1923  1925    1
  1938  1183  1181   ar
  1939  1004  1005    1
  1940  1181  1182    1
  1941  1135  1137    1
  1942  1163  1161   ar
  1943  1161  1162    2
  1944  1130  1128    1
  1945    14    12   ar
  1946   110   111    1
  1947   110   108    1
  1948    82    81    2
  1949   128   107    2
  1950   103   104   ar
  1951  1939  1938    1
  1952   109   108    1
  1953   109   107    1
  1954  1128  1149    1
  1955  1128  1112    1
  1956    49    48    1
  1957  1036  1029   ar
  1958  1030  1029   ar
  1959  1030  1031    2
  1960    44    33    1
  1961    44    38   ar
  1962  1940  1941   ar
  1963  1940  1937   ar
  1964    98    99    2
  1965    98    97   ar
  1966    86    67    2
  1967  1055  1054    1
  1968    62    61    1
  1969    39    38   ar
  1970    39    40   ar
  1971    33    31    1
  1972    31    32    1
  1973    63    61   ar
  1974    63    64   ar
  1975  1029  1028    1
  1976    17    18    2
  1977    17    11   ar
  1978  1925  1924    1
  1979    41    40    2
  1980  1941  1942   ar
  1981  1005  1019    1
  1982  1132  1137    1
  1983  1938  1937   ar
  1984  1938  1933   ar
  1985   107   127    1
  1986   107    93    1
  1987  1937  1936   ar
  1988  1049  1054   ar
  1989  1049  1050   ar
  1990    81    83   ar
  1991    81    80   ar
  1992  1137  1147    1
  1993   104    97   ar
  1994    12    11   ar
  1995    12    13    1
  1996    83    84   ar
  1997  1054  1053   ar
  1998    61    60   ar
  1999    38    37   ar
  2000    40    34   ar
  2001    97    96    1
  2002    48    50    1
  2003  1924  1926    1
  2004    64    57   ar
  2005  2020  2019    1
  2006  1028  1023    1
  2007  1028  1026    1
  2008  1023  1022    1
  2009  1147  1146   ar
  2010  1147  1141   ar
  2011  1112  1111    1
  2012  1146  1145   ar
  2013  1933  1934   ar
  2014  1050  1051   ar
  2015  1038  1019    2
  2016  1962  1961    2
  2017  1942  1936   ar
  2018  1942  1932    1
  2019    67    85    1
  2020    67    69    1
  2021    67    53    1
  2022  1927  1926    1
  2023  1927  1932    1
  2024  1073  1072    1
  2025  1936  1935   ar
  2026   106    87    2
  2027    94    92    1
  2028    94    96    1
  2029    94    95    1
  2030  1071  1072   ar
  2031  1071  1077   ar
  2032  1053  1056   ar
  2033  1053  1052   ar
  2034  1078  1077    2
  2035    80    78   ar
  2036    92    93    1
  2037    92    90    1
  2038  1019  1021    1
  2039  1019  1037    1
  2040    84    77   ar
  2041  1141  1140   ar
  2042  1141  1142   ar
  2043  1145  1142   ar
  2044    96    91    1
  2045  1056  1057   ar
  2046  1021  1020    1
  2047  1140  1139   ar
  2048  1072  1074   ar
  2049    52    50    1
  2050    52    53    1
  2051    52    54    1
  2052  1926  1928    1
  2053  1077  1076   ar
  2054    60    58   ar
  2055    37    35   ar
  2056  1934  1935   ar
  2057    34    35   ar
  2058  1051  1052   ar
  2059    69    68    1
  2060  1932  1930    1
  2061    50    51    1
  2062  1142  1143   ar
  2063  1052  1058   ar
  2064    57    58   ar
  2065    57    56    1
  2066    89    87    1
  2067    89    88    1
  2068  2019  2018   ar
  2069  2019  2021   ar
  2070  1111  1113    1
  2071  1111  1109    1
  2072  1983  1982    1
  2073  1961  1955   ar
  2074  1961  1960   ar
  2075  1020  1022    1
  2076  1026  1027    1
  2077  1026  1024    1
  2078  1022  1024    1
  2079    51    56    1
  2080    87   105    1
  2081    87    73    1
  2082  1139  1138   ar
  2083    35    36    1
  2084  2018  2024   ar
  2085    78    77   ar
  2086    78    79    2
  2087  1057  1058   ar
  2088  1143  1138   ar
  2089  1143  1144    1
  2090    77    76    1
  2091    58    59    2
  2092  1114  1113    1
  2093  1928  1930    1
  2094  1928  1929    1
  2095    91    90    1
  2096  1963  1960   ar
  2097  1963  1964   ar
  2098  1074  1075   ar
  2099  1113  1115    1
  2100    90    88    1
  2101  1058  1048    1
  2102  1076  1075   ar
  2103  1076  1079   ar
  2104  2021  2022   ar
  2105    56    54    1
  2106  1955  1956   ar
  2107  1024  1025    1
  2108    54    55    1
  2109  1960  1959   ar
  2110    68    70    1
  2111  1930  1931    1
  2112  1075  1081   ar
  2113  1107  1109    1
  2114  1107  1108    1
  2115    72    73    1
  2116    72    74    1
  2117    72    70    1
  2118  1967  1945    2
  2119  1109  1110    1
  2120  2003  2002    1
  2121  1982  1981   ar
  2122  1982  1984   ar
  2123  1079  1080   ar
  2124  1981  1979   ar
  2125  1048  1043    1
  2126  1048  1046    1
  2127  2001  2002   ar
  2128  2001  1999   ar
  2129  1964  1965   ar
  2130    71    76    1
  2131    71    70    1
  2132  1929  1945    1
  2133    76    74    1
  2134    74    75    1
  2135  2024  2025    2
  2136  2024  2023   ar
  2137  1043  1042    1
  2138  1956  1957    1
  2139  1956  1958   ar
  2140  2002  2004   ar
  2141  2022  2023   ar
  2142  2022  2028   ar
  2143  2000  1999    2
  2144  1984  1985   ar
  2145  1959  1965   ar
  2146  1959  1958   ar
  2147  1081  1080   ar
  2148  1081  1070    1
  2149  1115  1110    1
  2150  1115  1125    1
  2151  1126  1106    2
  2152  1025  1039    1
  2153  1945  1947    1
  2154  1945  1966    1
  2155  2016  2015    1
  2156  1127  1106    1
  2157  1118  1119   ar
  2158  1118  1117   ar
  2159  1108  1106    1
  2160  1999  1998   ar
  2161  1125  1119   ar
  2162  1125  1124   ar
  2163  1965  1954    1
  2164  2023  2026   ar
  2165  1119  1120   ar
  2166  1979  1980    2
  2167  1979  1978   ar
  2168  1117  1116   ar
  2169  1060  1039    2
  2170  1106  1090    1
  2171  1124  1123   ar
  2172  1070  1065    1
  2173  1070  1068    1
  2174  1041  1039    1
  2175  1041  1040    1
  2176  1046  1047    1
  2177  1046  1044    1
  2178  2015  2017    1
  2179  2015  2013    1
  2180  1120  1123   ar
  2181  1120  1121   ar
  2182  1116  1121   ar
  2183  1947  1946    1
  2184  2017  2028    1
  2185  2017  2012    1
  2186  2028  2027   ar
  2187  1039  1059    1
  2188  1985  1978   ar
  2189  1121  1122    1
  2190  1042  1040    1
  2191  1042  1044    1
  2192  1092  1091    1
  2193  2004  2005   ar
  2194  1978  1977    1
  2195  1065  1064    1
  2196  1998  2005   ar
  2197  1998  1997    1
  2198  1949  1954    1
  2199  1949  1948    1
  2200  1044  1045    1
  2201  1954  1952    1
  2202  2026  2027   ar
  2203  1068  1069    1
  2204  1068  1066    1
  2205  1946  1948    1
  2206  2012  2011    1
  2207  1090  1089    1
  2208  2013  2014    1
  2209  2013  2011    1
  2210  1997  1995    1
  2211  1997  1992    1
  2212  1948  1950    1
  2213  1091  1089    1
  2214  1091  1093    1
  2215  1977  1972    1
  2216  1977  1975    1
  2217  1062  1064    1
  2218  1062  1063    1
  2219  1064  1066    1
  2220  1952  1950    1
  2221  1952  1953    1
  2222  1950  1951    1
  2223  1066  1067    1
  2224  1089  1087    1
  2225  1045  1061    1
  2226  1095  1096   ar
  2227  1095  1094   ar
  2228  2011  2009    1
  2229  1096  1097   ar
  2230  1995  1996    1
  2231  1995  1993    1
  2232  1083  1061    2
  2233  1987  1968    2
  2234  1972  1971    1
  2235  1975  1976    1
  2236  1975  1973    1
  2237  1094  1099   ar
  2238  1093  1103    1
  2239  1093  1088    1
  2240  1992  1991    1
  2241  1097  1103   ar
  2242  1097  1098   ar
  2243  1103  1102   ar
  2244  1063  1061    1
  2245  1099  1098   ar
  2246  1099  1100    1
  2247  1061  1082    1
  2248  1098  1101   ar
  2249  1951  1968    1
  2250  1067  1084    1
  2251  2009  2010    1
  2252  2010  2008    1
  2253  1973  1971    1
  2254  1973  1974    1
  2255  1087  1088    1
  2256  1087  1085    1
  2257  1102  1101   ar
  2258  1993  1991    1
  2259  1993  1994    1
  2260  1968  1970    1
  2261  1968  1986    1
  2262  1971  1969    1
  2263  1105  1084    2
  2264  1991  1989    1
  2265  1086  1084    1
  2266  1086  1085    1
  2267  1969  1970    1
  2268  1084  1104    1
  2269  1990  1989    1
  2270  1990  1988    1
  2271  2030  2008    2
  2272  2007  1988    2
  2273  1994  2008    1
  2274  1974  1988    1
  2275  2008  2029    1
  2276  1988  2006    1
