lig.pdb
 OpenBabel03051820513D

 51 55  0  0  1  0  0  0  0  0999 V2000
   25.9150   38.2970   20.6800 N   0  0  0  0  0  0  0  0  0  0  0  0
   26.7500   41.6970   24.1800 N   0  0  0  0  0  0  0  0  0  0  0  0
   27.2750   37.7570   20.5890 C   0  0  0  0  0  0  0  0  0  0  0  0
   27.1970   36.9370   19.3100 C   0  0  2  0  0  0  0  0  0  0  0  0
   25.4880   39.0260   21.8690 C   0  0  0  0  0  0  0  0  0  0  0  0
   24.2520   38.8130   22.5130 C   0  0  0  0  0  0  0  0  0  0  0  0
   23.8350   39.5170   23.6150 C   0  0  0  0  0  0  0  0  0  0  0  0
   24.1750   41.3090   25.3200 C   0  0  0  0  0  0  0  0  0  0  0  0
   28.7300   42.7460   24.4990 C   0  0  0  0  0  0  0  0  0  0  0  0
   28.5420   40.8100   22.7850 C   0  0  0  0  0  0  0  0  0  0  0  0
   26.3310   40.0230   22.4360 C   0  0  0  0  0  0  0  0  0  0  0  0
   25.5060   43.8520   27.6050 O   0  0  0  0  0  0  0  0  0  0  0  0
   24.6760   43.2370   26.9320 C   0  0  0  0  0  0  0  0  0  0  0  0
   23.3720   43.3040   27.1710 O   0  0  0  0  0  0  0  0  0  0  0  0
   25.1050   42.3590   25.8110 C   0  0  1  0  0  0  0  0  0  0  0  0
   23.0870   41.0770   25.8580 O   0  0  0  0  0  0  0  0  0  0  0  0
   26.3810   42.5180   25.2430 C   0  0  0  0  0  0  0  0  0  0  0  0
   28.0900   41.8150   23.7850 C   0  0  0  0  0  0  0  0  0  0  0  0
   27.7310   43.4770   25.6860 S   0  0  0  0  0  0  0  0  0  0  0  0
   25.9120   40.7330   23.5840 C   0  0  0  0  0  0  0  0  0  0  0  0
   24.6530   40.5060   24.1610 C   0  0  0  0  0  0  0  0  0  0  0  0
   23.4340   37.8480   22.0470 F   0  0  0  0  0  0  0  0  0  0  0  0
   27.5500   40.3580   21.8260 N   0  0  0  0  0  0  0  0  0  0  0  0
   27.3400   41.2260   20.6870 C   0  0  0  0  0  0  0  0  0  0  0  0
   24.9740   37.5100   19.8910 C   0  0  0  0  0  0  0  0  0  0  0  0
   28.1720   37.3580   18.3550 O   0  0  0  0  0  0  0  0  0  0  0  0
   25.8430   37.2410   18.6740 C   0  0  2  0  0  0  0  0  0  0  0  0
   25.4590   36.0920   17.8320 N   0  0  0  0  0  0  0  0  0  0  0  0
   24.0090   35.8500   17.7210 C   0  0  0  0  0  0  0  0  0  0  0  0
   26.1300   36.0830   16.5230 C   0  0  0  0  0  0  0  0  0  0  0  0
   28.0140   38.5510   20.5050 H   0  0  0  0  0  0  0  0  0  0  0  0
   27.6220   37.1650   21.4330 H   0  0  0  0  0  0  0  0  0  0  0  0
   27.3100   35.8780   19.5360 H   0  0  0  0  0  0  0  0  0  0  0  0
   22.8690   39.2890   24.0650 H   0  0  0  0  0  0  0  0  0  0  0  0
   29.7710   43.0490   24.3950 H   0  0  0  0  0  0  0  0  0  0  0  0
   29.4010   41.2250   22.2590 H   0  0  0  0  0  0  0  0  0  0  0  0
   28.9260   39.9770   23.3680 H   0  0  0  0  0  0  0  0  0  0  0  0
   23.1650   43.9070   27.9330 H   0  0  0  0  0  0  0  0  0  0  0  0
   26.7500   40.7160   19.9270 H   0  0  0  0  0  0  0  0  0  0  0  0
   28.2820   41.4520   20.1900 H   0  0  0  0  0  0  0  0  0  0  0  0
   26.7790   42.1360   20.8960 H   0  0  0  0  0  0  0  0  0  0  0  0
   24.6270   36.5910   20.3630 H   0  0  0  0  0  0  0  0  0  0  0  0
   24.0810   38.0880   19.6650 H   0  0  0  0  0  0  0  0  0  0  0  0
   28.7990   36.5940   18.2560 H   0  0  0  0  0  0  0  0  0  0  0  0
   25.9140   38.1600   18.0950 H   0  0  0  0  0  0  0  0  0  0  0  0
   23.4550   36.7840   17.6380 H   0  0  0  0  0  0  0  0  0  0  0  0
   23.6190   35.3650   18.6160 H   0  0  0  0  0  0  0  0  0  0  0  0
   23.6800   35.2270   16.8930 H   0  0  0  0  0  0  0  0  0  0  0  0
   26.2900   37.0550   16.0620 H   0  0  0  0  0  0  0  0  0  0  0  0
   25.5990   35.4790   15.7880 H   0  0  0  0  0  0  0  0  0  0  0  0
   27.1110   35.6150   16.5940 H   0  0  0  0  0  0  0  0  0  0  0  0
  1  5  1  0  0  0  0
  2 17  1  0  0  0  0
  3  1  1  0  0  0  0
  3 32  1  0  0  0  0
  4 33  1  1  0  0  0
  4  3  1  0  0  0  0
  5 11  2  0  0  0  0
  5  6  1  0  0  0  0
  6  7  2  0  0  0  0
  7 34  1  0  0  0  0
  7 21  1  0  0  0  0
  8 15  1  0  0  0  0
  8 16  2  0  0  0  0
  9 19  1  0  0  0  0
 10 37  1  0  0  0  0
 10 18  1  0  0  0  0
 11 20  1  0  0  0  0
 13 14  1  0  0  0  0
 13 12  2  0  0  0  0
 14 38  1  0  0  0  0
 15 13  1  1  0  0  0
 17 19  2  0  0  0  0
 17 15  1  0  0  0  0
 18  2  1  0  0  0  0
 18  9  2  0  0  0  0
 20 21  2  0  0  0  0
 20  2  1  0  0  0  0
 21  8  1  0  0  0  0
 22  6  1  0  0  0  0
 23 11  1  0  0  0  0
 23 10  1  0  0  0  0
 24 41  1  0  0  0  0
 24 23  1  0  0  0  0
 25 42  1  0  0  0  0
 25  1  1  0  0  0  0
 26  4  1  0  0  0  0
 27 45  1  6  0  0  0
 27  4  1  0  0  0  0
 27 25  1  0  0  0  0
 28 27  1  0  0  0  0
 29 28  1  0  0  0  0
 29 47  1  0  0  0  0
 30 51  1  0  0  0  0
 30 28  1  0  0  0  0
 31  3  1  0  0  0  0
 35  9  1  0  0  0  0
 36 10  1  0  0  0  0
 39 24  1  0  0  0  0
 40 24  1  0  0  0  0
 43 25  1  0  0  0  0
 44 26  1  0  0  0  0
 46 29  1  0  0  0  0
 48 29  1  0  0  0  0
 49 30  1  0  0  0  0
 50 30  1  0  0  0  0
M  END
$$$$
